# generated using pymatgen
data_Cd2H28C24N4O9
_symmetry_space_group_name_H-M   'P 1'
_cell_length_a   10.33820409
_cell_length_b   10.37588753
_cell_length_c   14.19090000
_cell_angle_alpha   102.17024905
_cell_angle_beta   111.15213951
_cell_angle_gamma   102.22066015
_symmetry_Int_Tables_number   1
_chemical_formula_structural   Cd2H28C24N4O9
_chemical_formula_sum   'Cd4 H56 C48 N8 O18'
_cell_volume   1316.82459235
_cell_formula_units_Z   2
loop_
 _symmetry_equiv_pos_site_id
 _symmetry_equiv_pos_as_xyz
  1  'x, y, z'
loop_
 _atom_site_type_symbol
 _atom_site_label
 _atom_site_symmetry_multiplicity
 _atom_site_fract_x
 _atom_site_fract_y
 _atom_site_fract_z
 _atom_site_occupancy
 _atom_site_hle17_bader_spin_density
 _atom_site_hle17_ddec_charge
 _atom_site_hle17_ddec_spin_density
 _atom_site_hle17_ddec_sum_bond_order
 _atom_site_hle17_magmom
 _atom_site_hse06_10hf_bader_spin_density
 _atom_site_hse06_10hf_ddec_charge
 _atom_site_hse06_10hf_ddec_spin_density
 _atom_site_hse06_10hf_ddec_sum_bond_order
 _atom_site_hse06_10hf_magmom
 _atom_site_hse06_bader_spin_density
 _atom_site_hse06_ddec_charge
 _atom_site_hse06_ddec_spin_density
 _atom_site_hse06_ddec_sum_bond_order
 _atom_site_hse06_magmom
 _atom_site_pbe_bader_charge
 _atom_site_pbe_bader_spin_density
 _atom_site_pbe_cm5_charge
 _atom_site_pbe_ddec_charge
 _atom_site_pbe_ddec_spin_density
 _atom_site_pbe_ddec_sum_bond_order
 _atom_site_pbe_magmom
Cd  Cd0  1  0.62876302  0.94545732  0.10944242  1  0  1.207332  0  1.645421  0  0  1.028103  0  2.08461  0  0  1.085069  0  2.030432  0  1.310865  0  0.776182  0.987139  0  2.12205  0
Cd  Cd1  1  0.83519195  0.01914441  0.39050215  1  0  1.208324  0  1.64172  0  0  1.029045  0  2.080379  0  0  1.086114  0  2.026272  0  1.309113  0  0.775349  0.987935  0  2.117827  0
Cd  Cd2  1  0.37123672  0.05454364  0.89055710  1  0  1.207331  0  1.645445  0  0  1.028093  0  2.084652  0  0  1.085061  0  2.030471  0  1.310707  0  0.776167  0.987128  0  2.122091  0
Cd  Cd3  1  0.16480848  0.98085551  0.60949738  1  0  1.208315  0  1.641737  0  0  1.029027  0  2.080405  0  0  1.086097  0  2.026297  0  1.309149  0  0.775346  0.987915  0  2.117854  0
H  H4  1  0.49484260  0.34433333  0.03227763  1  0  0.090937  0  0.959617  0  0  0.105181  0  1.025986  0  0  0.107008  0  1.025542  0  0.068416  0  0.094709  0.10365  0  1.026879  0
H  H5  1  0.31227582  0.96322291  0.46834682  1  0  0.090113  0  0.961272  0  0  0.10453  0  1.027534  0  0  0.106313  0  1.027073  0  0.04017  0  0.094684  0.103029  0  1.028462  0
H  H6  1  0.50515679  0.65566659  0.96772164  1  0  0.090947  0  0.959615  0  0  0.105189  0  1.025981  0  0  0.107017  0  1.025536  0  0.068424  0  0.094713  0.103659  0  1.026874  0
H  H7  1  0.68772495  0.03677804  0.53165367  1  0  0.090088  0  0.961282  0  0  0.104513  0  1.027543  0  0  0.106295  0  1.027081  0  0.04013  0  0.094676  0.103011  0  1.02847  0
H  H8  1  0.62349626  0.34038704  0.97902306  1  0  0.115801  0  0.952719  0  0  0.130831  0  1.01416  0  0  0.133192  0  1.013659  0  0.069807  0  0.102559  0.128963  0  1.014779  0
H  H9  1  0.36095941  0.14431818  0.52123414  1  0  0.11677  0  0.952526  0  0  0.131439  0  1.014052  0  0  0.133806  0  1.013491  0  0.101006  0  0.102389  0.129566  0  1.014708  0
H  H10  1  0.37650348  0.65961392  0.02097645  1  0  0.115804  0  0.952718  0  0  0.130816  0  1.014176  0  0  0.133177  0  1.013676  0  0.069848  0  0.102556  0.128949  0  1.014793  0
H  H11  1  0.63904033  0.85568278  0.47876538  1  0  0.116769  0  0.952524  0  0  0.131458  0  1.014039  0  0  0.133826  0  1.013478  0  0.101019  0  0.102397  0.129582  0  1.014698  0
H  H12  1  0.81043636  0.54179763  0.14935955  1  0  0.070101  0  0.929077  0  0  0.089064  0  0.987534  0  0  0.089941  0  0.988291  0  0.01576  0  0.091154  0.088432  0  0.987009  0
H  H13  1  0.39261762  0.16045767  0.35025447  1  0  0.069351  0  0.928223  0  0  0.088382  0  0.98701  0  0  0.089249  0  0.987749  0  0.03659  0  0.090773  0.087771  0  0.986467  0
H  H14  1  0.18956303  0.45820229  0.85063901  1  0  0.070142  0  0.929079  0  0  0.089111  0  0.987539  0  0  0.089989  0  0.988293  0  0.01575  0  0.091165  0.088479  0  0.987014  0
H  H15  1  0.60738212  0.83954329  0.64974575  1  0  0.069358  0  0.928241  0  0  0.088387  0  0.987025  0  0  0.089254  0  0.987761  0  0.036563  0  0.09077  0.087775  0  0.986482  0
H  H16  1  0.67082795  0.58273081  0.05839346  1  0  0.063118  0  0.951779  0  0  0.079452  0  1.016977  0  0  0.080446  0  1.017056  0  0.014728  0  0.086398  0.078732  0  1.016903  0
H  H17  1  0.52483071  0.11207349  0.44122925  1  0  0.062683  0  0.952346  0  0  0.079455  0  1.017298  0  0  0.080404  0  1.017389  0  0.041477  0  0.086532  0.078775  0  1.017213  0
H  H18  1  0.32917282  0.41727014  0.94160563  1  0  0.063112  0  0.951806  0  0  0.079463  0  1.016996  0  0  0.080456  0  1.017076  0  0.014752  0  0.086411  0.078738  0  1.016929  0
H  H19  1  0.47516972  0.88792643  0.55877028  1  0  0.062702  0  0.952341  0  0  0.079465  0  1.0173  0  0  0.080413  0  1.017392  0  0.04148  0  0.086532  0.078785  0  1.017214  0
H  H20  1  0.52429016  0.55242186  0.16694422  1  0  0.100188  0  0.912869  0  0  0.121556  0  0.963366  0  0  0.123243  0  0.963348  0  0.054728  0  0.101242  0.120367  0  0.963415  0
H  H21  1  0.38552386  0.85811207  0.33377610  1  0  0.101269  0  0.913196  0  0  0.123343  0  0.962583  0  0  0.125047  0  0.962577  0  0.045994  0  0.10249  0.122097  0  0.962692  0
H  H22  1  0.47570923  0.44757805  0.83305434  1  0  0.100162  0  0.912882  0  0  0.121537  0  0.963378  0  0  0.123221  0  0.963363  0  0.054729  0  0.101219  0.120348  0  0.963428  0
H  H23  1  0.61447588  0.14188889  0.66622412  1  0  0.101302  0  0.913174  0  0  0.123352  0  0.962569  0  0  0.125057  0  0.962563  0  0.045984  0  0.102487  0.122107  0  0.96268  0
H  H24  1  0.67217246  0.52574646  0.26259806  1  0  0.093671  0  0.939391  0  0  0.107724  0  1.003468  0  0  0.110013  0  1.002826  0  0.025647  0  0.094541  0.105949  0  1.004241  0
H  H25  1  0.26319507  0.91027629  0.23799414  1  0  0.095578  0  0.937901  0  0  0.109054  0  1.002498  0  0  0.111402  0  1.001816  0  0.050029  0  0.09555  0.107269  0  1.003256  0
H  H26  1  0.32782763  0.47425242  0.73740122  1  0  0.093663  0  0.939359  0  0  0.107713  0  1.003447  0  0  0.109994  0  1.002814  0  0.025597  0  0.094529  0.105938  0  1.00422  0
H  H27  1  0.73680363  0.08972467  0.76200580  1  0  0.095612  0  0.93783  0  0  0.109076  0  1.002418  0  0  0.111424  0  1.001739  0  0.050038  0  0.095556  0.107293  0  1.003178  0
H  H28  1  0.93681219  0.86773051  0.12782006  1  0  0.111223  0  0.927023  0  0  0.121796  0  0.987592  0  0  0.124678  0  0.983979  0  0.1598  0  0.140587  0.119604  0  0.99019  0
H  H29  1  0.73993984  0.30951597  0.37225918  1  0  0.110205  0  0.92838  0  0  0.120427  0  0.989327  0  0  0.123231  0  0.985854  0  0.16906  0  0.139841  0.118324  0  0.991802  0
H  H30  1  0.06318686  0.13226837  0.87217895  1  0  0.111249  0  0.926979  0  0  0.121799  0  0.987572  0  0  0.124682  0  0.983958  0  0.159787  0  0.140592  0.119605  0  0.990173  0
H  H31  1  0.26006162  0.69048395  0.62774133  1  0  0.1102  0  0.928377  0  0  0.120405  0  0.989347  0  0  0.123207  0  0.985874  0  0.16906  0  0.139837  0.118302  0  0.991822  0
H  H32  1  0.59897682  0.86598491  0.84987209  1  0  0.111179  0  0.967984  0  0  0.121457  0  1.026174  0  0  0.123507  0  1.025869  0  0.126817  0  0.116687  0.11984  0  1.026689  0
H  H33  1  0.01583547  0.24922329  0.65023636  1  0  0.108966  0  0.969905  0  0  0.119735  0  1.027508  0  0  0.121758  0  1.027233  0  0.124324  0  0.11564  0.118185  0  1.027957  0
H  H34  1  0.40102257  0.13401500  0.15012717  1  0  0.111176  0  0.968001  0  0  0.121444  0  1.0262  0  0  0.12351  0  1.025872  0  0.126823  0  0.116691  0.119821  0  1.026722  0
H  H35  1  0.98416427  0.75077766  0.34976386  1  0  0.108964  0  0.969898  0  0  0.119733  0  1.0275  0  0  0.121755  0  1.027227  0  0.124324  0  0.115643  0.118184  0  1.027948  0
H  H36  1  0.81799489  0.80145917  0.79798824  1  0  0.130423  0  0.976627  0  0  0.137221  0  1.041276  0  0  0.141246  0  1.038097  0  0.167254  0  0.121374  0.134285  0  1.043694  0
H  H37  1  0.00368858  0.51927009  0.70162146  1  0  0.129227  0  0.977042  0  0  0.136049  0  1.041965  0  0  0.140051  0  1.038817  0  0.161123  0  0.120494  0.133112  0  1.044402  0
H  H38  1  0.18200450  0.19854075  0.20201173  1  0  0.13042  0  0.976645  0  0  0.13723  0  1.041277  0  0  0.141255  0  1.038096  0  0.167242  0  0.12137  0.134293  0  1.043696  0
H  H39  1  0.99630977  0.48072983  0.29837824  1  0  0.129237  0  0.977023  0  0  0.136062  0  1.041943  0  0  0.140064  0  1.038794  0  0.161117  0  0.120502  0.133127  0  1.044382  0
H  H40  1  0.13988269  0.85244511  0.04480434  1  0  0.092578  0  0.928587  0  0  0.104111  0  0.997004  0  0  0.105117  0  0.996775  0  0.09081  0  0.114605  0.103351  0  0.997169  0
H  H41  1  0.80898421  0.59500297  0.45505510  1  0  0.093536  0  0.928494  0  0  0.104726  0  0.996773  0  0  0.105745  0  0.996531  0  0.088955  0  0.114843  0.103972  0  0.996947  0
H  H42  1  0.86011567  0.14755480  0.95519465  1  0  0.092565  0  0.928621  0  0  0.104101  0  0.997053  0  0  0.105121  0  0.996798  0  0.090794  0  0.114622  0.103342  0  0.997218  0
H  H43  1  0.19101519  0.40499694  0.54494487  1  0  0.09353  0  0.928495  0  0  0.104728  0  0.996772  0  0  0.105736  0  0.996523  0  0.088952  0  0.114845  0.103973  0  0.996945  0
H  H44  1  0.06182882  0.77908541  0.90509242  1  0  0.096972  0  0.916682  0  0  0.114379  0  0.973639  0  0  0.115514  0  0.972865  0  0.090818  0  0.117888  0.113542  0  0.974041  0
H  H45  1  0.87451691  0.65572893  0.59477297  1  0  0.097282  0  0.914404  0  0  0.113999  0  0.971945  0  0  0.115097  0  0.971233  0  0.114837  0  0.11812  0.113184  0  0.972315  0
H  H46  1  0.93817057  0.22091451  0.09490684  1  0  0.096956  0  0.916666  0  0  0.114356  0  0.973639  0  0  0.115489  0  0.972869  0  0.090734  0  0.117874  0.113518  0  0.974043  0
H  H47  1  0.12548456  0.34427099  0.40522684  1  0  0.097263  0  0.914458  0  0  0.113997  0  0.971984  0  0  0.115084  0  0.971266  0  0.114843  0  0.118113  0.113181  0  0.972355  0
H  H48  1  0.80241870  0.54432666  0.86029206  1  0  0.084959  0  0.95918  0  0  0.096662  0  1.019862  0  0  0.099504  0  1.018779  0  0.058879  0  0.096876  0.094451  0  1.020936  0
H  H49  1  0.68394030  0.44223216  0.63983414  1  0  0.084622  0  0.959999  0  0  0.096393  0  1.020592  0  0  0.099202  0  1.019556  0  0.044717  0  0.096676  0.094173  0  1.021676  0
H  H50  1  0.19757966  0.45567325  0.13970764  1  0  0.084935  0  0.959233  0  0  0.096633  0  1.019923  0  0  0.099476  0  1.018839  0  0.058879  0  0.096857  0.094422  0  1.020998  0
H  H51  1  0.31606186  0.55776671  0.36016710  1  0  0.084634  0  0.959973  0  0  0.096413  0  1.020556  0  0  0.099218  0  1.019526  0  0.044688  0  0.096686  0.094193  0  1.021641  0
H  H52  1  0.23282504  0.68992598  0.11789513  1  0  0.101251  0  0.988763  0  0  0.11016  0  1.052315  0  0  0.113799  0  1.050184  0  0.102388  0  0.099224  0.10744  0  1.054139  0
H  H53  1  0.57295369  0.61519474  0.38203625  1  0  0.102108  0  0.988273  0  0  0.110188  0  1.052906  0  0  0.113863  0  1.050716  0  0.102938  0  0.09921  0.107413  0  1.054793  0
H  H54  1  0.76717435  0.31007393  0.88210484  1  0  0.101265  0  0.988733  0  0  0.110171  0  1.052286  0  0  0.113811  0  1.050157  0  0.102394  0  0.099229  0.107451  0  1.05411  0
H  H55  1  0.42704778  0.38480518  0.61796497  1  0  0.10211  0  0.988242  0  0  0.110188  0  1.05288  0  0  0.113861  0  1.050691  0  0.110141  0  0.099214  0.107413  0  1.054768  0
H  H56  1  0.95934342  0.10370502  0.26323861  1  0  0.416811  0  0.897727  0  0  0.378722  0  0.972962  0  0  0.391711  0  0.954286  0  0.654522  0  0.278479  0.369559  0  0.986068  0
H  H57  1  0.84030760  0.19555869  0.23668212  1  0  0.415775  0  0.899148  0  0  0.377999  0  0.973784  0  0  0.390987  0  0.955106  0  0.650159  0  0.277947  0.368841  0  0.986881  0
H  H58  1  0.04065597  0.89629490  0.73676065  1  0  0.416801  0  0.897738  0  0  0.378706  0  0.972983  0  0  0.391695  0  0.954307  0  0.654523  0  0.278465  0.369542  0  0.98609  0
H  H59  1  0.15969283  0.80444123  0.76331812  1  0  0.415834  0  0.899067  0  0  0.378064  0  0.973689  0  0  0.39105  0  0.955015  0  0.650159  0  0.277977  0.368906  0  0.986787  0
C  C60  1  0.66615423  0.26889034  0.11112479  1  0  0.724341  0  3.799055  0  0  0.67524  0  4.096628  0  0  0.709868  0  4.08893  0  1.541976  0  0.214346  0.651681  0  4.101104  0
C  C61  1  0.15777481  0.05503095  0.38919969  1  0  0.722179  0  3.804239  0  0  0.673978  0  4.100099  0  0  0.70851  0  4.09247  0  1.555092  0  0.214028  0.650485  0  4.104505  0
C  C62  1  0.33384551  0.73111062  0.88887473  1  0  0.724405  0  3.798981  0  0  0.675341  0  4.096511  0  0  0.709969  0  4.088815  0  1.542022  0  0.214383  0.65178  0  4.100989  0
C  C63  1  0.84222596  0.94497001  0.61080080  1  0  0.722137  0  3.804278  0  0  0.673947  0  4.100127  0  0  0.708479  0  4.0925  0  1.555426  0  0.214019  0.650454  0  4.104533  0
C  C64  1  0.61306027  0.36919041  0.05452804  1  0  -0.286822  0  3.684932  0  0  -0.325129  0  3.93558  0  0  -0.331935  0  3.944678  0  -0.066123  0  -0.173367  -0.320469  0  3.929726  0
C  C65  1  0.31482204  0.05879437  0.44591464  1  0  -0.286424  0  3.686537  0  0  -0.324745  0  3.937549  0  0  -0.331429  0  3.946412  0  -0.079323  0  -0.172532  -0.320179  0  3.931794  0
C  C66  1  0.38693912  0.63080951  0.94547123  1  0  -0.286907  0  3.685027  0  0  -0.325194  0  3.935696  0  0  -0.332003  0  3.944796  0  -0.06633  0  -0.173401  -0.320533  0  3.929842  0
C  C67  1  0.68517874  0.94120658  0.55408585  1  0  -0.286364  0  3.686522  0  0  -0.324724  0  3.937548  0  0  -0.331409  0  3.94641  0  -0.079626  0  -0.172532  -0.320157  0  3.93179  0
C  C68  1  0.69174249  0.52309689  0.11456730  1  0  -0.054087  0  3.708753  0  0  -0.097518  0  3.970369  0  0  -0.09696  0  3.98411  0  0.033751  0  -0.169746  -0.097728  0  3.960727  0
C  C69  1  0.40889665  0.07712624  0.38546213  1  0  -0.052398  0  3.708969  0  0  -0.097  0  3.972231  0  0  -0.096327  0  3.985755  0  0.018564  0  -0.169609  -0.097262  0  3.962692  0
C  C70  1  0.30825725  0.47690406  0.88543222  1  0  -0.054133  0  3.708776  0  0  -0.097604  0  3.970437  0  0  -0.097044  0  3.984182  0  0.033866  0  -0.169778  -0.097814  0  3.960802  0
C  C71  1  0.59110412  0.92287471  0.61453836  1  0  -0.052442  0  3.709041  0  0  -0.097034  0  3.97227  0  0  -0.09636  0  3.985795  0  0.018604  0  -0.169611  -0.097293  0  3.962731  0
C  C72  1  0.64444998  0.57743999  0.20129517  1  0  -0.257936  0  3.67159  0  0  -0.295017  0  3.924347  0  0  -0.30162  0  3.933442  0  -0.021423  0  -0.164432  -0.290381  0  3.918038  0
C  C73  1  0.37626920  0.94341040  0.29905304  1  0  -0.261038  0  3.673404  0  0  -0.29756  0  3.926414  0  0  -0.304309  0  3.935583  0  -0.043844  0  -0.165918  -0.292888  0  3.920127  0
C  C74  1  0.35555045  0.42255992  0.79870437  1  0  -0.257861  0  3.671539  0  0  -0.294936  0  3.92433  0  0  -0.301539  0  3.933438  0  -0.0214  0  -0.164392  -0.290299  0  3.918022  0
C  C75  1  0.62373054  0.05659056  0.70094718  1  0  -0.261112  0  3.673402  0  0  -0.297569  0  3.926334  0  0  -0.304322  0  3.935503  0  -0.043853  0  -0.165902  -0.292907  0  3.920061  0
C  C76  1  0.70782056  0.73379239  0.25450049  1  0  0.689481  0  3.87209  0  0  0.640294  0  4.174347  0  0  0.674678  0  4.167781  0  1.552438  0  0.198222  0.616937  0  4.177881  0
C  C77  1  0.47932762  0.95298624  0.24524499  1  0  0.691483  0  3.870448  0  0  0.641463  0  4.173536  0  0  0.67587  0  4.16697  0  1.534592  0  0.198336  0.618122  0  4.177025  0
C  C78  1  0.29217918  0.26620856  0.74549903  1  0  0.689339  0  3.872312  0  0  0.640136  0  4.174601  0  0  0.674522  0  4.168034  0  1.552427  0  0.198174  0.61678  0  4.178134  0
C  C79  1  0.52067247  0.04701264  0.75475500  1  0  0.691526  0  3.870516  0  0  0.641477  0  4.173631  0  0  0.675885  0  4.167063  0  1.534174  0  0.198331  0.618138  0  4.17712  0
C  C80  1  0.87396083  0.85914903  0.04565205  1  0  0.175101  0  3.635285  0  0  0.110661  0  3.905889  0  0  0.125567  0  3.917523  0  0.9687  0  0.14153  0.101027  0  3.897137  0
C  C81  1  0.81336208  0.32836217  0.45435728  1  0  0.175565  0  3.639147  0  0  0.111603  0  3.910075  0  0  0.126519  0  3.921705  0  0.958444  0  0.142252  0.10193  0  3.901265  0
C  C82  1  0.12603753  0.14085088  0.95434764  1  0  0.175057  0  3.635259  0  0  0.110649  0  3.905857  0  0  0.125553  0  3.917491  0  0.968689  0  0.141519  0.101015  0  3.897105  0
C  C83  1  0.18663800  0.67163671  0.54564201  1  0  0.175536  0  3.639141  0  0  0.111585  0  3.910074  0  0  0.126505  0  3.921707  0  0.95846  0  0.142239  0.101912  0  3.901265  0
C  C84  1  0.70196588  0.85654103  0.89962035  1  0  -0.007752  0  3.7615  0  0  -0.040884  0  4.027164  0  0  -0.039333  0  4.049122  0  0.408756  0  -0.010986  -0.041884  0  4.012572  0
C  C85  1  0.95657818  0.30218031  0.60033649  1  0  -0.003883  0  3.762382  0  0  -0.037094  0  4.027727  0  0  -0.035521  0  4.049659  0  0.385928  0  -0.009556  -0.03818  0  4.013132  0
C  C86  1  0.29803455  0.14345889  0.10037918  1  0  -0.00772  0  3.761482  0  0  -0.04084  0  4.027147  0  0  -0.039301  0  4.049094  0  0.408769  0  -0.01096  -0.041836  0  4.012556  0
C  C87  1  0.04342225  0.69781961  0.39966375  1  0  -0.003836  0  3.762344  0  0  -0.03704  0  4.027683  0  0  -0.035467  0  4.049616  0  0.386126  0  -0.009525  -0.038126  0  4.013088  0
C  C88  1  0.80766013  0.82094334  0.87267527  1  0  -0.08167  0  3.680975  0  0  -0.123211  0  3.944183  0  0  -0.122317  0  3.962521  0  0.272877  0  -0.004044  -0.123776  0  3.932139  0
C  C89  1  0.94845369  0.43455466  0.62710149  1  0  -0.081168  0  3.68066  0  0  -0.122802  0  3.9439  0  0  -0.121891  0  3.962211  0  0.277382  0  -0.003046  -0.123339  0  3.931844  0
C  C90  1  0.19233926  0.17905657  0.12732540  1  0  -0.08172  0  3.680946  0  0  -0.123265  0  3.944144  0  0  -0.12237  0  3.962486  0  0.272891  0  -0.004061  -0.123829  0  3.932099  0
C  C91  1  0.05154536  0.56544422  0.37289893  1  0  -0.0812  0  3.68067  0  0  -0.12284  0  3.943915  0  0  -0.121929  0  3.962229  0  0.277386  0  -0.003071  -0.123381  0  3.931863  0
C  C92  1  0.04310807  0.77700836  0.97627036  1  0  -0.038783  0  3.628182  0  0  -0.106097  0  3.878982  0  0  -0.101642  0  3.88901  0  0.286337  0  -0.045431  -0.108935  0  3.871798  0
C  C93  1  0.80143726  0.56653833  0.52357944  1  0  -0.039415  0  3.627227  0  0  -0.1055  0  3.876602  0  0  -0.101029  0  3.886588  0  0.257654  0  -0.04497  -0.108391  0  3.869476  0
C  C94  1  0.95689133  0.22299156  0.02372891  1  0  -0.038743  0  3.628139  0  0  -0.106094  0  3.878969  0  0  -0.101643  0  3.889008  0  0.286437  0  -0.045437  -0.108931  0  3.871785  0
C  C95  1  0.19856248  0.43346262  0.47642078  1  0  -0.039385  0  3.627248  0  0  -0.105501  0  3.876648  0  0  -0.10097  0  3.886558  0  0.257665  0  -0.044948  -0.108387  0  3.869515  0
C  C96  1  0.88988674  0.52525603  0.92155764  1  0  -0.113123  0  3.762058  0  0  -0.132829  0  4.00773  0  0  -0.135357  0  4.029812  0  -0.065766  0  -0.094855  -0.131007  0  3.992518  0
C  C97  1  0.60361927  0.46836519  0.57852277  1  0  -0.113173  0  3.763047  0  0  -0.133332  0  4.008467  0  0  -0.135858  0  4.030567  0  -0.049969  0  -0.094665  -0.131503  0  3.993249  0
C  C98  1  0.11011507  0.47474493  0.07844312  1  0  -0.113136  0  3.76211  0  0  -0.132851  0  4.007761  0  0  -0.13538  0  4.02984  0  -0.065787  0  -0.094868  -0.131029  0  3.992549  0
C  C99  1  0.39638254  0.53163265  0.42147822  1  0  -0.113218  0  3.763143  0  0  -0.133379  0  4.00856  0  0  -0.135902  0  4.030667  0  -0.050332  0  -0.0947  -0.131549  0  3.993342  0
C  C100  1  0.02025624  0.63326581  0.98808825  1  0  0.068837  0  3.748049  0  0  0.087044  0  3.988772  0  0  0.086014  0  4.014182  0  -0.060357  0  -0.011581  0.087739  0  3.971222  0
C  C101  1  0.64551630  0.53218126  0.51185322  1  0  0.066432  0  3.751793  0  0  0.085485  0  3.990647  0  0  0.084481  0  4.01605  0  -0.025486  0  -0.012988  0.086172  0  3.973112  0
C  C102  1  0.97974592  0.36673618  0.01191206  1  0  0.068848  0  3.748059  0  0  0.087111  0  3.988712  0  0  0.086081  0  4.014127  0  -0.060293  0  -0.011555  0.087805  0  3.971164  0
C  C103  1  0.35448517  0.46781865  0.48814871  1  0  0.066498  0  3.751807  0  0  0.085539  0  3.990678  0  0  0.084517  0  4.016071  0  -0.025241  0  -0.012966  0.086224  0  3.973141  0
C  C104  1  0.13013054  0.60669327  0.06679788  1  0  -0.122934  0  3.755396  0  0  -0.138658  0  3.996968  0  0  -0.142187  0  4.019356  0  -0.018005  0  -0.095791  -0.136053  0  3.981711  0
C  C105  1  0.54038449  0.56338795  0.43309276  1  0  -0.121388  0  3.752643  0  0  -0.136761  0  3.994066  0  0  -0.140299  0  4.0164  0  -0.055064  0  -0.095235  -0.134125  0  3.978876  0
C  C106  1  0.86987024  0.39330768  0.93320191  1  0  -0.12299  0  3.755393  0  0  -0.13873  0  3.996964  0  0  -0.142262  0  4.019356  0  -0.018065  0  -0.095834  -0.136125  0  3.981708  0
C  C107  1  0.45961594  0.43661197  0.56690749  1  0  -0.121427  0  3.752594  0  0  -0.136792  0  3.994021  0  0  -0.14033  0  4.016362  0  -0.06244  0  -0.095256  -0.134156  0  3.978833  0
N  N108  1  0.74491563  0.88020528  0.00759007  1  0  -0.400814  0  3.279783  0  0  -0.323425  0  3.564767  0  0  -0.345863  0  3.582654  0  -1.221423  0  -0.361824  -0.308011  0  3.552024  0
N  N109  1  0.87206752  0.23737194  0.49246317  1  0  -0.402853  0  3.27667  0  0  -0.326207  0  3.561971  0  0  -0.348575  0  3.579803  0  -1.196  0  -0.360861  -0.31082  0  3.549279  0
N  N110  1  0.25508272  0.11979463  0.99240963  1  0  -0.400836  0  3.279758  0  0  -0.323454  0  3.564746  0  0  -0.345891  0  3.582636  0  -1.221247  0  -0.361855  -0.308041  0  3.552002  0
N  N111  1  0.12793325  0.76262901  0.50753732  1  0  -0.40287  0  3.276611  0  0  -0.326228  0  3.561909  0  0  -0.348596  0  3.579742  0  -1.19618  0  -0.36088  -0.31084  0  3.549216  0
N  N112  1  0.91590827  0.82344640  0.96618551  1  0  -0.06352  0  3.580469  0  0  0.029634  0  3.802107  0  0  0.014549  0  3.828838  0  -1.22844  0  -0.241328  0.039761  0  3.783541  0
N  N113  1  0.85764748  0.44949093  0.53360634  1  0  -0.064457  0  3.580216  0  0  0.02828  0  3.80148  0  0  0.01321  0  3.828204  0  -1.223047  0  -0.243084  0.038428  0  3.782877  0
N  N114  1  0.08408975  0.17655247  0.03381323  1  0  -0.063431  0  3.580357  0  0  0.029723  0  3.801986  0  0  0.014638  0  3.82872  0  -1.228446  0  -0.241285  0.039849  0  3.78342  0
N  N115  1  0.14235157  0.55050794  0.46639268  1  0  -0.064423  0  3.580288  0  0  0.028324  0  3.801542  0  0  0.013238  0  3.828255  0  -1.223072  0  -0.243057  0.038471  0  3.782939  0
O  O116  1  0.58481375  0.14078231  0.06732799  1  0  -0.697381  0  2.072422  0  0  -0.615552  0  2.340575  0  0  -0.648077  0  2.327257  0  -1.185204  0  -0.334674  -0.592764  0  2.34879  0
O  O117  1  0.07286135  0.01705073  0.43292927  1  0  -0.695714  0  2.077338  0  0  -0.614261  0  2.345366  0  0  -0.646821  0  2.332121  0  -1.178711  0  -0.334344  -0.591374  0  2.353533  0
O  O118  1  0.41518599  0.85921865  0.93267152  1  0  -0.697359  0  2.072382  0  0  -0.615567  0  2.340549  0  0  -0.648091  0  2.327226  0  -1.185198  0  -0.334678  -0.592778  0  2.348765  0
O  O119  1  0.92713874  0.98294815  0.56707072  1  0  -0.695703  0  2.077346  0  0  -0.614258  0  2.345378  0  0  -0.646818  0  2.332133  0  -1.17868  0  -0.334352  -0.591371  0  2.353544  0
O  O120  1  0.78508537  0.31273285  0.19420577  1  0  -0.627901  0  1.961528  0  0  -0.570495  0  2.184055  0  0  -0.595597  0  2.173935  0  -1.190062  0  -0.315502  -0.552889  0  2.190483  0
O  O121  1  0.11896220  0.09098503  0.30608349  1  0  -0.627279  0  1.966394  0  0  -0.569875  0  2.18854  0  0  -0.594999  0  2.178497  0  -1.204125  0  -0.315525  -0.552253  0  2.194946  0
O  O122  1  0.21491403  0.68726707  0.80579349  1  0  -0.627941  0  1.961505  0  0  -0.570546  0  2.184015  0  0  -0.595644  0  2.173895  0  -1.190069  0  -0.315513  -0.552938  0  2.190443  0
O  O123  1  0.88103719  0.90901489  0.69391578  1  0  -0.627244  0  1.966419  0  0  -0.569831  0  2.188548  0  0  -0.594953  0  2.178509  0  -1.204122  0  -0.315502  -0.552207  0  2.194954  0
O  O124  1  0.75643057  0.80934552  0.20723186  1  0  -0.682397  0  2.025233  0  0  -0.615192  0  2.281704  0  0  -0.644161  0  2.271217  0  -1.20016  0  -0.33698  -0.594789  0  2.28843  0
O  O125  1  0.60223376  0.04840496  0.29181605  1  0  -0.683556  0  2.0296  0  0  -0.61476  0  2.285454  0  0  -0.643997  0  2.27516  0  -1.200293  0  -0.337003  -0.594206  0  2.292107  0
O  O126  1  0.24356917  0.19065543  0.79276766  1  0  -0.682352  0  2.025235  0  0  -0.615141  0  2.281727  0  0  -0.644111  0  2.27124  0  -1.200137  0  -0.336978  -0.594731  0  2.288437  0
O  O127  1  0.39776633  0.95159392  0.70818464  1  0  -0.683585  0  2.029689  0  0  -0.614765  0  2.285525  0  0  -0.644005  0  2.275234  0  -1.199883  0  -0.337004  -0.594211  0  2.292178  0
O  O128  1  0.71101417  0.78458092  0.34594849  1  0  -0.657324  0  1.991734  0  0  -0.592549  0  2.239859  0  0  -0.623082  0  2.231593  0  -1.167262  0  -0.329616  -0.571094  0  2.244787  0
O  O129  1  0.43854164  0.86503730  0.15389892  1  0  -0.655598  0  1.990986  0  0  -0.590987  0  2.239728  0  0  -0.62139  0  2.23128  0  -1.165726  0  -0.32887  -0.569667  0  2.244837  0
O  O130  1  0.28898626  0.21541900  0.65405105  1  0  -0.657228  0  1.991848  0  0  -0.592439  0  2.239973  0  0  -0.622968  0  2.2317  0  -1.167276  0  -0.329566  -0.570984  0  2.2449  0
O  O131  1  0.56145810  0.13496365  0.84610200  1  0  -0.655627  0  1.990993  0  0  -0.590997  0  2.23974  0  0  -0.621405  0  2.231293  0  -1.165728  0  -0.328871  -0.569676  0  2.244848  0
O  O132  1  0.85681560  0.10664448  0.24981030  1  0  -0.904963  0  2.004595  0  0  -0.827408  0  2.235651  0  0  -0.854931  0  2.196605  0  -1.298289  0  -0.593369  -0.807246  0  2.262139  0
O  O133  1  0.14318518  0.89335648  0.75018949  1  0  -0.905015  0  2.004555  0  0  -0.827465  0  2.235625  0  0  -0.854988  0  2.196578  0  -1.298284  0  -0.593391  -0.807302  0  2.262115  0
