# generated using pymatgen
data_CuH13(C4O)5
_symmetry_space_group_name_H-M   'P 1'
_cell_length_a   12.35138614
_cell_length_b   15.90000178
_cell_length_c   30.65317725
_cell_angle_alpha   90.00002164
_cell_angle_beta   90.00015599
_cell_angle_gamma   112.87955305
_symmetry_Int_Tables_number   1
_chemical_formula_structural   CuH13(C4O)5
_chemical_formula_sum   'Cu4 H52 C80 O20'
_cell_volume   5546.26802310
_cell_formula_units_Z   4
loop_
 _symmetry_equiv_pos_site_id
 _symmetry_equiv_pos_as_xyz
  1  'x, y, z'
loop_
 _atom_site_type_symbol
 _atom_site_label
 _atom_site_symmetry_multiplicity
 _atom_site_fract_x
 _atom_site_fract_y
 _atom_site_fract_z
 _atom_site_occupancy
 _atom_site_pbe_bader_charge
 _atom_site_pbe_bader_spin_density
 _atom_site_pbe_cm5_charge
 _atom_site_pbe_ddec_charge
 _atom_site_pbe_ddec_spin_density
 _atom_site_pbe_ddec_sum_bond_order
 _atom_site_pbe_magmom
Cu  Cu0  1  0.56477650  0.45613025  0.00000101  1  1.072995  0.546184  0.669899  0.824814  0.704181  2.31406  0.543
Cu  Cu1  1  0.43524262  0.54386596  0.99999973  1  1.067528  -0.546191  0.669925  0.824754  -0.70419  2.314329  -0.543
Cu  Cu2  1  0.10864695  0.54389861  0.49999950  1  1.068878  0.546344  0.669428  0.824662  0.705632  2.315268  0.543
Cu  Cu3  1  0.89134575  0.45610306  0.50000025  1  1.070871  -0.546379  0.669451  0.82492  -0.705665  2.314627  -0.543
H  H4  1  0.72606471  0.84823915  0.15823139  1  0.070852  0.000203  0.101314  0.101759  0.000109  1.002691  0.0
H  H5  1  0.27393451  0.15176072  0.15823433  1  0.070694  -0.000203  0.101403  0.101911  -0.000109  1.002694  0.0
H  H6  1  0.87801614  0.15187851  0.34165122  1  0.080397  0.000201  0.101229  0.101336  0.000109  1.002593  0.0
H  H7  1  0.12197314  0.84812332  0.34165511  1  0.080442  -0.000201  0.101213  0.101349  -0.000109  1.002517  0.0
H  H8  1  0.27393199  0.15175433  0.84176641  1  0.070607  -0.000203  0.101485  0.102116  -0.000109  1.002569  0.0
H  H9  1  0.72606654  0.84823822  0.84176738  1  0.070875  0.000203  0.101336  0.101767  0.000109  1.002666  0.0
H  H10  1  0.12197391  0.84812111  0.65834561  1  0.08048  -0.000201  0.10122  0.101338  -0.000109  1.002506  0.0
H  H11  1  0.87802198  0.15187835  0.65834954  1  0.080455  0.000201  0.101209  0.101298  0.000109  1.002612  0.0
H  H12  1  0.91152857  0.93812250  0.18381221  1  0.054177  1e-05  0.101499  0.103169  7e-06  1.018072  0.0
H  H13  1  0.08846942  0.06188428  0.18381232  1  0.054287  -1e-05  0.101475  0.103082  -7e-06  1.017871  0.0
H  H14  1  0.97344957  0.06202117  0.31626662  1  0.044709  1e-05  0.101127  0.102548  7e-06  1.018852  0.0
H  H15  1  0.02654918  0.93798535  0.31626716  1  0.04468  -1e-05  0.10111  0.102552  -7e-06  1.018919  0.0
H  H16  1  0.08846861  0.06188327  0.81618788  1  0.054381  -1e-05  0.101478  0.103122  -7e-06  1.017863  0.0
H  H17  1  0.91153147  0.93812080  0.81618842  1  0.054182  1e-05  0.101485  0.10314  7e-06  1.018054  0.0
H  H18  1  0.02655004  0.93798459  0.68373282  1  0.044649  -1e-05  0.1011  0.102562  -7e-06  1.018911  0.0
H  H19  1  0.97345409  0.06202450  0.68373260  1  0.044715  1e-05  0.101065  0.102429  7e-06  1.018896  0.0
H  H20  1  0.87879929  0.64955882  0.17848841  1  0.055649  -0.000203  0.102584  0.102947  -0.000108  0.999549  0.0
H  H21  1  0.12121217  0.35045068  0.17848927  1  0.055392  0.000202  0.102587  0.102942  0.000108  0.999599  0.0
H  H22  1  0.22965380  0.35067380  0.32158770  1  0.063206  -0.000201  0.102538  0.103205  -0.000108  0.999265  0.0
H  H23  1  0.77034435  0.64932661  0.32158281  1  0.063049  0.000201  0.102512  0.103181  0.000108  0.999318  0.0
H  H24  1  0.12121396  0.35044831  0.82151135  1  0.055467  0.000202  0.102572  0.102958  0.000108  0.999553  0.0
H  H25  1  0.87879877  0.64955509  0.82151212  1  0.055661  -0.000203  0.102592  0.102968  -0.000108  0.999473  0.0
H  H26  1  0.77034285  0.64932446  0.67841597  1  0.06306  0.0002  0.102525  0.103172  0.000108  0.999362  0.0
H  H27  1  0.22966084  0.35067575  0.67841075  1  0.063218  -0.000201  0.102568  0.103217  -0.000108  0.999338  0.0
H  H28  1  0.62025381  0.76191428  0.09306548  1  0.101995  -0.000371  0.103172  0.106756  -0.000302  1.000276  0.0
H  H29  1  0.37974157  0.23807719  0.09306497  1  0.101831  0.000371  0.103204  0.106794  0.000302  1.000187  0.0
H  H30  1  0.85832859  0.23810144  0.40680368  1  0.06898  -0.000379  0.102787  0.10567  -0.000302  1.000207  0.0
H  H31  1  0.14165165  0.76189924  0.40680790  1  0.069396  0.000379  0.102742  0.105612  0.000302  1.000321  0.0
H  H32  1  0.37973926  0.23807033  0.90693525  1  0.101934  0.000371  0.103166  0.10671  0.000302  1.000201  0.0
H  H33  1  0.62025214  0.76191356  0.90693348  1  0.101985  -0.000371  0.103158  0.106751  -0.000302  1.000196  0.0
H  H34  1  0.14165592  0.76189681  0.59319380  1  0.06934  0.000379  0.102762  0.105613  0.000302  1.00029  0.0
H  H35  1  0.85833227  0.23810107  0.59319708  1  0.06904  -0.000379  0.102757  0.105621  -0.000302  1.00021  0.0
H  H36  1  0.77299730  0.56425849  0.11295353  1  0.107307  0.000309  0.10936  0.116969  0.000257  0.988236  0.0
H  H37  1  0.22701232  0.43573850  0.11295192  1  0.107137  -0.000308  0.109318  0.11692  -0.000257  0.988371  0.0
H  H38  1  0.20879784  0.43592862  0.38708466  1  0.102898  0.000309  0.109467  0.117112  0.000257  0.987778  0.0
H  H39  1  0.79119084  0.56406654  0.38708010  1  0.102538  -0.000309  0.109404  0.117061  -0.000256  0.987741  0.0
H  H40  1  0.22701904  0.43573704  0.88704883  1  0.107073  -0.000308  0.109329  0.116967  -0.000257  0.988414  0.0
H  H41  1  0.77299466  0.56425771  0.88704784  1  0.107576  0.000309  0.109362  0.116979  0.000257  0.988233  0.0
H  H42  1  0.79119063  0.56406622  0.61291868  1  0.10278  -0.000309  0.109401  0.117073  -0.000256  0.987773  0.0
H  H43  1  0.20880049  0.43593240  0.61291476  1  0.102815  0.000309  0.109443  0.117056  0.000257  0.98782  0.0
H  H44  1  0.84155806  0.68360530  0.24998669  1  0.040814  0.0  0.101842  0.10196  -0.0  1.019009  0.0
H  H45  1  0.15845011  0.31639828  0.24998889  1  0.040748  -0.0  0.101848  0.101946  -0.0  1.019029  0.0
H  H46  1  0.15846098  0.31640047  0.75001111  1  0.040698  -0.0  0.101868  0.101947  -0.0  1.019037  0.0
H  H47  1  0.84155772  0.68360612  0.75001283  1  0.040769  0.0  0.10185  0.101968  -0.0  1.018997  0.0
H  H48  1  0.62263051  0.32122966  0.02522223  1  0.630551  -7.4e-05  0.325801  0.405066  -6.7e-05  0.878806  0.0
H  H49  1  0.37736865  0.67876705  0.02522148  1  0.630593  7.4e-05  0.325827  0.405119  6.7e-05  0.878824  0.0
H  H50  1  0.30173783  0.67881331  0.47478266  1  0.604863  -7.8e-05  0.325208  0.404708  -6.7e-05  0.878742  0.0
H  H51  1  0.69825364  0.32118623  0.47478415  1  0.604779  7.8e-05  0.325209  0.404717  6.8e-05  0.878511  0.0
H  H52  1  0.37736892  0.67876928  0.97477786  1  0.63056  7.4e-05  0.325884  0.405224  6.7e-05  0.878616  0.0
H  H53  1  0.62262916  0.32123189  0.97477828  1  0.630572  -7.4e-05  0.325843  0.405166  -6.7e-05  0.878692  0.0
H  H54  1  0.69826045  0.32118495  0.52521938  1  0.604844  7.8e-05  0.325311  0.404826  6.7e-05  0.878689  0.0
H  H55  1  0.30173527  0.67881271  0.52521691  1  0.604887  -7.8e-05  0.325216  0.404719  -6.7e-05  0.878733  0.0
C  C56  1  0.62290921  0.60375935  0.06091187  1  1.535135  -2.8e-05  0.214062  0.581629  7.8e-05  4.159229  0.0
C  C57  1  0.37709634  0.39622859  0.06091041  1  1.53503  2.8e-05  0.213991  0.581478  -7.6e-05  4.159357  0.0
C  C58  1  0.01903329  0.39625116  0.43907460  1  1.534028  -2.4e-05  0.213738  0.581113  7.8e-05  4.161453  0.0
C  C59  1  0.98094781  0.60374757  0.43907515  1  1.534249  2.7e-05  0.213666  0.580998  -7.6e-05  4.161588  0.0
C  C60  1  0.37710261  0.39622389  0.93908952  1  1.535219  2.6e-05  0.21404  0.581621  -7.9e-05  4.15927  0.0
C  C61  1  0.62290525  0.60376010  0.93908870  1  1.535194  -2.7e-05  0.213965  0.581441  7.9e-05  4.159527  0.0
C  C62  1  0.98094739  0.60374914  0.56092418  1  1.534209  2.7e-05  0.213702  0.580997  -7.7e-05  4.161631  0.0
C  C63  1  0.01903368  0.39625273  0.56092559  1  1.534123  -2.4e-05  0.213743  0.581126  7.9e-05  4.161331  0.0
C  C64  1  0.97467511  0.94951595  0.25004779  1  0.050096  0.0  -0.009619  0.080679  -0.0  4.032283  0.0
C  C65  1  0.02532045  0.05048831  0.25004718  1  -0.075628  -0.0  -0.009646  0.080568  -0.0  4.032268  0.0
C  C66  1  0.02532139  0.05048845  0.74995099  1  0.049695  -0.0  -0.009613  0.080557  0.0  4.032258  0.0
C  C67  1  0.97467928  0.94951609  0.74995192  1  -0.075161  -1e-06  -0.009533  0.080823  -0.0  4.032289  0.0
C  C68  1  0.80954155  0.75482884  0.17310525  1  0.028483  0.000151  -0.003636  0.077811  9.9e-05  3.999179  0.0
C  C69  1  0.19046619  0.24517654  0.17310910  1  0.02816  -0.000152  -0.003666  0.077731  -9.9e-05  3.999078  0.0
C  C70  1  0.05501589  0.24533915  0.32686960  1  0.033287  0.000161  -0.00427  0.076656  0.000105  4.000335  0.0
C  C71  1  0.94498193  0.75466537  0.32687046  1  0.03349  -0.00016  -0.00421  0.076703  -0.000105  4.000177  0.0
C  C72  1  0.19046572  0.24517283  0.82689125  1  0.028182  -0.000152  -0.003653  0.077783  -9.9e-05  3.99894  0.0
C  C73  1  0.80954117  0.75482854  0.82689457  1  0.028454  0.000151  -0.003657  0.077776  9.9e-05  3.99931  0.0
C  C74  1  0.94498061  0.75466525  0.67312951  1  0.033383  -0.00016  -0.004203  0.076637  -0.000104  4.000245  0.0
C  C75  1  0.05502484  0.24534176  0.67312930  1  0.032752  0.00016  -0.004277  0.076558  0.000105  4.000282  0.0
C  C76  1  0.68988773  0.65761154  0.09905804  1  -0.024071  0.000253  -0.017202  -0.027079  0.000182  3.963508  0.0
C  C77  1  0.31011240  0.34238609  0.09905812  1  -0.024072  -0.00025  -0.017261  -0.027192  -0.000181  3.963482  0.0
C  C78  1  0.03225007  0.34250791  0.40090172  1  -7.3e-05  0.00024  -0.017317  -0.028096  0.000187  3.964845  0.0
C  C79  1  0.96773638  0.65749070  0.40090227  1  4.6e-05  -0.000251  -0.017273  -0.027999  -0.000194  3.964595  0.0
C  C80  1  0.31011766  0.34237990  0.90094270  1  -0.024496  -0.00025  -0.017147  -0.027093  -0.00018  3.963263  0.0
C  C81  1  0.68988694  0.65760943  0.90094229  1  -0.024067  0.000252  -0.017221  -0.027021  0.000182  3.963451  0.0
C  C82  1  0.96773593  0.65749171  0.59909673  1  7.9e-05  -0.00025  -0.017277  -0.027975  -0.000194  3.964575  0.0
C  C83  1  0.03225504  0.34251165  0.59909847  1  0.000228  0.00024  -0.017253  -0.027911  0.000186  3.964757  0.0
C  C84  1  0.73750699  0.78640029  0.14813260  1  -0.144814  0.000625  -0.092669  -0.138242  0.000455  3.992518  0.0
C  C85  1  0.26249150  0.21359340  0.14813717  1  -0.144603  -0.000625  -0.092809  -0.138449  -0.000455  3.992652  -0.001
C  C86  1  0.95126194  0.21376026  0.35176897  1  -0.117945  0.000616  -0.092372  -0.137614  0.000455  3.992432  0.001
C  C87  1  0.04872952  0.78624092  0.35177277  1  -0.117526  -0.000616  -0.092381  -0.137662  -0.000456  3.99247  -0.001
C  C88  1  0.26249137  0.21358841  0.85186227  1  -0.146372  -0.000626  -0.092919  -0.13888  -0.000455  3.992624  -0.001
C  C89  1  0.73750844  0.78640008  0.85186682  1  -0.144739  0.000625  -0.092636  -0.138169  0.000455  3.992489  0.001
C  C90  1  0.04873148  0.78623799  0.64822752  1  -0.117927  -0.000616  -0.092432  -0.137647  -0.000456  3.992462  -0.001
C  C91  1  0.95126710  0.21376212  0.64823155  1  -0.117951  0.000616  -0.09234  -0.137569  0.000455  3.992371  0.001
C  C92  1  0.91811727  0.90089155  0.21288782  1  -0.119871  1.4e-05  -0.090427  -0.183622  1.1e-05  3.935379  0.0
C  C93  1  0.08188394  0.09911806  0.21289185  1  -0.119419  -1.4e-05  -0.090417  -0.183527  -1.2e-05  3.935512  0.0
C  C94  1  0.01743241  0.09917814  0.28718852  1  0.095529  1.5e-05  -0.089923  -0.182766  1.3e-05  3.934433  0.0
C  C95  1  0.98256264  0.90082624  0.28718880  1  0.095734  -1.5e-05  -0.08993  -0.182825  -1.3e-05  3.93475  0.0
C  C96  1  0.08188519  0.09911831  0.78710769  1  -0.119501  -1.4e-05  -0.090431  -0.183601  -1.2e-05  3.935519  0.0
C  C97  1  0.91811818  0.90089112  0.78711149  1  -0.119853  1.5e-05  -0.090455  -0.183636  1.2e-05  3.935467  0.0
C  C98  1  0.98256165  0.90082626  0.71281059  1  0.095744  -1.5e-05  -0.089962  -0.182947  -1.3e-05  3.934792  0.0
C  C99  1  0.01743718  0.09918157  0.71281063  1  0.095525  1.5e-05  -0.089883  -0.182673  1.3e-05  3.934286  0.0
C  C100  1  0.82141535  0.67410192  0.16001786  1  -0.116364  -0.000681  -0.091053  -0.137137  -0.000483  3.98771  -0.001
C  C101  1  0.17859121  0.32590614  0.16001910  1  -0.115993  0.00068  -0.090998  -0.136986  0.000483  3.987573  0.001
C  C102  1  0.14764961  0.32605680  0.34002033  1  -0.020855  -0.00066  -0.090747  -0.136568  -0.000483  3.985975  -0.001
C  C103  1  0.85234567  0.67394571  0.34001912  1  -0.020735  0.000659  -0.090797  -0.136657  0.000483  3.98621  0.001
C  C104  1  0.17859337  0.32590589  0.83998157  1  -0.115903  0.00068  -0.09101  -0.137029  0.000483  3.987427  0.001
C  C105  1  0.82141312  0.67410099  0.83998228  1  -0.116344  -0.00068  -0.091096  -0.137209  -0.000483  3.98776  -0.001
C  C106  1  0.85234471  0.67394487  0.65998139  1  -0.020668  0.000659  -0.090821  -0.136644  0.000483  3.986268  0.001
C  C107  1  0.14765568  0.32605869  0.65997868  1  -0.020269  -0.000659  -0.09074  -0.136472  -0.000483  3.98604  -0.001
C  C108  1  0.67771179  0.73813908  0.11181724  1  -0.024257  0.001054  -0.085772  -0.089412  0.000646  3.996458  0.001
C  C109  1  0.32228294  0.26185245  0.11181765  1  -0.023896  -0.001055  -0.085725  -0.089376  -0.000647  3.996103  -0.001
C  C110  1  0.93965605  0.26192721  0.38810615  1  -0.052918  0.001094  -0.08547  -0.087602  0.000654  3.995755  0.001
C  C111  1  0.06033695  0.73807819  0.38810767  1  -0.053881  -0.001094  -0.085318  -0.08743  -0.000653  3.995714  -0.001
C  C112  1  0.32228474  0.26184757  0.88818285  1  -0.022568  -0.001054  -0.085645  -0.089078  -0.000647  3.995895  -0.001
C  C113  1  0.67771401  0.73813830  0.88818211  1  -0.024258  0.001054  -0.085752  -0.089425  0.000646  3.996387  0.001
C  C114  1  0.06033827  0.73807446  0.61189295  1  -0.053357  -0.001094  -0.085387  -0.0875  -0.000653  3.995783  -0.001
C  C115  1  0.93965767  0.26192894  0.61189470  1  -0.052958  0.001095  -0.085475  -0.087612  0.000654  3.99556  0.001
C  C116  1  0.86989887  0.80516382  0.21239387  1  0.042941  3e-06  -0.008793  0.078012  2e-06  4.034688  0.0
C  C117  1  0.13009628  0.19483691  0.21239537  1  0.042952  -3e-06  -0.008784  0.078111  -2e-06  4.034794  0.0
C  C118  1  0.06510819  0.19490713  0.28763125  1  -0.134904  4e-06  -0.008386  0.078452  2e-06  4.035698  0.0
C  C119  1  0.93489462  0.80509657  0.28763179  1  -0.135148  -4e-06  -0.008372  0.078493  -2e-06  4.035745  0.0
C  C120  1  0.13010090  0.19483580  0.78760458  1  0.042973  -3e-06  -0.008742  0.078202  -2e-06  4.034816  0.0
C  C121  1  0.86990080  0.80516544  0.78760766  1  0.043029  3e-06  -0.008764  0.077984  2e-06  4.034808  0.0
C  C122  1  0.93489167  0.80509590  0.71236851  1  -0.135099  -4e-06  -0.008399  0.078543  -2e-06  4.035703  0.0
C  C123  1  0.06511781  0.19491056  0.71236732  1  -0.134997  4e-06  -0.008453  0.078466  2e-06  4.035568  0.0
C  C124  1  0.76313288  0.62641436  0.12330711  1  0.037174  -0.000815  -0.081086  -0.084209  -0.000514  3.976418  -0.001
C  C125  1  0.23686626  0.37358744  0.12330451  1  0.037261  0.000815  -0.081044  -0.084184  0.000514  3.976554  0.001
C  C126  1  0.13682946  0.37372767  0.37670331  1  -0.045008  -0.000826  -0.081156  -0.084535  -0.000505  3.975849  -0.001
C  C127  1  0.86316651  0.62627087  0.37669852  1  -0.044782  0.000827  -0.081139  -0.084499  0.000506  3.975902  0.001
C  C128  1  0.23687555  0.37358799  0.87669558  1  0.037455  0.000815  -0.081125  -0.084311  0.000514  3.976627  0.001
C  C129  1  0.76313223  0.62641286  0.87669296  1  0.036847  -0.000815  -0.08106  -0.084188  -0.000514  3.976435  -0.001
C  C130  1  0.86316477  0.62627059  0.62330134  1  -0.045141  0.000827  -0.081087  -0.084463  0.000506  3.975796  0.001
C  C131  1  0.13683126  0.37373285  0.62329798  1  -0.045261  -0.000827  -0.081157  -0.084574  -0.000505  3.976004  -0.001
C  C132  1  0.87881341  0.75807562  0.25000759  1  0.009019  -1e-06  -0.089388  -0.182489  -1e-06  3.93456  0.0
C  C133  1  0.12119497  0.24193001  0.25001039  1  0.008944  1e-06  -0.089366  -0.182491  1e-06  3.934602  0.0
C  C134  1  0.12120260  0.24193219  0.74998955  1  0.008876  1e-06  -0.089422  -0.182548  1e-06  3.934687  0.0
C  C135  1  0.87881550  0.75807644  0.74999328  1  0.008979  -1e-06  -0.089351  -0.182433  -1e-06  3.934442  0.0
O  O136  1  0.65303569  0.54050365  0.04675054  1  -1.093168  0.087081  -0.313527  -0.51629  0.056801  2.325853  0.079
O  O137  1  0.34697537  0.45948903  0.04674971  1  -1.092938  -0.087084  -0.313491  -0.516212  -0.056802  2.325621  -0.079
O  O138  1  0.11249671  0.45944803  0.45328036  1  -1.098929  0.087245  -0.313735  -0.516229  0.056908  2.32607  0.079
O  O139  1  0.88749637  0.54055826  0.45327884  1  -1.0993  -0.087234  -0.313797  -0.51636  -0.056898  2.326426  -0.079
O  O140  1  0.34698337  0.45948437  0.95325052  1  -1.092922  -0.087072  -0.313532  -0.51628  -0.056794  2.32571  -0.079
O  O141  1  0.65303475  0.54050377  0.95325102  1  -1.09319  0.087079  -0.313509  -0.516275  0.056801  2.32579  0.079
O  O142  1  0.88749676  0.54055841  0.54671972  1  -1.099271  -0.087232  -0.31382  -0.51639  -0.056897  2.32643  -0.079
O  O143  1  0.11249697  0.45944955  0.54671994  1  -1.098965  0.087248  -0.313725  -0.516235  0.05691  2.325928  0.079
O  O144  1  0.53950655  0.62416108  0.04592186  1  -1.108575  -0.088115  -0.324457  -0.548447  -0.057472  2.340784  -0.079
O  O145  1  0.46050084  0.37582751  0.04592212  1  -1.10885  0.088109  -0.324446  -0.548345  0.057469  2.340756  0.079
O  O146  1  0.91521008  0.37587804  0.45404613  1  -1.11029  -0.087971  -0.323927  -0.547884  -0.057388  2.3414  -0.079
O  O147  1  0.08477925  0.62412075  0.45404700  1  -1.110117  0.08798  -0.32381  -0.547722  0.057396  2.341196  0.079
O  O148  1  0.46050655  0.37582148  0.95407561  1  -1.108498  0.088125  -0.324519  -0.548531  0.057478  2.340659  0.079
O  O149  1  0.53950318  0.62416120  0.95407731  1  -1.108712  -0.088115  -0.324384  -0.548285  -0.057472  2.34105  -0.079
O  O150  1  0.08477964  0.62412090  0.54595297  1  -1.110113  0.087984  -0.323807  -0.547692  0.057399  2.341195  0.079
O  O151  1  0.91521195  0.37587956  0.54595536  1  -1.110388  -0.087969  -0.32397  -0.547964  -0.057388  2.341451  -0.079
O  O152  1  0.66211340  0.35755551  0.00000040  1  -1.213605  -0.001725  -0.571284  -0.724601  -0.000937  1.948928  0.0
O  O153  1  0.33789660  0.64243866  0.99999936  1  -1.213583  0.001725  -0.571385  -0.724762  0.000937  1.948893  0.0
O  O154  1  0.30460103  0.64238434  0.49999995  1  -1.161253  -0.001708  -0.569676  -0.723646  -0.000937  1.949451  0.0
O  O155  1  0.69538894  0.35761186  0.50000275  1  -1.161035  0.001708  -0.569781  -0.723786  0.000937  1.949123  0.0
