# generated using pymatgen
data_CdH14C14S2(N2O)2
_symmetry_space_group_name_H-M   'P 1'
_cell_length_a   5.94766110
_cell_length_b   10.81144143
_cell_length_c   13.47963399
_cell_angle_alpha   89.99920990
_cell_angle_beta   101.08986690
_cell_angle_gamma   89.99578804
_symmetry_Int_Tables_number   1
_chemical_formula_structural   CdH14C14S2(N2O)2
_chemical_formula_sum   'Cd2 H28 C28 S4 N8 O4'
_cell_volume   850.59245712
_cell_formula_units_Z   2
loop_
 _symmetry_equiv_pos_site_id
 _symmetry_equiv_pos_as_xyz
  1  'x, y, z'
loop_
 _atom_site_type_symbol
 _atom_site_label
 _atom_site_symmetry_multiplicity
 _atom_site_fract_x
 _atom_site_fract_y
 _atom_site_fract_z
 _atom_site_occupancy
 _atom_site_hle17_bader_spin_density
 _atom_site_hle17_ddec_charge
 _atom_site_hle17_ddec_spin_density
 _atom_site_hle17_ddec_sum_bond_order
 _atom_site_hle17_magmom
 _atom_site_hse06_10hf_bader_spin_density
 _atom_site_hse06_10hf_ddec_charge
 _atom_site_hse06_10hf_ddec_spin_density
 _atom_site_hse06_10hf_ddec_sum_bond_order
 _atom_site_hse06_10hf_magmom
 _atom_site_hse06_bader_spin_density
 _atom_site_hse06_ddec_charge
 _atom_site_hse06_ddec_spin_density
 _atom_site_hse06_ddec_sum_bond_order
 _atom_site_hse06_magmom
 _atom_site_pbe_bader_spin_density
 _atom_site_pbe_cm5_charge
 _atom_site_pbe_ddec_charge
 _atom_site_pbe_ddec_spin_density
 _atom_site_pbe_ddec_sum_bond_order
 _atom_site_pbe_magmom
Cd  Cd0  1  0.49996814  0.00001126  0.49999994  1  0  0.950925  0  1.967613  0  0  0.766841  0  2.434113  0  0  0.811459  0  2.39849  0  0  0.723961  0.735701  0  2.458077  0
Cd  Cd1  1  0.99999565  0.49998360  0.99999529  1  0  0.951012  0  1.967044  0  0  0.76688  0  2.433491  0  0  0.811517  0  2.397855  0  0  0.724031  0.735735  0  2.457451  0
H  H2  1  0.31565278  0.22597473  0.61988748  1  0  0.066399  0  0.95925  0  0  0.073244  0  1.029086  0  0  0.075106  0  1.027252  0  0  0.10695  0.071867  0  1.030385  0
H  H3  1  0.18429486  0.72595056  0.88007478  1  0  0.066439  0  0.958915  0  0  0.073282  0  1.028772  0  0  0.075138  0  1.026935  0  0  0.106953  0.071903  0  1.030068  0
H  H4  1  0.68430971  0.77404303  0.38009561  1  0  0.06638  0  0.959125  0  0  0.073223  0  1.028954  0  0  0.075082  0  1.027118  0  0  0.106916  0.071845  0  1.030249  0
H  H5  1  0.81572423  0.27402002  0.11991667  1  0  0.066557  0  0.958985  0  0  0.073369  0  1.028802  0  0  0.075232  0  1.026966  0  0  0.106951  0.071992  0  1.030097  0
H  H6  1  0.39487698  0.44488917  0.66651787  1  0  0.114319  0  0.99867  0  0  0.120303  0  1.068984  0  0  0.123662  0  1.068363  0  0  0.099022  0.11783  0  1.069618  0
H  H7  1  0.10506740  0.94487690  0.83347302  1  0  0.1143  0  0.99868  0  0  0.120247  0  1.06903  0  0  0.123654  0  1.068363  0  0  0.098967  0.117773  0  1.069664  0
H  H8  1  0.60509068  0.55512674  0.33346787  1  0  0.114255  0  0.998666  0  0  0.120187  0  1.069034  0  0  0.123579  0  1.068377  0  0  0.09895  0.117713  0  1.069664  0
H  H9  1  0.89496377  0.05510016  0.16652537  1  0  0.114415  0  0.998606  0  0  0.120361  0  1.068946  0  0  0.123768  0  1.068268  0  0  0.099013  0.117887  0  1.069577  0
H  H10  1  0.01982603  0.41059395  0.54741894  1  0  0.12483  0  0.959567  0  0  0.133084  0  1.023863  0  0  0.136916  0  1.022193  0  0  0.109033  0.130347  0  1.025271  0
H  H11  1  0.48018131  0.91060310  0.95259923  1  0  0.124731  0  0.959608  0  0  0.132978  0  1.023904  0  0  0.136804  0  1.022267  0  0  0.109035  0.130246  0  1.025295  0
H  H12  1  0.98018147  0.58942104  0.45260049  1  0  0.124798  0  0.959686  0  0  0.133056  0  1.023951  0  0  0.136872  0  1.022304  0  0  0.109097  0.130346  0  1.025335  0
H  H13  1  0.51984311  0.08939523  0.04740676  1  0  0.124796  0  0.959667  0  0  0.133097  0  1.023888  0  0  0.136906  0  1.022272  0  0  0.109103  0.130367  0  1.025279  0
H  H14  1  0.91374986  0.19211818  0.50691474  1  0  0.073927  0  0.983915  0  0  0.083856  0  1.047463  0  0  0.084844  0  1.046949  0  0  0.109377  0.083031  0  1.047993  0
H  H15  1  0.58622650  0.69212979  0.99307007  1  0  0.073973  0  0.983685  0  0  0.083855  0  1.047292  0  0  0.084843  0  1.046777  0  0  0.109378  0.08303  0  1.047822  0
H  H16  1  0.08625226  0.80789218  0.49308718  1  0  0.073985  0  0.983808  0  0  0.083866  0  1.047413  0  0  0.084857  0  1.046897  0  0  0.1094  0.083042  0  1.04794  0
H  H17  1  0.41380119  0.30786207  0.00692506  1  0  0.073814  0  0.983893  0  0  0.083889  0  1.047298  0  0  0.084879  0  1.046784  0  0  0.109405  0.083065  0  1.04783  0
H  H18  1  0.70385919  0.73768566  0.67279040  1  0  0.106366  0  0.949878  0  0  0.120746  0  1.016869  0  0  0.12105  0  1.017281  0  0  0.100684  0.120282  0  1.016945  0
H  H19  1  0.79611241  0.23769817  0.82722885  1  0  0.10635  0  0.949781  0  0  0.120779  0  1.01676  0  0  0.121082  0  1.017174  0  0  0.100584  0.120317  0  1.016839  0
H  H20  1  0.29614119  0.26232932  0.32720916  1  0  0.106259  0  0.949916  0  0  0.120695  0  1.01687  0  0  0.120997  0  1.017281  0  0  0.100677  0.120234  0  1.016945  0
H  H21  1  0.20390693  0.76228815  0.17278043  1  0  0.106489  0  0.94985  0  0  0.120913  0  1.016789  0  0  0.121216  0  1.017203  0  0  0.100639  0.12045  0  1.016863  0
H  H22  1  0.45527118  0.64402786  0.63112289  1  0  0.080736  0  0.961992  0  0  0.095908  0  1.031388  0  0  0.095809  0  1.032239  0  0  0.093548  0.096035  0  1.030582  0
H  H23  1  0.04469776  0.14402381  0.86890559  1  0  0.080588  0  0.961933  0  0  0.095785  0  1.031342  0  0  0.095664  0  1.03222  0  0  0.093559  0.095916  0  1.030534  0
H  H24  1  0.54472233  0.35598990  0.36887537  1  0  0.080775  0  0.961948  0  0  0.095903  0  1.031392  0  0  0.095797  0  1.032251  0  0  0.093502  0.096031  0  1.030587  0
H  H25  1  0.95533347  0.85595695  0.13109725  1  0  0.08062  0  0.961794  0  0  0.095805  0  1.031223  0  0  0.09568  0  1.032102  0  0  0.093522  0.095933  0  1.030414  0
H  H26  1  0.63672003  0.61349429  0.75162314  1  0  0.089285  0  0.955209  0  0  0.105021  0  1.021656  0  0  0.104366  0  1.02316  0  0  0.094839  0.105413  0  1.020641  0
H  H27  1  0.86324543  0.11350545  0.74838215  1  0  0.089487  0  0.954917  0  0  0.105232  0  1.021381  0  0  0.104578  0  1.022883  0  0  0.094887  0.105625  0  1.02037  0
H  H28  1  0.36327689  0.38651514  0.24837391  1  0  0.089278  0  0.955199  0  0  0.104992  0  1.021678  0  0  0.104337  0  1.023182  0  0  0.094777  0.105386  0  1.020662  0
H  H29  1  0.13676707  0.88647531  0.25162806  1  0  0.089408  0  0.954999  0  0  0.10517  0  1.021434  0  0  0.104517  0  1.022931  0  0  0.094893  0.105559  0  1.020423  0
C  C30  1  0.04800103  0.94669488  0.62517558  1  0  0.288845  0  4.0252  0  0  0.269563  0  4.329299  0  0  0.291034  0  4.342621  0  0  0.144418  0.254999  0  4.320108  0
C  C31  1  0.45192396  0.44665074  0.87480404  1  0  0.288584  0  4.025627  0  0  0.269271  0  4.329797  0  0  0.290745  0  4.343137  0  0  0.144315  0.254711  0  4.320596  0
C  C32  1  0.95195803  0.05333213  0.37480722  1  0  0.288749  0  4.025233  0  0  0.269468  0  4.329346  0  0  0.290944  0  4.342674  0  0  0.144422  0.254902  0  4.320156  0
C  C33  1  0.54804049  0.55332077  0.12519628  1  0  0.288659  0  4.02562  0  0  0.269388  0  4.329707  0  0  0.29086  0  4.343043  0  0  0.14435  0.254822  0  4.320507  0
C  C34  1  0.46902910  0.27083526  0.60382523  1  0  0.158556  0  3.731054  0  0  0.128512  0  3.97999  0  0  0.139304  0  3.996443  0  0  0.044108  0.121571  0  3.968491  0
C  C35  1  0.03093779  0.77083014  0.89616455  1  0  0.158543  0  3.730061  0  0  0.128522  0  3.978989  0  0  0.139321  0  3.995441  0  0  0.044057  0.121581  0  3.967483  0
C  C36  1  0.53095752  0.72917325  0.39617023  1  0  0.158678  0  3.730777  0  0  0.128667  0  3.979667  0  0  0.139462  0  3.996118  0  0  0.044188  0.121727  0  3.968161  0
C  C37  1  0.96910374  0.22915062  0.10384136  1  0  0.158401  0  3.730725  0  0  0.128477  0  3.979529  0  0  0.139265  0  3.995994  0  0  0.044114  0.121534  0  3.968022  0
C  C38  1  0.51414395  0.39400429  0.62981663  1  0  -0.254251  0  3.714566  0  0  -0.270515  0  3.961717  0  0  -0.282083  0  3.981435  0  0  -0.107061  -0.262857  0  3.948479  0
C  C39  1  0.98581402  0.89400945  0.87018325  1  0  -0.25415  0  3.714566  0  0  -0.270446  0  3.961587  0  0  -0.282048  0  3.981246  0  0  -0.106885  -0.262792  0  3.948347  0
C  C40  1  0.48584266  0.60600792  0.37017809  1  0  -0.254133  0  3.714636  0  0  -0.270411  0  3.961634  0  0  -0.282006  0  3.981315  0  0  -0.107009  -0.262749  0  3.94839  0
C  C41  1  0.01422588  0.10597408  0.12982773  1  0  -0.254198  0  3.714938  0  0  -0.270597  0  3.96188  0  0  -0.282192  0  3.981534  0  0  -0.106975  -0.262936  0  3.948641  0
C  C42  1  0.71405402  0.44785032  0.60817358  1  0  0.327481  0  3.805729  0  0  0.3154  0  4.060093  0  0  0.332958  0  4.072878  0  0  0.104546  0.303531  0  4.051284  0
C  C43  1  0.78591911  0.94785767  0.89182959  1  0  0.327177  0  3.806515  0  0  0.315276  0  4.060577  0  0  0.332835  0  4.073359  0  0  0.104357  0.303412  0  4.051749  0
C  C44  1  0.28592919  0.55216374  0.39182234  1  0  0.327133  0  3.805759  0  0  0.315293  0  4.059761  0  0  0.332857  0  4.07254  0  0  0.104522  0.303416  0  4.050965  0
C  C45  1  0.21411910  0.05212864  0.10818347  1  0  0.327073  0  3.806714  0  0  0.315382  0  4.060489  0  0  0.332939  0  4.07327  0  0  0.104418  0.303509  0  4.051677  0
C  C46  1  0.86169632  0.37300728  0.56418701  1  0  -0.23867  0  3.718054  0  0  -0.260103  0  3.976051  0  0  -0.270012  0  3.99295  0  0  -0.100675  -0.253893  0  3.965082  0
C  C47  1  0.63829377  0.87301669  0.93580993  1  0  -0.238496  0  3.718154  0  0  -0.259946  0  3.976048  0  0  -0.269861  0  3.992924  0  0  -0.100675  -0.253739  0  3.965075  0
C  C48  1  0.13829381  0.62700770  0.43581467  1  0  -0.238522  0  3.717706  0  0  -0.260021  0  3.975652  0  0  -0.269918  0  3.992558  0  0  -0.10077  -0.253839  0  3.96467  0
C  C49  1  0.36173930  0.12697702  0.06420271  1  0  -0.23854  0  3.717959  0  0  -0.260107  0  3.975826  0  0  -0.270009  0  3.992715  0  0  -0.100715  -0.253898  0  3.96486  0
C  C50  1  0.80218668  0.25125537  0.54156538  1  0  0.132634  0  3.75524  0  0  0.102961  0  4.004087  0  0  0.112297  0  4.02238  0  0  0.034919  0.096873  0  3.991857  0
C  C51  1  0.69780369  0.75125990  0.95842698  1  0  0.132712  0  3.754934  0  0  0.103037  0  4.003848  0  0  0.112375  0  4.022139  0  0  0.035003  0.096944  0  3.991614  0
C  C52  1  0.19780855  0.74875776  0.45843375  1  0  0.132511  0  3.755164  0  0  0.102865  0  4.004102  0  0  0.112197  0  4.022395  0  0  0.034898  0.096776  0  3.991873  0
C  C53  1  0.30223440  0.24873289  0.04157790  1  0  0.132773  0  3.754728  0  0  0.10295  0  4.003672  0  0  0.112287  0  4.021959  0  0  0.034897  0.096856  0  3.991447  0
C  C54  1  0.63221813  0.64468015  0.67374243  1  0  -0.078199  0  3.586852  0  0  -0.173478  0  3.84565  0  0  -0.165972  0  3.849967  0  0  -0.144812  -0.178289  0  3.842481  0
C  C55  1  0.86773015  0.14467020  0.82627575  1  0  -0.078381  0  3.587071  0  0  -0.173832  0  3.846113  0  0  -0.166312  0  3.850458  0  0  -0.144846  -0.178659  0  3.842952  0
C  C56  1  0.36778219  0.35533206  0.32625268  1  0  -0.07819  0  3.586874  0  0  -0.17349  0  3.845745  0  0  -0.165976  0  3.850066  0  0  -0.144789  -0.178312  0  3.842586  0
C  C57  1  0.13229264  0.85531611  0.17373529  1  0  -0.078499  0  3.586952  0  0  -0.173948  0  3.846004  0  0  -0.166428  0  3.85035  0  0  -0.144806  -0.178768  0  3.842839  0
S  S58  1  0.31850057  0.96402129  0.67451325  1  0  -0.325489  0  2.13733  0  0  -0.292825  0  2.455287  0  0  -0.308156  0  2.448727  0  0  -0.133841  -0.28166  0  2.459143  0
S  S59  1  0.18143552  0.46397281  0.82544102  1  0  -0.32534  0  2.137411  0  0  -0.292703  0  2.455463  0  0  -0.308001  0  2.448834  0  0  -0.13376  -0.281534  0  2.459315  0
S  S60  1  0.68145344  0.03603069  0.32547582  1  0  -0.325535  0  2.137506  0  0  -0.292892  0  2.455488  0  0  -0.308221  0  2.448923  0  0  -0.133912  -0.28173  0  2.45934  0
S  S61  1  0.81853063  0.53599131  0.17455869  1  0  -0.325496  0  2.137446  0  0  -0.292858  0  2.455419  0  0  -0.308167  0  2.448811  0  0  -0.133824  -0.28169  0  2.459267  0
N  N62  1  0.85115380  0.93084036  0.59077493  1  0  -0.53602  0  2.855369  0  0  -0.483471  0  3.133861  0  0  -0.50297  0  3.139717  0  0  -0.393503  -0.470368  0  3.13013  0
N  N63  1  0.64877521  0.43082961  0.90922268  1  0  -0.535877  0  2.855493  0  0  -0.483322  0  3.134018  0  0  -0.502826  0  3.139869  0  0  -0.393454  -0.470215  0  3.130283  0
N  N64  1  0.14880710  0.06917555  0.40921694  1  0  -0.535876  0  2.855327  0  0  -0.48334  0  3.133861  0  0  -0.502833  0  3.139691  0  0  -0.393449  -0.470238  0  3.130132  0
N  N65  1  0.35119603  0.56915948  0.09077374  1  0  -0.535931  0  2.855378  0  0  -0.483365  0  3.133831  0  0  -0.502874  0  3.139695  0  0  -0.393491  -0.470257  0  3.13009  0
N  N66  1  0.60707995  0.19974111  0.55966113  1  0  -0.363956  0  3.29458  0  0  -0.286266  0  3.558387  0  0  -0.308517  0  3.578925  0  0  -0.346399  -0.271168  0  3.543832  0
N  N67  1  0.89290499  0.69972222  0.94032722  1  0  -0.364157  0  3.294138  0  0  -0.286467  0  3.557947  0  0  -0.308721  0  3.578479  0  0  -0.346521  -0.271387  0  3.543443  0
N  N68  1  0.39291183  0.80026462  0.44033624  1  0  -0.364017  0  3.294689  0  0  -0.286381  0  3.558531  0  0  -0.308628  0  3.579059  0  0  -0.346466  -0.271292  0  3.543999  0
N  N69  1  0.10712969  0.30026224  0.05967813  1  0  -0.363948  0  3.294442  0  0  -0.286314  0  3.558329  0  0  -0.308573  0  3.578874  0  0  -0.346393  -0.271236  0  3.543828  0
O  O70  1  0.77687504  0.56659707  0.62576094  1  0  -0.242266  0  2.331002  0  0  -0.165331  0  2.564441  0  0  -0.185361  0  2.567367  0  0  -0.177131  -0.151344  0  2.561942  0
O  O71  1  0.72309247  0.06659280  0.87423864  1  0  -0.241908  0  2.331934  0  0  -0.164977  0  2.565318  0  0  -0.184986  0  2.568213  0  0  -0.176901  -0.150985  0  2.562809  0
O  O72  1  0.22311498  0.43341514  0.37423258  1  0  -0.242044  0  2.330984  0  0  -0.165148  0  2.564311  0  0  -0.185179  0  2.567227  0  0  -0.177013  -0.151167  0  2.561827  0
O  O73  1  0.27692510  0.93339074  0.12576678  1  0  -0.241912  0  2.331781  0  0  -0.165046  0  2.565093  0  0  -0.185058  0  2.568002  0  0  -0.177107  -0.151065  0  2.562598  0
