# generated using pymatgen
data_ZnPH9C7NO3
_symmetry_space_group_name_H-M   'P 1'
_cell_length_a   5.22453185
_cell_length_b   8.56631040
_cell_length_c   11.28485831
_cell_angle_alpha   67.36653905
_cell_angle_beta   78.76961070
_cell_angle_gamma   83.73395909
_symmetry_Int_Tables_number   1
_chemical_formula_structural   ZnPH9C7NO3
_chemical_formula_sum   'Zn2 P2 H18 C14 N2 O6'
_cell_volume   456.90473859
_cell_formula_units_Z   2
loop_
 _symmetry_equiv_pos_site_id
 _symmetry_equiv_pos_as_xyz
  1  'x, y, z'
loop_
 _atom_site_type_symbol
 _atom_site_label
 _atom_site_symmetry_multiplicity
 _atom_site_fract_x
 _atom_site_fract_y
 _atom_site_fract_z
 _atom_site_occupancy
 _atom_site_pbe_bader_spin_density
 _atom_site_pbe_cm5_charge
 _atom_site_pbe_ddec_charge
 _atom_site_pbe_ddec_spin_density
 _atom_site_pbe_ddec_sum_bond_order
 _atom_site_pbe_magmom
Zn  Zn0  1  0.23448409  0.09447362  0.60209823  1  0  0.702569  0.937537  0  2.356002  0
Zn  Zn1  1  0.76552439  0.90552956  0.39790137  1  0  0.702612  0.937637  0  2.356138  0
P  P2  1  0.78399153  0.23562631  0.44311202  1  0  0.317933  1.365464  0  5.390845  0
P  P3  1  0.21602484  0.76437568  0.55688633  1  0  0.318001  1.365621  0  5.390576  0
H  H4  1  0.73110120  0.49813943  0.26402460  1  0  0.087974  0.151723  0  1.07031  0
H  H5  1  0.26889927  0.50186616  0.73597682  1  0  0.087996  0.151794  0  1.070263  0
H  H6  1  0.66035323  0.52540174  0.41565266  1  0  0.100165  0.180121  0  1.015436  0
H  H7  1  0.33964750  0.47460002  0.58435066  1  0  0.100202  0.180172  0  1.015381  0
H  H8  1  0.42972549  0.42591330  0.37113551  1  0  0.099983  0.183213  0  1.02783  0
H  H9  1  0.57027950  0.57408345  0.62886789  1  0  0.099965  0.183215  0  1.027857  0
H  H10  1  0.41128394  0.04298572  0.85461052  1  0  0.120298  0.089527  0  0.98931  0
H  H11  1  0.58869777  0.95700828  0.14539830  1  0  0.120247  0.089458  0  0.989269  0
H  H12  1  0.30613405  0.17244303  0.02449140  1  0  0.110196  0.120646  0  0.994211  0
H  H13  1  0.69384788  0.82754861  0.97551450  1  0  0.110208  0.120627  0  0.994222  0
H  H14  1  0.96878607  0.34058230  0.12837063  1  0  0.10308  0.12699  0  0.9869  0
H  H15  1  0.03120255  0.65942586  0.87162937  1  0  0.103086  0.127012  0  0.98686  0
H  H16  1  0.71141554  0.45415448  0.04624867  1  0  0.094717  0.094492  0  0.993529  0
H  H17  1  0.28858192  0.54584009  0.95374799  1  0  0.094723  0.094545  0  0.993502  0
H  H18  1  0.64945135  0.43441573  0.84085726  1  0  0.109137  0.116433  0  1.021479  0
H  H19  1  0.35055908  0.56558906  0.15913465  1  0  0.109095  0.116389  0  1.021495  0
H  H20  1  0.77063515  0.28477073  0.68524559  1  0  0.122663  0.099394  0  1.027189  0
H  H21  1  0.22936609  0.71522500  0.31475309  1  0  0.122669  0.099355  0  1.027191  0
C  C22  1  0.63788630  0.44186032  0.36575270  1  0  -0.264711  -0.68962  0  3.837668  0
C  C23  1  0.36212022  0.55814280  0.63424797  1  0  -0.264752  -0.689798  0  3.837729  0
C  C24  1  0.24069162  0.12765049  0.85772003  1  0  0.05088  0.097251  0  3.970388  0
C  C25  1  0.75931696  0.87234991  0.14228563  1  0  0.050906  0.097399  0  3.970712  0
C  C26  1  0.18308952  0.20173125  0.95032946  1  0  -0.085101  -0.196178  0  3.96005  0
C  C27  1  0.81689869  0.79828171  0.04967460  1  0  -0.085173  -0.196241  0  3.960237  0
C  C28  1  0.97019162  0.31765070  0.94540501  1  0  0.015569  0.16716  0  3.95209  0
C  C29  1  0.02980324  0.68235415  0.05458558  1  0  0.0157  0.167314  0  3.952018  0
C  C30  1  0.92052612  0.41824022  0.03153480  1  0  -0.153031  -0.198084  0  3.900216  0
C  C31  1  0.07946723  0.58175674  0.96846424  1  0  -0.153061  -0.198255  0  3.90031  0
C  C32  1  0.81677421  0.34522633  0.84999278  1  0  -0.080639  -0.186378  0  3.936823  0
C  C33  1  0.18321345  0.65476964  0.15000081  1  0  -0.080617  -0.186467  0  3.937045  0
C  C34  1  0.88377353  0.26454946  0.76183695  1  0  0.056775  0.109225  0  3.918023  0
C  C35  1  0.11624993  0.73543650  0.23815710  1  0  0.056811  0.109457  0  3.918063  0
N  N36  1  0.09581431  0.15958483  0.76390213  1  0  -0.325103  -0.245847  0  3.543641  0
N  N37  1  0.90419310  0.84040417  0.23610669  1  0  -0.325179  -0.246116  0  3.543871  0
O  O38  1  0.60430020  0.14512217  0.57389325  1  0  -0.396173  -0.791644  0  2.302103  0
O  O39  1  0.39571617  0.85487982  0.42610510  1  0  -0.3962  -0.791645  0  2.302046  0
O  O40  1  0.05305322  0.26159977  0.46893463  1  0  -0.390756  -0.760273  0  2.278785  0
O  O41  1  0.94695916  0.73840343  0.53106462  1  0  -0.390819  -0.760387  0  2.278782  0
O  O42  1  0.80573699  0.14554011  0.34609876  1  0  -0.396402  -0.771074  0  2.293814  0
O  O43  1  0.19426777  0.85446056  0.65390095  1  0  -0.396441  -0.771159  0  2.293646  0
