# generated using pymatgen
data_NaH11C6(N4O)2
_symmetry_space_group_name_H-M   'P 1'
_cell_length_a   6.18482348
_cell_length_b   8.98376780
_cell_length_c   21.05811202
_cell_angle_alpha   78.77480656
_cell_angle_beta   81.62657092
_cell_angle_gamma   69.87679006
_symmetry_Int_Tables_number   1
_chemical_formula_structural   NaH11C6(N4O)2
_chemical_formula_sum   'Na4 H44 C24 N32 O8'
_cell_volume   1073.67262139
_cell_formula_units_Z   4
loop_
 _symmetry_equiv_pos_site_id
 _symmetry_equiv_pos_as_xyz
  1  'x, y, z'
loop_
 _atom_site_type_symbol
 _atom_site_label
 _atom_site_symmetry_multiplicity
 _atom_site_fract_x
 _atom_site_fract_y
 _atom_site_fract_z
 _atom_site_occupancy
 _atom_site_hle17_bader_spin_density
 _atom_site_hle17_ddec_charge
 _atom_site_hle17_ddec_spin_density
 _atom_site_hle17_ddec_sum_bond_order
 _atom_site_hle17_magmom
 _atom_site_hse06_10hf_bader_spin_density
 _atom_site_hse06_10hf_ddec_charge
 _atom_site_hse06_10hf_ddec_spin_density
 _atom_site_hse06_10hf_ddec_sum_bond_order
 _atom_site_hse06_10hf_magmom
 _atom_site_hse06_bader_spin_density
 _atom_site_hse06_ddec_charge
 _atom_site_hse06_ddec_spin_density
 _atom_site_hse06_ddec_sum_bond_order
 _atom_site_hse06_magmom
 _atom_site_pbe_bader_charge
 _atom_site_pbe_bader_spin_density
 _atom_site_pbe_cm5_charge
 _atom_site_pbe_ddec_charge
 _atom_site_pbe_ddec_spin_density
 _atom_site_pbe_ddec_sum_bond_order
 _atom_site_pbe_magmom
Na  Na0  1  0.28201151  0.97265053  0.46456232  1  0  0.859242  0  0.430486  0  0  0.785053  0  0.613505  0  0  0.798123  0  0.590781  0  0.877496  0  0.703018  0.775549  0  0.629663  0
Na  Na1  1  0.71980809  0.52693753  0.03549313  1  0  0.85922  0  0.430742  0  0  0.78486  0  0.61382  0  0  0.797858  0  0.591209  0  0.877572  0  0.702508  0.775654  0  0.629687  0
Na  Na2  1  0.71798985  0.02734687  0.53543731  1  0  0.859243  0  0.430497  0  0  0.785083  0  0.613461  0  0  0.798158  0  0.590739  0  0.87749  0  0.70302  0.775566  0  0.629644  0
Na  Na3  1  0.28018954  0.47306347  0.96450667  1  0  0.859219  0  0.430739  0  0  0.784864  0  0.613821  0  0  0.797863  0  0.591208  0  0.877572  0  0.702513  0.775658  0  0.629686  0
H  H4  1  0.07312417  0.20525931  0.55378245  1  0  0.347278  0  0.941909  0  0  0.312667  0  1.035598  0  0  0.323461  0  1.023287  0  0.614825  0  0.292064  0.305252  0  1.043891  0
H  H5  1  0.83110690  0.29495060  0.94621453  1  0  0.347302  0  0.940894  0  0  0.311822  0  1.036371  0  0  0.322648  0  1.024089  0  0.630599  0  0.291594  0.304232  0  1.044856  0
H  H6  1  0.92687875  0.79473808  0.44621724  1  0  0.347256  0  0.941936  0  0  0.312648  0  1.035621  0  0  0.323442  0  1.02331  0  0.614863  0  0.292058  0.305233  0  1.043913  0
H  H7  1  0.16889034  0.70504919  0.05378630  1  0  0.3473  0  0.940877  0  0  0.311832  0  1.03633  0  0  0.322656  0  1.02405  0  0.630526  0  0.291606  0.304242  0  1.044813  0
H  H8  1  0.28727547  0.92175394  0.60543249  1  0  0.351128  0  0.931757  0  0  0.317292  0  1.024719  0  0  0.327789  0  1.012401  0  0.619894  0  0.295449  0.309896  0  1.033356  0
H  H9  1  0.81454989  0.57847377  0.89452605  1  0  0.352159  0  0.931221  0  0  0.317874  0  1.024937  0  0  0.328371  0  1.012672  0  0.626648  0  0.295421  0.3105  0  1.033419  0
H  H10  1  0.71272372  0.07824706  0.39456738  1  0  0.35114  0  0.931733  0  0  0.317299  0  1.024706  0  0  0.327797  0  1.012387  0  0.619896  0  0.295454  0.309903  0  1.033344  0
H  H11  1  0.18544930  0.42152722  0.10547382  1  0  0.352177  0  0.931179  0  0  0.317896  0  1.024888  0  0  0.328392  0  1.012625  0  0.626651  0  0.295433  0.310522  0  1.033371  0
H  H12  1  0.56945406  0.53248323  0.27892541  1  0  0.279362  0  0.963486  0  0  0.243831  0  1.046819  0  0  0.254727  0  1.038765  0  0.563376  0  0.307409  0.236277  0  1.052257  0
H  H13  1  0.38099918  0.96775768  0.22118883  1  0  0.280011  0  0.961988  0  0  0.243886  0  1.046263  0  0  0.254875  0  1.038041  0  0.560214  0  0.307152  0.236248  0  1.051856  0
H  H14  1  0.43055092  0.46751777  0.72107522  1  0  0.279459  0  0.963399  0  0  0.243885  0  1.046809  0  0  0.254805  0  1.0387  0  0.563458  0  0.307433  0.236331  0  1.052248  0
H  H15  1  0.61899541  0.03224211  0.77881138  1  0  0.279988  0  0.962034  0  0  0.243892  0  1.046252  0  0  0.254884  0  1.038028  0  0.56023  0  0.307138  0.236255  0  1.051841  0
H  H16  1  0.18663413  0.62131884  0.33456039  1  0  0.112521  0  0.971339  0  0  0.116565  0  1.041335  0  0  0.120516  0  1.038033  0  0.142775  0  0.112259  0.113992  0  1.043056  0
H  H17  1  0.14315541  0.87857284  0.16545610  1  0  0.11311  0  0.969921  0  0  0.117034  0  1.039786  0  0  0.120984  0  1.036519  0  0.124071  0  0.112263  0.114217  0  1.042125  0
H  H18  1  0.81337379  0.37867615  0.66544211  1  0  0.112471  0  0.971378  0  0  0.116533  0  1.041357  0  0  0.120478  0  1.038071  0  0.142793  0  0.112258  0.113957  0  1.043082  0
H  H19  1  0.85684534  0.12142815  0.83454384  1  0  0.113123  0  0.970007  0  0  0.117048  0  1.039867  0  0  0.120997  0  1.036603  0  0.124068  0  0.112276  0.114235  0  1.042203  0
H  H20  1  0.97271978  0.49762368  0.23886434  1  0  0.119229  0  0.970827  0  0  0.119403  0  1.046296  0  0  0.123997  0  1.042732  0  0.133741  0  0.11111  0.116444  0  1.048417  0
H  H21  1  0.70997178  0.00246622  0.26097381  1  0  0.119204  0  0.970626  0  0  0.119921  0  1.045361  0  0  0.124444  0  1.041863  0  0.148143  0  0.111322  0.116746  0  1.047933  0
H  H22  1  0.02728365  0.50238091  0.76113756  1  0  0.119229  0  0.970768  0  0  0.119418  0  1.046207  0  0  0.124011  0  1.042646  0  0.133657  0  0.11112  0.116457  0  1.048334  0
H  H23  1  0.29002641  0.99753357  0.73902607  1  0  0.119184  0  0.970642  0  0  0.119901  0  1.045371  0  0  0.124423  0  1.041878  0  0.148142  0  0.11132  0.116726  0  1.047944  0
H  H24  1  0.00185419  0.41092666  0.47439189  1  0  0.061175  0  0.979395  0  0  0.077922  0  1.050464  0  0  0.078014  0  1.051335  0  0.045931  0  0.090083  0.077561  0  1.050208  0
H  H25  1  0.88645966  0.08934206  0.02554599  1  0  0.061451  0  0.980737  0  0  0.078362  0  1.051724  0  0  0.078519  0  1.052547  0  0.041564  0  0.090259  0.078142  0  1.051264  0
H  H26  1  0.99814873  0.58907073  0.52560780  1  0  0.061192  0  0.979406  0  0  0.077943  0  1.050475  0  0  0.078035  0  1.051344  0  0.045912  0  0.090092  0.077581  0  1.050219  0
H  H27  1  0.11353588  0.91065773  0.97445327  1  0  0.061457  0  0.980833  0  0  0.078383  0  1.051794  0  0  0.078541  0  1.052617  0  0.041499  0  0.090271  0.078163  0  1.051335  0
H  H28  1  0.72389033  0.39001958  0.50025708  1  0  0.067301  0  0.962406  0  0  0.078466  0  1.040218  0  0  0.079723  0  1.039446  0  0.050881  0  0.089603  0.077471  0  1.040843  0
H  H29  1  0.61320077  0.11014113  0.99972842  1  0  0.068096  0  0.9628  0  0  0.079485  0  1.040224  0  0  0.080694  0  1.039513  0  0.049623  0  0.089987  0.078611  0  1.040737  0
H  H30  1  0.27611046  0.60997902  0.49974247  1  0  0.067373  0  0.962355  0  0  0.078519  0  1.040182  0  0  0.079777  0  1.039408  0  0.050821  0  0.089615  0.077524  0  1.040805  0
H  H31  1  0.38678811  0.88986346  0.00027331  1  0  0.068052  0  0.962848  0  0  0.07944  0  1.040282  0  0  0.080649  0  1.039571  0  0.049393  0  0.089964  0.078571  0  1.040792  0
H  H32  1  0.89011915  0.30753134  0.43059405  1  0  0.074674  0  0.966947  0  0  0.090124  0  1.037577  0  0  0.09064  0  1.037567  0  0.043017  0  0.097898  0.089716  0  1.037595  0
H  H33  1  0.62789837  0.19274218  0.06934757  1  0  0.074766  0  0.967264  0  0  0.09017  0  1.038034  0  0  0.090745  0  1.037964  0  0.044139  0  0.097598  0.089754  0  1.037994  0
H  H34  1  0.10988429  0.69246726  0.56940612  1  0  0.07466  0  0.966951  0  0  0.090103  0  1.037585  0  0  0.090617  0  1.037578  0  0.043019  0  0.097892  0.089667  0  1.037629  0
H  H35  1  0.37210353  0.80726001  0.93065386  1  0  0.074808  0  0.967218  0  0  0.090216  0  1.037979  0  0  0.090791  0  1.037908  0  0.044196  0  0.097626  0.0898  0  1.037939  0
H  H36  1  0.41796051  0.66369106  0.62164782  1  0  0.062901  0  0.981184  0  0  0.074671  0  1.058013  0  0  0.075419  0  1.058125  0  0.049523  0  0.088018  0.073894  0  1.058096  0
H  H37  1  0.70344289  0.83654265  0.87821389  1  0  0.064  0  0.980946  0  0  0.07477  0  1.058475  0  0  0.075541  0  1.058589  0  0.051297  0  0.088313  0.074149  0  1.05845  0
H  H38  1  0.58203716  0.33630753  0.37835158  1  0  0.062877  0  0.98121  0  0  0.074646  0  1.058036  0  0  0.075393  0  1.058151  0  0.049546  0  0.088001  0.073868  0  1.058123  0
H  H39  1  0.29655837  0.16345594  0.12178519  1  0  0.064016  0  0.980942  0  0  0.074785  0  1.058464  0  0  0.075557  0  1.058577  0  0.051318  0  0.088325  0.074164  0  1.058439  0
H  H40  1  0.68120030  0.70689616  0.61859591  1  0  0.059045  0  0.989212  0  0  0.069464  0  1.069227  0  0  0.069734  0  1.070431  0  0.058516  0  0.085344  0.068874  0  1.068972  0
H  H41  1  0.00677922  0.79330275  0.88137080  1  0  0.059536  0  0.989626  0  0  0.069779  0  1.069409  0  0  0.07003  0  1.070666  0  0.055235  0  0.085832  0.069369  0  1.068845  0
H  H42  1  0.31879949  0.29310124  0.38140365  1  0  0.059103  0  0.98916  0  0  0.069484  0  1.069213  0  0  0.069774  0  1.070401  0  0.058511  0  0.085359  0.068893  0  1.068958  0
H  H43  1  0.99322059  0.20669824  0.11863009  1  0  0.059523  0  0.989638  0  0  0.069756  0  1.069422  0  0  0.070006  0  1.070679  0  0.055413  0  0.085816  0.069346  0  1.068858  0
H  H44  1  0.59886063  0.66389508  0.54776585  1  0  0.073695  0  0.959082  0  0  0.091103  0  1.027398  0  0  0.091733  0  1.027105  0  0.07093  0  0.098258  0.090434  0  1.027744  0
H  H45  1  0.81080613  0.83651985  0.95213731  1  0  0.074346  0  0.957388  0  0  0.091214  0  1.026251  0  0  0.091828  0  1.025991  0  0.069008  0  0.097601  0.090603  0  1.026638  0
H  H46  1  0.40113387  0.33610591  0.45223381  1  0  0.073703  0  0.959077  0  0  0.091118  0  1.027369  0  0  0.091745  0  1.027089  0  0.070948  0  0.098279  0.090452  0  1.027706  0
H  H47  1  0.18918577  0.16348234  0.04786267  1  0  0.074375  0  0.957393  0  0  0.09125  0  1.026239  0  0  0.091863  0  1.025981  0  0.06899  0  0.097612  0.090639  0  1.026625  0
C  C48  1  0.82854030  0.64094781  0.34756660  1  0  0.294646  0  3.827553  0  0  0.276292  0  4.092897  0  0  0.284037  0  4.112108  0  0.900176  0  0.207256  0.271302  0  4.079465  0
C  C49  1  0.81775488  0.85902548  0.15239253  1  0  0.293059  0  3.831665  0  0  0.275773  0  4.095661  0  0  0.283406  0  4.115013  0  0.928462  0  0.206895  0.270763  0  4.082222  0
C  C50  1  0.17145946  0.35905198  0.65243334  1  0  0.294663  0  3.82759  0  0  0.276271  0  4.092989  0  0  0.284014  0  4.112201  0  0.900242  0  0.207233  0.271281  0  4.079557  0
C  C51  1  0.18224396  0.14097191  0.84760797  1  0  0.293008  0  3.831712  0  0  0.27578  0  4.095633  0  0  0.283412  0  4.114982  0  0.928583  0  0.206851  0.27077  0  4.082195  0
C  C52  1  0.32740425  0.48096858  0.22404765  1  0  0.34393  0  3.772042  0  0  0.313272  0  4.038303  0  0  0.326963  0  4.053202  0  0.911792  0  0.235488  0.304073  0  4.028776  0
C  C53  1  0.03299400  0.01919933  0.27593656  1  0  0.344191  0  3.772515  0  0  0.312936  0  4.039664  0  0  0.326624  0  4.054619  0  0.934041  0  0.23517  0.30374  0  4.029525  0
C  C54  1  0.67260826  0.51903241  0.77595035  1  0  0.344095  0  3.771975  0  0  0.313264  0  4.038429  0  0  0.326995  0  4.053278  0  0.911359  0  0.235457  0.304059  0  4.02891  0
C  C55  1  0.96700523  0.98079926  0.72406292  1  0  0.344111  0  3.772818  0  0  0.31284  0  4.039968  0  0  0.326531  0  4.054919  0  0.934037  0  0.235093  0.303642  0  4.02983  0
C  C56  1  0.05581353  0.59257865  0.31403533  1  0  -0.103049  0  3.714245  0  0  -0.123953  0  3.969112  0  0  -0.123433  0  3.985209  0  0.023202  0  -0.069899  -0.123907  0  3.957894  0
C  C57  1  0.96318179  0.90745345  0.18592985  1  0  -0.10218  0  3.716137  0  0  -0.123298  0  3.971172  0  0  -0.122829  0  3.987425  0  -0.089277  0  -0.06939  -0.123394  0  3.960378  0
C  C58  1  0.94418993  0.40742355  0.68596617  1  0  -0.102879  0  3.714223  0  0  -0.123809  0  3.969104  0  0  -0.12329  0  3.985199  0  0.023109  0  -0.069814  -0.123761  0  3.957877  0
C  C59  1  0.03681503  0.09254755  0.81407240  1  0  -0.102179  0  3.716094  0  0  -0.123337  0  3.971125  0  0  -0.122866  0  3.987375  0  -0.089061  0  -0.069386  -0.123437  0  3.960325  0
C  C60  1  0.10485324  0.52240472  0.26015126  1  0  -0.15358  0  3.729546  0  0  -0.174495  0  3.991552  0  0  -0.179474  0  4.008335  0  -0.031679  0  -0.085215  -0.171755  0  3.981225  0
C  C61  1  0.88803525  0.97774979  0.23975169  1  0  -0.154933  0  3.730669  0  0  -0.176429  0  3.993732  0  0  -0.181425  0  4.010613  0  0.077303  0  -0.086573  -0.173406  0  3.983261  0
C  C62  1  0.89514549  0.47759988  0.73985042  1  0  -0.153647  0  3.72979  0  0  -0.174495  0  3.991807  0  0  -0.179489  0  4.008582  0  -0.031557  0  -0.085215  -0.17175  0  3.981481  0
C  C63  1  0.11196375  0.02225001  0.76024574  1  0  -0.154915  0  3.730531  0  0  -0.176384  0  3.993576  0  0  -0.18138  0  4.010452  0  0.077046  0  -0.086578  -0.17336  0  3.983107  0
C  C64  1  0.89907369  0.33060342  0.47916927  1  0  -0.032197  0  3.685415  0  0  -0.124568  0  3.95459  0  0  -0.118891  0  3.958961  0  0.385422  0  -0.162806  -0.128171  0  3.951589  0
C  C65  1  0.70808975  0.16960890  0.02077908  1  0  -0.033613  0  3.687546  0  0  -0.125947  0  3.955359  0  0  -0.12031  0  3.959733  0  0.386302  0  -0.163263  -0.129598  0  3.952287  0
C  C66  1  0.10093079  0.66939397  0.52083050  1  0  -0.032261  0  3.685385  0  0  -0.124585  0  3.954484  0  0  -0.118907  0  3.958855  0  0.385484  0  -0.162799  -0.128164  0  3.951496  0
C  C67  1  0.29190268  0.83039450  0.97922138  1  0  -0.033627  0  3.687652  0  0  -0.125972  0  3.955479  0  0  -0.120333  0  3.959851  0  0.386487  0  -0.16329  -0.129629  0  3.952405  0
C  C68  1  0.53495422  0.72194431  0.59119212  1  0  -0.0307  0  3.678951  0  0  -0.121796  0  3.945314  0  0  -0.11618  0  3.94934  0  0.348281  0  -0.162799  -0.125193  0  3.942567  0
C  C69  1  0.84828676  0.77835900  0.90873738  1  0  -0.032064  0  3.677771  0  0  -0.1221  0  3.944909  0  0  -0.116522  0  3.948911  0  0.341244  0  -0.162601  -0.125576  0  3.942112  0
C  C70  1  0.46504549  0.27805428  0.40880688  1  0  -0.03075  0  3.67898  0  0  -0.121806  0  3.945342  0  0  -0.116213  0  3.949352  0  0.348263  0  -0.162827  -0.125201  0  3.942595  0
C  C71  1  0.15171039  0.22164199  0.09126289  1  0  -0.032092  0  3.677792  0  0  -0.122119  0  3.94494  0  0  -0.11654  0  3.948939  0  0.341078  0  -0.162604  -0.125596  0  3.942142  0
N  N72  1  0.52872503  0.48697272  0.23976427  1  0  -0.228398  0  3.367953  0  0  -0.16347  0  3.611393  0  0  -0.179524  0  3.62565  0  -0.819495  0  -0.236904  -0.15282  0  3.601886  0
N  N73  1  0.25596574  0.01314119  0.26032460  1  0  -0.229306  0  3.370012  0  0  -0.163117  0  3.612826  0  0  -0.179299  0  3.62717  0  -0.829583  0  -0.235204  -0.152423  0  3.603055  0
N  N74  1  0.47127578  0.51302947  0.76023662  1  0  -0.228618  0  3.367942  0  0  -0.163612  0  3.611446  0  0  -0.179687  0  3.625675  0  -0.819382  0  -0.236945  -0.152961  0  3.601943  0
N  N75  1  0.74403246  0.98685861  0.73967528  1  0  -0.229305  0  3.370093  0  0  -0.163117  0  3.61289  0  0  -0.179304  0  3.627232  0  -0.829574  0  -0.235172  -0.152423  0  3.603121  0
N  N76  1  0.63856737  0.61489106  0.33370894  1  0  -0.316945  0  3.058557  0  0  -0.272821  0  3.326451  0  0  -0.285918  0  3.342027  0  -0.719652  0  -0.213179  -0.2637  0  3.315498  0
N  N77  1  0.58797208  0.88509783  0.16622968  1  0  -0.316199  0  3.056455  0  0  -0.271953  0  3.324107  0  0  -0.284972  0  3.33964  0  -0.726871  0  -0.213299  -0.262895  0  3.313042  0
N  N78  1  0.36143443  0.38510873  0.66629060  1  0  -0.317064  0  3.058451  0  0  -0.272914  0  3.326375  0  0  -0.286023  0  3.341939  0  -0.719688  0  -0.213222  -0.263794  0  3.315424  0
N  N79  1  0.41202676  0.11489956  0.83377082  1  0  -0.316157  0  3.056422  0  0  -0.271947  0  3.324053  0  0  -0.284967  0  3.339585  0  -0.726874  0  -0.21328  -0.26289  0  3.312989  0
N  N80  1  0.37038290  0.42976476  0.16616320  1  0  -0.295978  0  2.957845  0  0  -0.258398  0  3.232167  0  0  -0.270872  0  3.243606  0  -0.677101  0  -0.193362  -0.250024  0  3.224568  0
N  N81  1  0.96700753  0.07035035  0.33381353  1  0  -0.296229  0  2.957689  0  0  -0.258748  0  3.232223  0  0  -0.271157  0  3.243596  0  -0.668797  0  -0.193065  -0.250295  0  3.224109  0
N  N82  1  0.62961687  0.57023863  0.83383808  1  0  -0.296045  0  2.957749  0  0  -0.258403  0  3.232106  0  0  -0.27089  0  3.243533  0  -0.676861  0  -0.193377  -0.250028  0  3.224508  0
N  N83  1  0.03298966  0.92964825  0.66618635  1  0  -0.296213  0  2.957785  0  0  -0.258743  0  3.232337  0  0  -0.27115  0  3.243706  0  -0.668773  0  -0.193042  -0.250289  0  3.224222  0
N  N84  1  0.77445744  0.72257077  0.39837810  1  0  -0.298343  0  3.015912  0  0  -0.254088  0  3.280819  0  0  -0.266391  0  3.296109  0  -0.684308  0  -0.200767  -0.245499  0  3.270161  0
N  N85  1  0.89584762  0.77746852  0.10157685  1  0  -0.29773  0  3.014407  0  0  -0.253269  0  3.278921  0  0  -0.265498  0  3.294234  0  -0.704682  0  -0.200243  -0.244837  0  3.268321  0
N  N86  1  0.22554228  0.27743142  0.60162224  1  0  -0.298344  0  3.01593  0  0  -0.254072  0  3.280844  0  0  -0.266373  0  3.296131  0  -0.684286  0  -0.200756  -0.245484  0  3.270185  0
N  N87  1  0.10415331  0.22253007  0.89842420  1  0  -0.297717  0  3.014332  0  0  -0.253255  0  3.278825  0  0  -0.265485  0  3.294135  0  -0.70479  0  -0.20021  -0.244824  0  3.268225  0
N  N88  1  0.54886823  0.74593328  0.41525431  1  0  -0.171019  0  3.064779  0  0  -0.152506  0  3.373902  0  0  -0.154969  0  3.386275  0  -0.17817  0  -0.172847  -0.150654  0  3.365384  0
N  N89  1  0.71044392  0.75405921  0.08466598  1  0  -0.170852  0  3.061879  0  0  -0.152297  0  3.37096  0  0  -0.15481  0  3.38339  0  -0.177978  0  -0.173154  -0.150425  0  3.362676  0
N  N90  1  0.45113427  0.25406531  0.58474680  1  0  -0.171049  0  3.064832  0  0  -0.152563  0  3.373979  0  0  -0.155025  0  3.386351  0  -0.178141  0  -0.172884  -0.150708  0  3.365459  0
N  N91  1  0.28955528  0.24594178  0.91533389  1  0  -0.170842  0  3.06188  0  0  -0.152289  0  3.370968  0  0  -0.154799  0  3.383397  0  -0.177986  0  -0.173138  -0.150416  0  3.362683  0
N  N92  1  0.46718993  0.68133985  0.37662343  1  0  -0.089366  0  2.991164  0  0  -0.080654  0  3.289234  0  0  -0.081409  0  3.302615  0  -0.141835  0  -0.101232  -0.079879  0  3.279647  0
N  N93  1  0.52578493  0.81862023  0.12328015  1  0  -0.091205  0  2.990407  0  0  -0.082818  0  3.288923  0  0  -0.083594  0  3.302356  0  -0.149961  0  -0.101444  -0.08186  0  3.279612  0
N  N94  1  0.53281361  0.31865754  0.62337729  1  0  -0.089301  0  2.991098  0  0  -0.080562  0  3.289123  0  0  -0.081316  0  3.302508  0  -0.141886  0  -0.101171  -0.079787  0  3.279535  0
N  N95  1  0.47421426  0.18138076  0.87671973  1  0  -0.091173  0  2.990358  0  0  -0.082787  0  3.288887  0  0  -0.083565  0  3.30232  0  -0.149934  0  -0.101434  -0.081831  0  3.279577  0
N  N96  1  0.59689658  0.40658707  0.14804686  1  0  -0.125053  0  3.025077  0  0  -0.109964  0  3.335488  0  0  -0.109993  0  3.34497  0  -0.136495  0  -0.131923  -0.110056  0  3.330014  0
N  N97  1  0.15224794  0.09350403  0.35203537  1  0  -0.124581  0  3.028833  0  0  -0.109545  0  3.339646  0  0  -0.109609  0  3.349155  0  -0.144525  0  -0.132612  -0.109427  0  3.333646  0
N  N98  1  0.40310205  0.59341512  0.85195294  1  0  -0.125015  0  3.02521  0  0  -0.109932  0  3.335614  0  0  -0.109962  0  3.3451  0  -0.136524  0  -0.131932  -0.110023  0  3.330138  0
N  N99  1  0.84774868  0.90649576  0.64796443  1  0  -0.124526  0  3.028805  0  0  -0.10949  0  3.339617  0  0  -0.109557  0  3.349124  0  -0.144558  0  -0.132602  -0.109369  0  3.333614  0
N  N100  1  0.69409912  0.44030771  0.19206822  1  0  -0.046198  0  2.912572  0  0  -0.048833  0  3.201525  0  0  -0.046445  0  3.212215  0  -0.085029  0  -0.075525  -0.050464  0  3.194989  0
N  N101  1  0.32707395  0.05978939  0.30809190  1  0  -0.046079  0  2.914603  0  0  -0.049321  0  3.203695  0  0  -0.046904  0  3.214396  0  -0.081208  0  -0.076477  -0.050766  0  3.196934  0
N  N102  1  0.30590467  0.55969448  0.80793131  1  0  -0.046227  0  2.912858  0  0  -0.048862  0  3.201786  0  0  -0.046475  0  3.212485  0  -0.084974  0  -0.075529  -0.050492  0  3.19525  0
N  N103  1  0.67292367  0.94021160  0.69190790  1  0  -0.04611  0  2.914654  0  0  -0.049367  0  3.203766  0  0  -0.046947  0  3.214467  0  -0.081254  0  -0.07651  -0.050812  0  3.197004  0
O  O104  1  0.00652055  0.17956980  0.51823403  1  0  -0.609414  0  2.12944  0  0  -0.541368  0  2.380179  0  0  -0.556884  0  2.365827  0  -1.182401  0  -0.503597  -0.530496  0  2.389876  0
O  O105  1  0.70331330  0.32062812  0.98167897  1  0  -0.609039  0  2.129223  0  0  -0.540528  0  2.38064  0  0  -0.556037  0  2.366138  0  -1.193944  0  -0.503059  -0.529474  0  2.39031  0
O  O106  1  0.99348384  0.82042880  0.48176519  1  0  -0.609427  0  2.129426  0  0  -0.541379  0  2.380152  0  0  -0.556897  0  2.3658  0  -1.182444  0  -0.503624  -0.530504  0  2.389837  0
O  O107  1  0.29668281  0.67937407  0.01832171  1  0  -0.609027  0  2.129198  0  0  -0.540522  0  2.380625  0  0  -0.55603  0  2.366125  0  -1.193873  0  -0.503054  -0.529469  0  2.390297  0
O  O108  1  0.41444083  0.88926821  0.57087320  1  0  -0.605141  0  2.127648  0  0  -0.53806  0  2.377927  0  0  -0.553269  0  2.363548  0  -1.182564  0  -0.502068  -0.527359  0  2.387622  0
O  O109  1  0.87483825  0.61102671  0.92910911  1  0  -0.607161  0  2.125723  0  0  -0.53968  0  2.375846  0  0  -0.554838  0  2.361302  0  -1.179642  0  -0.502654  -0.529116  0  2.385737  0
O  O110  1  0.58555736  0.11073159  0.42912667  1  0  -0.605145  0  2.127676  0  0  -0.538067  0  2.377935  0  0  -0.553277  0  2.363563  0  -1.182589  0  -0.502065  -0.527366  0  2.38763  0
O  O111  1  0.12516151  0.38897308  0.07089084  1  0  -0.607174  0  2.125709  0  0  -0.539695  0  2.375829  0  0  -0.554851  0  2.361284  0  -1.179634  0  -0.502666  -0.529131  0  2.385721  0
