# generated using pymatgen
data_Zn4H21C40ClO14
_symmetry_space_group_name_H-M   'P 1'
_cell_length_a   15.09231289
_cell_length_b   15.22769942
_cell_length_c   19.50441547
_cell_angle_alpha   91.67760280
_cell_angle_beta   89.80467439
_cell_angle_gamma   91.75417194
_symmetry_Int_Tables_number   1
_chemical_formula_structural   Zn4H21C40ClO14
_chemical_formula_sum   'Zn4 H21 C40 Cl1 O14'
_cell_volume   4478.49301590
_cell_formula_units_Z   1
loop_
 _symmetry_equiv_pos_site_id
 _symmetry_equiv_pos_as_xyz
  1  'x, y, z'
loop_
 _atom_site_type_symbol
 _atom_site_label
 _atom_site_symmetry_multiplicity
 _atom_site_fract_x
 _atom_site_fract_y
 _atom_site_fract_z
 _atom_site_occupancy
 _atom_site_pbe_bader_charge
 _atom_site_pbe_bader_spin_density
 _atom_site_pbe_cm5_charge
 _atom_site_pbe_ddec_charge
 _atom_site_pbe_ddec_spin_density
 _atom_site_pbe_ddec_sum_bond_order
 _atom_site_pbe_magmom
Zn  Zn0  1  0.56536188  0.57510177  0.56222343  1  1.313054  0  0.671615  0.961351  0  2.379534  0
Zn  Zn1  1  0.57878744  0.42898613  0.44158257  1  1.315673  0  0.675873  0.973047  0  2.350372  0
Zn  Zn2  1  0.42462031  0.57392831  0.44230578  1  1.314863  0  0.672433  0.970696  0  2.351259  0
Zn  Zn3  1  0.42236566  0.41829864  0.55044807  1  1.317497  0  0.675204  0.972347  0  2.379145  0
H  H4  1  0.59414220  0.58383423  0.77207050  1  0.090799  0  0.108319  0.113879  0  0.993576  0
H  H5  1  0.38737343  0.56270168  0.23042739  1  0.120239  0  0.108399  0.114182  0  0.992822  0
H  H6  1  0.99808701  0.69079146  0.50293333  1  0.091095  0  0.111055  0.134432  0  0.981595  0
H  H7  1  0.16128074  0.33899855  0.49079303  1  0.073776  0  0.105552  0.113399  0  0.997392  0
H  H8  1  0.14654214  0.62050023  0.48925350  1  0.126566  0  0.108164  0.116101  0  0.993771  0
H  H9  1  0.64868846  0.45941293  0.23489269  1  0.110202  0  0.108496  0.113592  0  0.99192  0
H  H10  1  0.59803541  0.51788294  0.99970481  1  0.053486  0  0.102758  0.100568  0  0.998225  0
H  H11  1  0.35591940  0.41069586  0.88800183  1  0.038255  0  0.103648  0.104279  0  0.992103  0
H  H12  1  0.39376776  0.56573717  0.10283491  1  0.062815  0  0.10259  0.102514  0  0.999742  0
H  H13  1  0.36957781  0.40406461  0.76049150  1  0.108092  0  0.109211  0.115033  0  0.9911  0
H  H14  1  0.39587444  0.48616444  0.99861474  1  0.07828  0  0.103096  0.101796  0  0.997545  0
H  H15  1  0.65765320  0.46530139  0.10726650  1  0.055873  0  0.103345  0.103419  0  0.992055  0
H  H16  1  0.58148272  0.59114457  0.89935068  1  0.05598  0  0.102552  0.101716  0  1.001375  0
H  H17  1  0.76610457  0.67196493  0.52541811  1  0.635633  0  0.307379  0.357033  0  0.95807  0
H  H18  1  0.51303493  0.16315303  0.37503753  1  0.091351  0  0.110585  0.117288  0  0.985333  0
H  H19  1  0.50285645  0.99341738  0.64592085  1  0.097783  0  0.096545  0.100221  0  1.030548  0
H  H20  1  0.49996252  0.00006656  0.36032602  1  0.074036  0  0.107639  0.110363  0  0.988257  0
H  H21  1  0.49626916  0.83087934  0.63062118  1  0.090295  0  0.108766  0.1162  0  0.988378  0
H  H22  1  0.48469309  0.85349598  0.41184617  1  0.102294  0  0.110514  0.117101  0  0.991421  0
H  H23  1  0.84912456  0.39401056  0.49047399  1  0.117331  0  0.11046  0.117255  0  0.990799  0
H  H24  1  0.99604138  0.32379576  0.48933594  1  0.093371  0  0.105427  0.106072  0  0.989489  0
C  C25  1  0.50777231  0.26117056  0.48873653  1  1.56029  0  0.228667  0.623572  0  4.15737  0
C  C26  1  0.46191176  0.50049515  0.97760736  1  -0.018697  0  -0.087222  -0.131895  0  3.993244  0
C  C27  1  0.53107027  0.51247825  0.02115656  1  -0.067845  0  -0.087013  -0.129871  0  3.994649  0
C  C28  1  0.48815005  0.73530453  0.51246361  1  1.561724  0  0.227485  0.606113  0  4.159878  0
C  C29  1  0.51709328  0.50966331  0.24014042  1  -0.000213  0  -0.022059  -0.049312  0  3.984985  0
C  C30  1  0.50820115  0.16282223  0.48538780  1  0.01747  0  -0.01851  -0.088736  0  3.955932  0
C  C31  1  0.48974934  0.83306769  0.51994156  1  -0.044142  0  -0.016799  -0.031675  0  3.995483  0
C  C32  1  0.49983562  0.96297906  0.59477204  1  -0.014281  0  -0.092088  -0.121775  0  4.00075  0
C  C33  1  0.49562804  0.87296601  0.58646947  1  -0.07305  0  -0.082559  -0.088685  0  3.981117  0
C  C34  1  0.48921055  0.88475425  0.46282337  1  0.006013  0  -0.072382  -0.13084  0  3.916025  0
C  C35  1  0.49666590  0.97753342  0.46956130  1  0.047817  0  -0.00088  0.089642  0  4.003649  0
C  C36  1  0.46918490  0.49955971  0.90295711  1  -0.047961  0  -0.005574  0.121398  0  4.036301  0
C  C37  1  0.50096079  0.01781243  0.53713153  1  -0.031668  0  -0.005513  0.022668  0  3.966749  0
C  C38  1  0.50590675  0.11146573  0.54322675  1  0.074531  0  0.025941  0.090178  0  3.970753  0
C  C39  1  0.50824199  0.12115446  0.41925542  1  -0.039664  0  -0.08549  -0.090262  0  4.007949  0
C  C40  1  0.73455655  0.52101506  0.50376954  1  1.541477  0  0.227904  0.619006  0  4.140801  0
C  C41  1  0.50139612  0.03129247  0.41135926  1  -0.002444  0  -0.088033  -0.135938  0  4.007429  0
C  C42  1  0.83221179  0.53230759  0.50152322  1  -0.026872  0  -0.033576  -0.176888  0  3.995711  0
C  C43  1  0.16224869  0.48127129  0.48940938  1  -0.000915  0  -0.017304  -0.027867  0  3.997349  0
C  C44  1  0.02919268  0.38850393  0.48998925  1  -0.043177  0  -0.087167  -0.12269  0  4.007889  0
C  C45  1  0.12009738  0.39642319  0.49028979  1  -0.032414  0  -0.094811  -0.117169  0  4.013947  0
C  C46  1  0.11273885  0.55623465  0.48994047  1  -0.079966  0  -0.078994  -0.143004  0  3.917091  0
C  C47  1  0.40841202  0.44856258  0.86262409  1  0.031834  0  -0.088586  -0.137846  0  3.971485  0
C  C48  1  0.01879392  0.55023078  0.49376734  1  0.047091  0  -0.000314  0.105725  0  4.02339  0
C  C49  1  0.97633458  0.46425911  0.49218158  1  0.038679  0  -0.012828  0.054971  0  4.022552  0
C  C50  1  0.88312671  0.45820525  0.49394215  1  -0.059716  0  -0.072768  -0.105596  0  3.952683  0
C  C51  1  0.87512796  0.61778560  0.50712393  1  0.461142  0  0.087381  0.309539  0  4.082575  0
C  C52  1  0.26098361  0.48850550  0.49081424  1  1.484521  0  0.228495  0.609371  0  4.153585  0
C  C53  1  0.96656507  0.62539832  0.50074302  1  0.01095  0  -0.107025  -0.27087  0  3.943482  0
C  C54  1  0.51195234  0.50658762  0.31629973  1  1.506582  0  0.226717  0.607564  0  4.160926  0
C  C55  1  0.49022232  0.49060865  0.68248824  1  1.53985  0  0.226741  0.605087  0  4.159986  0
C  C56  1  0.48334318  0.49268998  0.75865752  1  -0.017592  0  -0.02219  -0.048798  0  3.982734  0
C  C57  1  0.54318773  0.54513530  0.79820419  1  -0.056473  0  -0.080969  -0.083996  0  3.986581  0
C  C58  1  0.41579597  0.44440082  0.79157536  1  -0.086323  0  -0.080298  -0.082243  0  3.984028  0
C  C59  1  0.53618794  0.54845293  0.86918613  1  -0.014753  0  -0.089294  -0.13389  0  3.968503  0
C  C60  1  0.44924662  0.54109451  0.13152978  1  -0.054852  0  -0.088842  -0.134157  0  3.967554  0
C  C61  1  0.44546418  0.53999989  0.20264089  1  -0.01523  0  -0.081203  -0.084959  0  3.986706  0
C  C62  1  0.59345385  0.48256860  0.20527224  1  -0.059749  0  -0.08151  -0.083219  0  3.986863  0
C  C63  1  0.59793521  0.48588273  0.13424413  1  -0.0095  0  -0.088768  -0.136457  0  3.971461  0
C  C64  1  0.52535042  0.51336233  0.09583268  1  -0.035558  0  -0.006362  0.11972  0  4.03882  0
Cl  Cl65  1  0.51346497  0.15938447  0.62457858  1  -0.192556  0  -0.002564  -0.068794  0  1.518131  0
O  O66  1  0.49800059  0.49890040  0.49787409  1  -1.230031  0  -0.575879  -1.03502  0  2.550594  0
O  O67  1  0.57398963  0.46730060  0.34662557  1  -1.174061  0  -0.32047  -0.556152  0  2.324208  0
O  O68  1  0.43105391  0.44527516  0.64913747  1  -1.168506  0  -0.315332  -0.548423  0  2.331514  0
O  O69  1  0.44578005  0.54298369  0.34525560  1  -1.17862  0  -0.317397  -0.551384  0  2.330694  0
O  O70  1  0.55478896  0.53480807  0.65616186  1  -1.169144  0  -0.320592  -0.553368  0  2.330329  0
O  O71  1  0.82854088  0.69165501  0.51703164  1  -1.148953  0  -0.362929  -0.44921  0  2.241696  0
O  O72  1  0.69031346  0.58604377  0.52945123  1  -1.182556  0  -0.311428  -0.56034  0  2.329588  0
O  O73  1  0.30029528  0.42452462  0.51731796  1  -1.169368  0  -0.317141  -0.547962  0  2.326918  0
O  O74  1  0.55705343  0.30105966  0.44539095  1  -1.152484  0  -0.313336  -0.542271  0  2.297958  0
O  O75  1  0.45687671  0.69996303  0.45711125  1  -1.169135  0  -0.315071  -0.545954  0  2.303414  0
O  O76  1  0.45633587  0.29627669  0.53254887  1  -1.173763  0  -0.311941  -0.547674  0  2.388119  0
O  O77  1  0.51951523  0.69443293  0.56293432  1  -1.175013  0  -0.318941  -0.552971  0  2.328179  0
O  O78  1  0.69932997  0.44920530  0.48083450  1  -1.176045  0  -0.311419  -0.538701  0  2.314232  0
O  O79  1  0.29845954  0.55721825  0.46616185  1  -1.16532  0  -0.317586  -0.551575  0  2.310209  0
