# generated using pymatgen
data_ZnHC4N11
_symmetry_space_group_name_H-M   'P 1'
_cell_length_a   14.68076960
_cell_length_b   14.68077574
_cell_length_c   14.68078447
_cell_angle_alpha   109.52230976
_cell_angle_beta   109.52224818
_cell_angle_gamma   109.52216457
_symmetry_Int_Tables_number   1
_chemical_formula_structural   ZnHC4N11
_chemical_formula_sum   'Zn6 H6 C24 N66'
_cell_volume   2431.09600021
_cell_formula_units_Z   6
loop_
 _symmetry_equiv_pos_site_id
 _symmetry_equiv_pos_as_xyz
  1  'x, y, z'
loop_
 _atom_site_type_symbol
 _atom_site_label
 _atom_site_symmetry_multiplicity
 _atom_site_fract_x
 _atom_site_fract_y
 _atom_site_fract_z
 _atom_site_occupancy
 _atom_site_pbe_bader_charge
 _atom_site_pbe_bader_spin_density
 _atom_site_pbe_cm5_charge
 _atom_site_pbe_ddec_charge
 _atom_site_pbe_ddec_spin_density
 _atom_site_pbe_ddec_sum_bond_order
 _atom_site_pbe_magmom
Zn  Zn0  1  0.20027567  0.44729911  0.69294594  1  1.23696  0  0.760119  0.667849  0  2.486591  0
Zn  Zn1  1  0.69294535  0.20027536  0.44729854  1  1.236958  0  0.760117  0.66784  0  2.486581  0
Zn  Zn2  1  0.44729806  0.69294509  0.20027490  1  1.236888  0  0.760122  0.66781  0  2.486643  0
Zn  Zn3  1  0.79972488  0.55270168  0.30705460  1  1.236903  0  0.760135  0.667859  0  2.486578  0
Zn  Zn4  1  0.30705519  0.79972472  0.55270244  1  1.236897  0  0.760124  0.667847  0  2.48659  0
Zn  Zn5  1  0.55270165  0.30705457  0.79972430  1  1.236951  0  0.760136  0.667875  0  2.486595  0
H  H6  1  0.70710105  0.70594908  0.06776802  1  0.524014  0  0.388247  0.296609  0  0.843562  0
H  H7  1  0.06776783  0.70710262  0.70595016  1  0.524012  0  0.388237  0.29661  0  0.843525  0
H  H8  1  0.70594947  0.06776811  0.70710190  1  0.52402  0  0.388271  0.29664  0  0.843485  0
H  H9  1  0.29289783  0.29405016  0.93223349  1  0.524017  0  0.388247  0.29661  0  0.843515  0
H  H10  1  0.93223271  0.29289891  0.29405062  1  0.524007  0  0.388238  0.2966  0  0.843565  0
H  H11  1  0.29405024  0.93223227  0.29289890  1  0.524015  0  0.388249  0.296606  0  0.843535  0
C  C12  1  0.45084038  0.58338239  0.95049119  1  0.562171  0  0.114757  0.028157  0  4.045307  0
C  C13  1  0.47253015  0.51636185  0.87449895  1  0.511163  0  0.111254  0.028196  0  4.031818  0
C  C14  1  0.34778838  0.57074781  0.94807746  1  1.007965  0  0.228374  0.253803  0  4.05925  0
C  C15  1  0.39965941  0.41145254  0.76937639  1  1.027029  0  0.226356  0.253836  0  4.046359  0
C  C16  1  0.95049200  0.45084171  0.58338435  1  0.562177  0  0.114789  0.028178  0  4.045329  0
C  C17  1  0.87449929  0.47253136  0.51636354  1  0.511175  0  0.111249  0.028189  0  4.031762  0
C  C18  1  0.94807822  0.34778974  0.57074951  1  1.008007  0  0.228346  0.253833  0  4.059231  0
C  C19  1  0.76937663  0.39966016  0.41145317  1  1.027033  0  0.226348  0.253817  0  4.046329  0
C  C20  1  0.58338355  0.95049168  0.45084058  1  0.562176  0  0.114738  0.028109  0  4.045315  0
C  C21  1  0.51636362  0.87449992  0.47253212  1  0.511174  0  0.111307  0.028339  0  4.031763  0
C  C22  1  0.57074853  0.94807804  0.34778926  1  1.007994  0  0.228351  0.253797  0  4.059271  0
C  C23  1  0.41145461  0.76937739  0.39965997  1  1.027014  0  0.226376  0.253816  0  4.046317  0
C  C24  1  0.54915933  0.41661726  0.04950870  1  0.562146  0  0.114792  0.028178  0  4.045329  0
C  C25  1  0.52746872  0.48363811  0.12550008  1  0.511162  0  0.11123  0.028145  0  4.031816  0
C  C26  1  0.65221049  0.42925143  0.05192201  1  1.007976  0  0.228341  0.253864  0  4.059208  0
C  C27  1  0.60034029  0.58854711  0.23062213  1  1.027025  0  0.226412  0.253909  0  4.046315  0
C  C28  1  0.04951021  0.54915992  0.41661566  1  0.562172  0  0.114709  0.028054  0  4.045317  0
C  C29  1  0.12550209  0.52746913  0.48363650  1  0.510924  0  0.111259  0.028228  0  4.031775  0
C  C30  1  0.05192316  0.65221075  0.42925052  1  1.00799  0  0.228395  0.253932  0  4.059132  0
C  C31  1  0.23062391  0.60034063  0.58854669  1  1.027361  0  0.226339  0.253811  0  4.046364  0
C  C32  1  0.41661699  0.04950839  0.54915904  1  0.562162  0  0.114753  0.028118  0  4.045362  0
C  C33  1  0.48363609  0.12549974  0.52746776  1  0.511183  0  0.111274  0.02826  0  4.031888  0
C  C34  1  0.42925201  0.05192203  0.65221104  1  1.008051  0  0.228347  0.253802  0  4.059234  0
C  C35  1  0.58854594  0.23062268  0.60033965  1  1.027028  0  0.226374  0.253836  0  4.046279  0
N  N36  1  0.54967301  0.66922090  0.03990256  1  -0.585445  0  -0.189229  -0.18927  0  3.157176  0
N  N37  1  0.62376279  0.65214556  0.01552983  1  -0.346479  0  -0.134505  0.051126  0  3.794406  0
N  N38  1  0.58426211  0.56333026  0.91890408  1  -0.581544  0  -0.196249  -0.196866  0  3.130719  0
N  N39  1  0.42794121  0.33397457  0.73336938  1  -0.782078  0  -0.242151  -0.243911  0  3.524182  0
N  N40  1  0.33984280  0.25031655  0.63102313  1  -0.088729  0  -0.088189  -0.0628  0  3.205199  0
N  N41  1  0.26097261  0.27499288  0.60583359  1  -0.036646  0  -0.084437  -0.048722  0  3.177262  0
N  N42  1  0.29570853  0.37549933  0.69137014  1  -0.789029  0  -0.237522  -0.241594  0  3.492404  0
N  N43  1  0.33774962  0.60956900  0.03899524  1  -0.767516  0  -0.242115  -0.234058  0  3.531261  0
N  N44  1  0.22902611  0.58170194  0.00182817  1  -0.023702  0  -0.086133  -0.056359  0  3.181727  0
N  N45  1  0.17501753  0.52757573  0.89317178  1  -0.100675  0  -0.086422  -0.053276  0  3.188892  0
N  N46  1  0.24735196  0.51921864  0.85680921  1  -0.76748  0  -0.242149  -0.252701  0  3.507351  0
N  N47  1  0.03990266  0.54967391  0.66922240  1  -0.585488  0  -0.189286  -0.189363  0  3.157398  0
N  N48  1  0.01552945  0.62376364  0.65214651  1  -0.346526  0  -0.134455  0.051181  0  3.794423  0
N  N49  1  0.91890386  0.58426159  0.56333040  1  -0.581505  0  -0.196239  -0.196843  0  3.13074  0
N  N50  1  0.73336986  0.42794063  0.33397397  1  -0.782088  0  -0.242143  -0.243878  0  3.524263  0
N  N51  1  0.63102484  0.33984206  0.25031770  1  -0.089123  0  -0.0882  -0.062874  0  3.205343  0
N  N52  1  0.60583389  0.26097242  0.27499363  1  -0.03621  0  -0.084405  -0.048632  0  3.1772  0
N  N53  1  0.69137060  0.29570875  0.37550000  1  -0.789044  0  -0.237557  -0.241644  0  3.492385  0
N  N54  1  0.03899556  0.33775043  0.60956860  1  -0.767564  0  -0.242129  -0.234104  0  3.531285  0
N  N55  1  0.00182854  0.22902633  0.58170221  1  -0.023669  0  -0.086141  -0.05635  0  3.181628  0
N  N56  1  0.89317204  0.17501899  0.52757581  1  -0.100628  0  -0.086372  -0.053229  0  3.188826  0
N  N57  1  0.85680903  0.24735292  0.51921957  1  -0.767528  0  -0.242176  -0.25276  0  3.50735  0
N  N58  1  0.66922204  0.03990289  0.54967326  1  -0.58547  0  -0.189202  -0.189247  0  3.157188  0
N  N59  1  0.65214510  0.01552981  0.62376354  1  -0.346534  0  -0.134513  0.051131  0  3.794345  0
N  N60  1  0.56332997  0.91890400  0.58426148  1  -0.581526  0  -0.196336  -0.197011  0  3.130929  0
N  N61  1  0.33397643  0.73336998  0.42794292  1  -0.782059  0  -0.24216  -0.243918  0  3.524088  0
N  N62  1  0.25031742  0.63102297  0.33984302  1  -0.08902  0  -0.088186  -0.062794  0  3.205151  0
N  N63  1  0.27499375  0.60583425  0.26097266  1  -0.036283  0  -0.084435  -0.048733  0  3.177195  0
N  N64  1  0.37550018  0.69137162  0.29570840  1  -0.788995  0  -0.237552  -0.241572  0  3.492336  0
N  N65  1  0.60956785  0.03899467  0.33774962  1  -0.767531  0  -0.242111  -0.234061  0  3.531294  0
N  N66  1  0.58170182  0.00182879  0.22902713  1  -0.023694  0  -0.086109  -0.056352  0  3.181733  0
N  N67  1  0.52757537  0.89317215  0.17501823  1  -0.10063  0  -0.086391  -0.053223  0  3.188843  0
N  N68  1  0.51921943  0.85680883  0.24735297  1  -0.76752  0  -0.242174  -0.252737  0  3.50734  0
N  N69  1  0.45032586  0.33077762  0.96009735  1  -0.585362  0  -0.189234  -0.189284  0  3.157269  0
N  N70  1  0.37623608  0.34785367  0.98446963  1  -0.346808  0  -0.134487  0.051175  0  3.794292  0
N  N71  1  0.41573844  0.43667198  0.08109627  1  -0.581281  0  -0.196254  -0.196885  0  3.130703  0
N  N72  1  0.57205766  0.66602539  0.26662896  1  -0.78209  0  -0.242178  -0.243964  0  3.524231  0
N  N73  1  0.66015691  0.74968383  0.36897631  1  -0.088733  0  -0.08816  -0.062733  0  3.205203  0
N  N74  1  0.73902626  0.72500708  0.39416544  1  -0.036594  0  -0.084443  -0.048765  0  3.177255  0
N  N75  1  0.70429201  0.62450074  0.30862812  1  -0.788971  0  -0.237567  -0.241613  0  3.492336  0
N  N76  1  0.66224926  0.39043097  0.96100446  1  -0.767559  0  -0.242126  -0.234162  0  3.531236  0
N  N77  1  0.77097359  0.41829699  0.99817148  1  -0.023661  0  -0.086143  -0.056316  0  3.181537  0
N  N78  1  0.82498135  0.47242351  0.10682837  1  -0.100633  0  -0.086392  -0.053279  0  3.188797  0
N  N79  1  0.75264608  0.48078018  0.14318984  1  -0.76752  0  -0.242164  -0.252743  0  3.507339  0
N  N80  1  0.96009955  0.45032700  0.33077737  1  -0.585395  0  -0.189247  -0.189306  0  3.157302  0
N  N81  1  0.98447109  0.37623571  0.34785287  1  -0.346543  0  -0.134474  0.051145  0  3.794458  0
N  N82  1  0.08109668  0.41573848  0.43666990  1  -0.581522  0  -0.19625  -0.196842  0  3.130739  0
N  N83  1  0.26662984  0.57205902  0.66602523  1  -0.78215  0  -0.242153  -0.243921  0  3.52421  0
N  N84  1  0.36897570  0.66015729  0.74968440  1  -0.088836  0  -0.088156  -0.062749  0  3.20517  0
N  N85  1  0.39416582  0.73902724  0.72500761  1  -0.036525  0  -0.084451  -0.048736  0  3.177225  0
N  N86  1  0.30862995  0.70429132  0.62450099  1  -0.788979  0  -0.237544  -0.241637  0  3.492441  0
N  N87  1  0.96100498  0.66224964  0.39043033  1  -0.767507  0  -0.242076  -0.234056  0  3.531217  0
N  N88  1  0.99817284  0.77097416  0.41829919  1  -0.023652  0  -0.086169  -0.056416  0  3.181605  0
N  N89  1  0.10682935  0.82498223  0.47242583  1  -0.10066  0  -0.086354  -0.053179  0  3.188696  0
N  N90  1  0.14319235  0.75264758  0.48078183  1  -0.767563  0  -0.242182  -0.252771  0  3.507291  0
N  N91  1  0.33077934  0.96009832  0.45032702  1  -0.585416  0  -0.189212  -0.189249  0  3.157277  0
N  N92  1  0.34785378  0.98447015  0.37623685  1  -0.346568  0  -0.134502  0.051152  0  3.794378  0
N  N93  1  0.43667058  0.08109607  0.41573883  1  -0.581533  0  -0.196301  -0.196952  0  3.130884  0
N  N94  1  0.66602579  0.26663093  0.57205889  1  -0.782059  0  -0.242148  -0.243917  0  3.524187  0
N  N95  1  0.74968312  0.36897637  0.66015704  1  -0.08905  0  -0.088184  -0.062792  0  3.205228  0
N  N96  1  0.72500596  0.39416540  0.73902722  1  -0.036292  0  -0.084423  -0.048698  0  3.177247  0
N  N97  1  0.62450037  0.30862990  0.70429170  1  -0.789036  0  -0.237554  -0.241614  0  3.492354  0
N  N98  1  0.39043186  0.96100643  0.66225075  1  -0.767582  0  -0.242112  -0.234074  0  3.531226  0
N  N99  1  0.41829790  0.99817304  0.77097484  1  -0.023653  0  -0.086131  -0.056342  0  3.181594  0
N  N100  1  0.47242434  0.10682895  0.82498214  1  -0.100664  0  -0.086398  -0.053282  0  3.188795  0
N  N101  1  0.48078194  0.14319165  0.75264706  1  -0.767549  0  -0.242169  -0.252718  0  3.507324  0
