# generated using pymatgen
data_MnH14C14S2(N2O3)2
_symmetry_space_group_name_H-M   'P 1'
_cell_length_a   9.84094585
_cell_length_b   9.61786244
_cell_length_c   11.17180006
_cell_angle_alpha   106.67915219
_cell_angle_beta   101.11180174
_cell_angle_gamma   109.35675797
_symmetry_Int_Tables_number   1
_chemical_formula_structural   MnH14C14S2(N2O3)2
_chemical_formula_sum   'Mn2 H28 C28 S4 N8 O12'
_cell_volume   905.88564777
_cell_formula_units_Z   2
loop_
 _symmetry_equiv_pos_site_id
 _symmetry_equiv_pos_as_xyz
  1  'x, y, z'
loop_
 _atom_site_type_symbol
 _atom_site_label
 _atom_site_symmetry_multiplicity
 _atom_site_fract_x
 _atom_site_fract_y
 _atom_site_fract_z
 _atom_site_occupancy
 _atom_site_hle17_ddec_charge
 _atom_site_hle17_ddec_spin_density
 _atom_site_hle17_ddec_sum_bond_order
 _atom_site_hle17_magmom
 _atom_site_hse06_10hf_ddec_charge
 _atom_site_hse06_10hf_ddec_spin_density
 _atom_site_hse06_10hf_ddec_sum_bond_order
 _atom_site_hse06_10hf_magmom
 _atom_site_hse06_ddec_charge
 _atom_site_hse06_ddec_spin_density
 _atom_site_hse06_ddec_sum_bond_order
 _atom_site_hse06_magmom
 _atom_site_pbe_cm5_charge
 _atom_site_pbe_ddec_charge
 _atom_site_pbe_ddec_spin_density
 _atom_site_pbe_ddec_sum_bond_order
 _atom_site_pbe_magmom
Mn  Mn0  1  0.80050133  0.81609082  0.28780729  1  1.176883  -4.797735  1.732462  -4.674  1.012305  -4.719811  2.224306  -4.528  1.068473  -4.766947  2.156191  -4.593  0.601079  0.967256  -4.668476  2.276543  -4.46
Mn  Mn1  1  0.19943079  0.18385379  0.71222842  1  1.176903  4.797783  1.732245  4.674  1.012318  4.719888  2.224157  4.528  1.068477  4.767004  2.156051  4.593  0.601064  0.967298  4.668572  2.276397  4.46
H  H2  1  0.05471998  0.84876983  0.45023459  1  0.423233  -0.000219  0.854567  0.0  0.391987  -0.000753  0.933376  -0.001  0.401842  -0.000615  0.922267  -0.001  0.302339  0.384939  -0.000862  0.941242  -0.001
H  H3  1  0.94525467  0.15120592  0.54973486  1  0.423083  0.000216  0.854897  0.0  0.391903  0.000755  0.933523  0.001  0.40175  0.000617  0.922447  0.001  0.302333  0.38485  0.000864  0.941395  0.001
H  H4  1  0.12335723  0.91698427  0.35376686  1  0.411705  -0.000209  0.904386  -0.001  0.373952  -0.000778  0.980484  -0.002  0.386439  -0.00059  0.962533  -0.001  0.281408  0.364941  -0.000909  0.993418  -0.002
H  H5  1  0.87671428  0.08302951  0.64626104  1  0.411724  0.000208  0.904273  0.001  0.37404  0.000777  0.980271  0.002  0.386535  0.000588  0.962307  0.001  0.281622  0.365036  0.000908  0.993197  0.002
H  H6  1  0.90251022  0.97941965  0.14196934  1  0.416648  6.3e-05  0.895545  0.0  0.382359  -0.000538  0.963817  -0.001  0.395156  -0.000324  0.945388  -0.001  0.283537  0.373267  -0.000731  0.976942  -0.001
H  H7  1  0.09751375  0.02056925  0.85812057  1  0.416743  -6.3e-05  0.895402  0.0  0.382435  0.000541  0.96368  0.001  0.395233  0.000326  0.945252  0.001  0.283653  0.373338  0.000735  0.976812  0.001
H  H8  1  0.97387810  0.85154018  0.11618915  1  0.418431  1e-05  0.822781  -0.001  0.405322  -0.000979  0.87076  -0.002  0.41338  -0.000571  0.862312  -0.001  0.321929  0.399247  -0.001385  0.877226  -0.002
H  H9  1  0.02612002  0.14846167  0.88382036  1  0.418493  -4e-06  0.82257  0.001  0.405393  0.000983  0.870526  0.002  0.413451  0.000574  0.862083  0.001  0.322039  0.399321  0.001391  0.876979  0.002
H  H10  1  0.97513328  0.59876881  0.23319867  1  0.332228  0.000158  0.913471  0.0  0.314569  -0.000128  0.981901  0.0  0.321832  1.3e-05  0.975954  0.0  0.294243  0.309694  -7.6e-05  0.985465  0.0
H  H11  1  0.02482132  0.40124392  0.76682167  1  0.33191  -0.000161  0.913479  0.0  0.314443  0.000128  0.981698  0.0  0.321713  -1.3e-05  0.975733  0.0  0.294124  0.309569  7.5e-05  0.985262  0.0
H  H12  1  0.94185555  0.39948583  0.16802734  1  0.326779  -1e-06  0.894336  0.0  0.311077  -0.000106  0.959244  0.0  0.318043  -6.1e-05  0.953124  0.0  0.300333  0.306262  -0.000103  0.962982  0.0
H  H13  1  0.05809814  0.60048851  0.83198467  1  0.326817  5e-06  0.894308  0.0  0.311144  0.000106  0.959145  0.0  0.318104  6.1e-05  0.953028  0.0  0.300449  0.306332  0.000103  0.962881  0.0
H  H14  1  0.63302288  0.04428295  0.36023810  1  0.341358  0.000439  0.911059  0.0  0.322412  0.000311  0.975841  0.0  0.329851  0.000364  0.969851  0.0  0.303296  0.317108  0.000243  0.980325  0.0
H  H15  1  0.36696892  0.95573752  0.63972835  1  0.341319  -0.000445  0.911243  0.0  0.32243  -0.000311  0.975885  0.0  0.32986  -0.000364  0.96992  0.0  0.303342  0.317131  -0.000243  0.980368  0.0
H  H16  1  0.44443465  0.03161055  0.35295436  1  0.343747  0.000131  0.926805  0.0  0.321188  0.000191  0.99752  0.0  0.329478  0.000124  0.990372  0.0  0.292649  0.315356  0.000252  1.00261  0.0
H  H17  1  0.55555864  0.96839443  0.64703747  1  0.343583  -0.000128  0.926977  0.0  0.321037  -0.000191  0.997663  0.0  0.329334  -0.000125  0.990512  0.0  0.29259  0.315207  -0.000253  1.002748  0.0
H  H18  1  0.35959208  0.23428891  0.04632133  1  0.160076  -0.000382  0.948238  0.0  0.171231  -0.000368  1.001231  0.0  0.17524  -0.00036  0.998689  0.0  0.117399  0.167958  -0.000321  1.003951  0.0
H  H19  1  0.64038092  0.76572344  0.95364036  1  0.160126  0.000363  0.948233  0.0  0.171345  0.000369  1.001129  0.0  0.175353  0.00036  0.998585  0.0  0.117409  0.168072  0.000322  1.003845  0.0
H  H20  1  0.21731701  0.41802875  0.09719927  1  0.151114  -0.000298  0.944472  0.0  0.163098  -0.000422  0.998204  0.0  0.166908  -0.000378  0.996163  0.0  0.114454  0.160416  -0.000414  0.99958  0.0
H  H21  1  0.78267720  0.58196324  0.90284817  1  0.151162  0.000306  0.94442  0.0  0.163112  0.000422  0.998165  0.0  0.166929  0.000378  0.996124  0.0  0.11451  0.160429  0.000414  0.999538  0.0
H  H22  1  0.69398923  0.53057338  0.38647152  1  0.093118  0.000447  0.985404  0.0  0.10104  0.000338  1.049729  0.0  0.103744  0.000371  1.049356  0.0  0.103043  0.098619  0.000313  1.051376  0.0
H  H23  1  0.30603879  0.46940874  0.61350853  1  0.093259  -0.000459  0.985594  0.0  0.10121  -0.00034  1.049856  0.0  0.103898  -0.000372  1.049496  0.0  0.103123  0.09879  -0.000315  1.051507  0.0
H  H24  1  0.50027927  0.73899821  0.66261684  1  0.086798  8.4e-05  0.974571  0.0  0.094452  1e-05  1.043325  0.0  0.097963  1.3e-05  1.041119  0.0  0.096746  0.092344  -4e-06  1.044135  0.0
H  H25  1  0.49970970  0.26098505  0.33737454  1  0.08675  -8.2e-05  0.974649  0.0  0.094375  -1e-05  1.043447  0.0  0.097881  -1.3e-05  1.041249  0.0  0.096727  0.092269  4e-06  1.044254  0.0
H  H26  1  0.14287333  0.43925336  0.34614607  1  0.094724  4.8e-05  0.954083  0.0  0.103247  -1e-06  1.017882  0.0  0.106119  5e-06  1.016826  0.0  0.102498  0.100818  -2.9e-05  1.020036  0.0
H  H27  1  0.85712764  0.56074806  0.65384218  1  0.094751  -5.5e-05  0.95375  0.0  0.103234  0.0  1.017605  0.0  0.106105  -5e-06  1.016551  0.0  0.102554  0.100805  2.9e-05  1.019759  0.0
H  H28  1  0.77428295  0.28417096  0.49891225  1  0.087721  0.000128  0.967142  0.0  0.096837  0.000159  1.033205  0.0  0.09997  0.000135  1.031523  0.0  0.100278  0.09449  0.000161  1.035016  0.0
H  H29  1  0.22572130  0.71582556  0.50107684  1  0.087741  -0.000128  0.967203  0.0  0.096871  -0.000159  1.033227  0.0  0.100003  -0.000135  1.031545  0.0  0.100297  0.094526  -0.00016  1.035033  0.0
C  C30  1  0.53927482  0.47927596  0.13863355  1  0.172762  -3e-05  3.870117  -0.001  0.166386  -0.001006  4.124477  -0.001  0.171815  -0.000843  4.147117  -0.001  0.087112  0.162739  -0.001054  4.107561  -0.001
C  C31  1  0.46073143  0.52072758  0.86136137  1  0.173072  -5.7e-05  3.869515  0.0  0.166596  0.001004  4.123976  0.001  0.17202  0.000836  4.146627  0.001  0.087209  0.162944  0.001049  4.107074  0.001
C  C32  1  0.47853328  0.31642182  0.08234602  1  -0.245578  -0.000107  3.627419  0.0  -0.26811  -0.000631  3.906806  -0.001  -0.272273  -0.000245  3.922764  0.0  -0.103768  -0.266028  -0.001057  3.896568  -0.001
C  C33  1  0.52147446  0.68356516  0.91770267  1  -0.245692  0.000252  3.627411  0.0  -0.268256  0.000632  3.906819  0.001  -0.272415  0.000249  3.922775  0.0  -0.103831  -0.26617  0.001058  3.896575  0.001
C  C34  1  0.75585288  0.44751461  0.14445244  1  0.421191  -0.004252  3.817895  -0.004  0.38933  -0.006911  4.114473  -0.006  0.411033  -0.00567  4.126294  -0.005  0.238045  0.375295  -0.008161  4.10513  -0.007
C  C35  1  0.24414011  0.55249301  0.85553384  1  0.421382  0.004233  3.817264  0.004  0.389514  0.006895  4.113899  0.006  0.41122  0.005662  4.125723  0.005  0.238224  0.375478  0.008144  4.104557  0.007
C  C36  1  0.46042998  0.58124868  0.17179196  1  0.179658  7e-06  3.881828  0.0  0.172249  -0.001243  4.137134  -0.002  0.178506  -0.001024  4.161054  -0.001  0.085613  0.168501  -0.001274  4.119185  -0.002
C  C37  1  0.53955216  0.41873959  0.82822863  1  0.179616  0.000136  3.88127  0.001  0.17232  0.001241  4.136433  0.002  0.178582  0.001026  4.160333  0.001  0.08546  0.16857  0.001271  4.118493  0.002
C  C38  1  0.30761259  0.53666972  0.14848103  1  -0.267678  -0.000456  3.662266  0.0  -0.290886  -0.000799  3.944178  0.0  -0.296452  -0.00036  3.96189  0.0  -0.116204  -0.286056  -0.001469  3.930553  -0.001
C  C39  1  0.69238133  0.46333524  0.85154316  1  -0.267783  0.00026  3.661689  0.0  -0.290966  0.000798  3.943529  0.0  -0.296544  0.000356  3.961244  0.0  -0.116271  -0.286132  0.001468  3.929904  0.001
C  C40  1  0.46508032  0.82305689  0.26857269  1  0.433553  -0.003735  3.854941  -0.004  0.399066  -0.006358  4.150745  -0.006  0.421569  -0.005141  4.162031  -0.005  0.239498  0.383186  -0.007513  4.143703  -0.007
C  C41  1  0.53491251  0.17693926  0.73139686  1  0.43378  0.003774  3.854982  0.004  0.399151  0.006341  4.150974  0.006  0.42165  0.005136  4.162249  0.005  0.239418  0.383275  0.007499  4.143933  0.007
C  C42  1  0.72430722  0.81273913  0.54834792  1  0.670198  -0.010137  3.860664  -0.01  0.61488  -0.015298  4.156613  -0.014  0.650584  -0.011529  4.147748  -0.011  0.218432  0.590023  -0.020025  4.161586  -0.018
C  C43  1  0.27570385  0.18729194  0.45165365  1  0.670484  0.010179  3.860255  0.01  0.615072  0.015274  4.156201  0.014  0.650782  0.01151  4.147317  0.011  0.218422  0.590219  0.019998  4.16118  0.018
C  C44  1  0.60839377  0.65223023  0.52506736  1  -0.067757  0.00348  3.745442  0.003  -0.045952  0.00287  3.979101  0.002  -0.052196  0.002856  4.000017  0.002  -0.019276  -0.041751  0.003599  3.965407  0.003
C  C45  1  0.39163053  0.34775449  0.47494072  1  -0.068216  -0.003501  3.745199  -0.003  -0.046174  -0.002874  3.978685  -0.002  -0.05243  -0.002852  3.999587  -0.002  -0.01935  -0.041974  -0.003602  3.965004  -0.003
C  C46  1  0.60811341  0.51580802  0.43552995  1  -0.066307  -0.002899  3.752714  -0.003  -0.088521  -0.002262  4.000425  -0.002  -0.089876  -0.002122  4.022124  -0.002  -0.086583  -0.0878  -0.003081  3.987764  -0.003
C  C47  1  0.39191634  0.48419598  0.56447894  1  -0.066447  0.002919  3.752256  0.003  -0.088765  0.002264  3.999903  0.002  -0.090106  0.00212  4.021618  0.002  -0.08673  -0.088049  0.003081  3.987256  0.003
C  C48  1  0.49929168  0.63482552  0.59010542  1  -0.077659  -0.003346  3.737988  -0.003  -0.100355  -0.002839  3.98636  -0.002  -0.101471  -0.002653  4.006854  -0.002  -0.090325  -0.099357  -0.003668  3.97225  -0.003
C  C49  1  0.50075620  0.36517693  0.40990810  1  -0.077392  0.003351  3.737803  0.003  -0.100138  0.002839  3.986101  0.002  -0.101242  0.002648  4.0066  0.002  -0.090222  -0.099143  0.003668  3.971993  0.003
C  C50  1  0.90369243  0.17868846  0.31548178  1  0.659409  -0.003202  3.889452  -0.004  0.602375  -0.006097  4.191196  -0.006  0.636922  -0.004533  4.183912  -0.005  0.216542  0.57858  -0.007718  4.195338  -0.007
C  C51  1  0.09631730  0.82132962  0.68451145  1  0.659169  0.003178  3.890042  0.004  0.602168  0.006102  4.191681  0.006  0.636701  0.004534  4.184413  0.005  0.216378  0.578391  0.007725  4.195805  0.007
C  C52  1  0.95207836  0.34435445  0.41062851  1  -0.063943  -2.2e-05  3.758273  0.0  -0.043757  -0.000103  3.993654  0.0  -0.049704  2.7e-05  4.014915  0.0  -0.019283  -0.040512  -0.000138  3.980034  0.0
C  C53  1  0.04795158  0.65564406  0.58936541  1  -0.06454  2.8e-05  3.758638  0.0  -0.04426  0.000103  3.993827  0.0  -0.050183  -2e-05  4.015059  0.0  -0.019408  -0.041005  0.000139  3.980189  0.0
C  C54  1  0.07957764  0.46703220  0.41272125  1  -0.073597  -0.001206  3.756397  -0.001  -0.094204  -0.001206  4.003882  -0.001  -0.095311  -0.001115  4.02445  -0.001  -0.084705  -0.094031  -0.00135  3.992781  -0.001
C  C55  1  0.92044960  0.53296997  0.58727245  1  -0.07327  0.001208  3.756244  0.001  -0.093819  0.001207  4.003608  0.001  -0.094933  0.001114  4.024169  0.001  -0.084717  -0.093649  0.00135  3.992501  0.001
C  C56  1  0.87311612  0.37834011  0.49877908  1  -0.07562  -0.000948  3.749007  -0.001  -0.099018  -0.00096  3.998312  -0.001  -0.099795  -0.000895  4.018111  -0.001  -0.086688  -0.098  -0.001128  3.986345  -0.001
C  C57  1  0.12690892  0.62166688  0.50121570  1  -0.075373  0.000953  3.748943  0.001  -0.098776  0.000962  3.998204  0.001  -0.099558  0.000895  4.01799  0.001  -0.086667  -0.097765  0.001129  3.986235  0.001
S  S58  1  0.62054340  0.25050589  0.07376917  1  0.090474  -0.003501  2.479435  -0.002  0.094265  -0.005851  2.796157  -0.003  0.092874  -0.004225  2.797907  -0.003  0.088226  0.093306  -0.007632  2.795707  -0.005
S  S59  1  0.37946584  0.74949793  0.92628180  1  0.090239  0.003503  2.479266  0.002  0.094045  0.00585  2.796003  0.003  0.092644  0.004229  2.797754  0.003  0.088113  0.093093  0.007625  2.795551  0.005
S  S60  1  0.27035675  0.70092302  0.21258414  1  0.078013  -0.003169  2.52621  -0.002  0.085361  -0.005233  2.86092  -0.003  0.084024  -0.003741  2.861621  -0.002  0.080873  0.087351  -0.006786  2.859465  -0.004
S  S61  1  0.72962725  0.29907980  0.78740317  1  0.077876  0.003149  2.526213  0.002  0.085251  0.005229  2.860989  0.003  0.083912  0.003742  2.861695  0.002  0.080837  0.087245  0.006779  2.859533  0.004
N  N62  1  0.69656829  0.55316098  0.17357879  1  -0.496098  -0.027175  3.162883  -0.013  -0.432472  -0.030562  3.444559  -0.011  -0.456341  -0.027652  3.455234  -0.009  -0.34795  -0.414568  -0.033617  3.43566  -0.014
N  N63  1  0.30340826  0.44683224  0.82637614  1  -0.49612  0.027181  3.161667  0.013  -0.432508  0.030546  3.443451  0.011  -0.456373  0.027633  3.454118  0.009  -0.348056  -0.414606  0.033603  3.434561  0.014
N  N64  1  0.54952878  0.74357289  0.23912248  1  -0.521614  -0.028315  3.171948  -0.014  -0.458224  -0.031637  3.456645  -0.013  -0.483952  -0.028651  3.46859  -0.01  -0.353752  -0.439784  -0.034747  3.448029  -0.015
N  N65  1  0.45045815  0.25640364  0.76091962  1  -0.52173  0.028263  3.17139  0.014  -0.458278  0.031628  3.455991  0.013  -0.484009  0.028629  3.467958  0.01  -0.353518  -0.439842  0.034737  3.44738  0.015
N  N66  1  0.90621806  0.48657736  0.16385116  1  -0.672994  -0.001417  3.110903  -0.001  -0.644262  -0.002772  3.353634  -0.002  -0.664235  -0.002175  3.351068  -0.002  -0.583987  -0.629744  -0.003371  3.353052  -0.003
N  N67  1  0.09378690  0.51345372  0.83615141  1  -0.672705  0.001396  3.110911  0.001  -0.644129  0.002765  3.353509  0.002  -0.664101  0.002172  3.350939  0.002  -0.58395  -0.629611  0.003365  3.35293  0.003
N  N68  1  0.51859397  0.98056990  0.33378452  1  -0.670295  -0.001402  3.135896  -0.002  -0.636713  -0.002643  3.377143  -0.002  -0.657569  -0.002124  3.373746  -0.002  -0.578575  -0.623035  -0.003233  3.380356  -0.003
N  N69  1  0.48139615  0.01944154  0.66619709  1  -0.670116  0.001418  3.136311  0.002  -0.636503  0.002635  3.37759  0.002  -0.657363  0.002123  3.374193  0.002  -0.578488  -0.622824  0.003224  3.380784  0.003
O  O70  1  0.03321309  0.82654039  0.35509431  1  -0.849382  -0.028974  1.93761  -0.017  -0.785534  -0.037286  2.16326  -0.023  -0.80971  -0.033887  2.131108  -0.02  -0.566042  -0.76661  -0.040711  2.185862  -0.026
O  O71  1  0.96680233  0.17347745  0.64487181  1  -0.849108  0.029003  1.938023  0.017  -0.785365  0.037306  2.163641  0.023  -0.809554  0.033904  2.131485  0.02  -0.56615  -0.766444  0.040733  2.186243  0.026
O  O72  1  0.87817184  0.86049872  0.11609121  1  -0.82059  -0.026179  1.839645  -0.015  -0.764159  -0.035871  2.030641  -0.021  -0.786817  -0.032021  1.999411  -0.019  -0.560195  -0.74678  -0.039197  2.053112  -0.024
O  O73  1  0.12180486  0.13947870  0.88386553  1  -0.820683  0.026228  1.839776  0.015  -0.764216  0.035929  2.030953  0.021  -0.786877  0.032073  1.999693  0.019  -0.560311  -0.746826  0.039256  2.053433  0.024
O  O74  1  0.81466309  0.81927641  0.47994646  1  -0.666999  -0.030585  2.074683  -0.017  -0.597787  -0.036586  2.350805  -0.02  -0.628283  -0.032451  2.33722  -0.016  -0.324017  -0.57467  -0.040909  2.359643  -0.024
O  O75  1  0.18531198  0.18074120  0.52003581  1  -0.666972  0.030522  2.07363  0.017  -0.597847  0.036524  2.349831  0.02  -0.628332  0.032408  2.33625  0.016  -0.324  -0.574735  0.040839  2.358662  0.024
O  O76  1  0.72940281  0.93615204  0.63558935  1  -0.63905  -0.00591  1.958759  -0.006  -0.578902  -0.009724  2.175857  -0.01  -0.603254  -0.007514  2.164333  -0.008  -0.321517  -0.561823  -0.0117  2.183771  -0.012
O  O77  1  0.27060265  0.06385992  0.36440696  1  -0.63931  0.00585  1.958394  0.006  -0.579049  0.009709  2.175468  0.01  -0.603407  0.007491  2.16396  0.008  -0.321571  -0.561964  0.011681  2.183384  0.012
O  O78  1  0.83759467  0.06572789  0.35245486  1  -0.678888  -0.030368  2.067279  -0.017  -0.598137  -0.036237  2.321435  -0.019  -0.62848  -0.033097  2.307083  -0.017  -0.309842  -0.575722  -0.039398  2.331134  -0.022
O  O79  1  0.16241533  0.93426432  0.64751852  1  -0.678739  0.030393  2.067449  0.017  -0.598085  0.036247  2.321722  0.019  -0.628425  0.033105  2.307383  0.017  -0.309807  -0.575749  0.039413  2.331506  0.022
O  O80  1  0.93068371  0.15944506  0.20687409  1  -0.615932  -0.000694  1.924867  -0.001  -0.562269  -0.002136  2.133444  -0.003  -0.586306  -0.001415  2.122056  -0.002  -0.316969  -0.545699  -0.003205  2.141354  -0.004
O  O81  1  0.06932498  0.84057939  0.79311095  1  -0.615627  0.000703  1.925478  0.001  -0.561997  0.002138  2.134072  0.003  -0.586027  0.001416  2.122687  0.002  -0.31675  -0.545424  0.003207  2.141967  0.004
