# generated using pymatgen
data_CuH6C2(N2O)6
_symmetry_space_group_name_H-M   'P 1'
_cell_length_a   7.98636094
_cell_length_b   8.12301465
_cell_length_c   8.95374496
_cell_angle_alpha   90.00002249
_cell_angle_beta   90.00002320
_cell_angle_gamma   107.62334949
_symmetry_Int_Tables_number   1
_chemical_formula_structural   CuH6C2(N2O)6
_chemical_formula_sum   'Cu2 H12 C4 N24 O12'
_cell_volume   553.59796919
_cell_formula_units_Z   2
loop_
 _symmetry_equiv_pos_site_id
 _symmetry_equiv_pos_as_xyz
  1  'x, y, z'
loop_
 _atom_site_type_symbol
 _atom_site_label
 _atom_site_symmetry_multiplicity
 _atom_site_fract_x
 _atom_site_fract_y
 _atom_site_fract_z
 _atom_site_occupancy
 _atom_site_hle17_ddec_charge
 _atom_site_hle17_ddec_spin_density
 _atom_site_hle17_ddec_sum_bond_order
 _atom_site_hle17_magmom
 _atom_site_hse06_10hf_ddec_charge
 _atom_site_hse06_10hf_ddec_spin_density
 _atom_site_hse06_10hf_ddec_sum_bond_order
 _atom_site_hse06_10hf_magmom
 _atom_site_hse06_ddec_charge
 _atom_site_hse06_ddec_spin_density
 _atom_site_hse06_ddec_sum_bond_order
 _atom_site_hse06_magmom
 _atom_site_pbe_cm5_charge
 _atom_site_pbe_ddec_charge
 _atom_site_pbe_ddec_spin_density
 _atom_site_pbe_ddec_sum_bond_order
 _atom_site_pbe_magmom
Cu  Cu0  1  0.99999760  0.99999812  0.00000148  1  0.788339  -0.681216  1.867846  -0.512  0.766318  -0.782845  2.253044  -0.641  0.862381  -0.854902  2.191563  -0.739  0.752105  0.703635  -0.724712  2.297721  -0.568
Cu  Cu1  1  0.50000041  0.49999987  0.49999990  1  0.788341  -0.681214  1.867758  -0.512  0.766319  -0.782865  2.252985  -0.641  0.862407  -0.854904  2.191434  -0.739  0.752074  0.703625  -0.724717  2.29766  -0.568
H  H2  1  0.57532781  0.86255306  0.94496017  1  0.118916  0.000268  0.963019  0.0  0.118579  0.000172  1.035264  0.0  0.122363  0.000134  1.031248  0.0  0.13843  0.115474  0.000164  1.038568  0.0
H  H3  1  0.92467371  0.63745166  0.44495935  1  0.118956  0.000264  0.962807  0.0  0.118533  0.000171  1.03513  0.0  0.122315  0.000134  1.031113  0.0  0.1384  0.115427  0.000164  1.038431  0.0
H  H4  1  0.42466926  0.13744665  0.05504187  1  0.118971  0.000269  0.962799  0.0  0.118596  0.000172  1.035082  0.0  0.122377  0.000134  1.031067  0.0  0.13843  0.115486  0.000164  1.038392  0.0
H  H5  1  0.07532829  0.36255195  0.55504269  1  0.118955  0.000268  0.96283  0.0  0.118599  0.000172  1.035084  0.0  0.122382  0.000134  1.031067  0.0  0.138437  0.115489  0.000164  1.038392  0.0
H  H6  1  0.62744959  0.88500316  0.50990870  1  0.328035  0.000102  0.901055  0.0  0.310498  1.8e-05  0.970878  0.0  0.319125  5.3e-05  0.962808  0.0  0.314704  0.304265  2.5e-05  0.976525  0.0
H  H7  1  0.87255087  0.61499872  0.00990674  1  0.328075  0.000104  0.901023  0.0  0.310517  1.7e-05  0.970867  0.0  0.319142  5.3e-05  0.9628  0.0  0.314722  0.30428  2.5e-05  0.976519  0.0
H  H8  1  0.37255077  0.11499915  0.49009334  1  0.328064  0.000101  0.901032  0.0  0.31051  1.8e-05  0.970871  0.0  0.319135  5.3e-05  0.962802  0.0  0.31472  0.304276  2.5e-05  0.976519  0.0
H  H9  1  0.12744996  0.38500101  0.99009084  1  0.328052  0.000106  0.901022  0.0  0.310489  1.8e-05  0.970879  0.0  0.319116  5.3e-05  0.962808  0.0  0.314717  0.304257  2.5e-05  0.976525  0.0
H  H10  1  0.41892630  0.82210063  0.43946774  1  0.323117  -6.6e-05  0.902932  0.0  0.305541  -0.000131  0.973565  0.0  0.313261  -6.1e-05  0.967125  0.0  0.316505  0.300112  -0.000231  0.977865  0.0
H  H11  1  0.08107425  0.67790103  0.93946737  1  0.323133  -6.2e-05  0.902942  0.0  0.305562  -0.000131  0.973559  0.0  0.313284  -6.1e-05  0.967113  0.0  0.316516  0.300132  -0.000231  0.97786  0.0
H  H12  1  0.58107241  0.17790038  0.56053431  1  0.323138  -6.5e-05  0.90292  0.0  0.305551  -0.000131  0.973571  0.0  0.313275  -6.1e-05  0.967118  0.0  0.316515  0.300123  -0.000231  0.977869  0.0
H  H13  1  0.91892822  0.32210000  0.06053355  1  0.323138  -6.2e-05  0.902916  0.0  0.30556  -0.000131  0.97355  0.0  0.313281  -6.1e-05  0.967103  0.0  0.316516  0.300128  -0.000231  0.977851  0.0
C  C14  1  0.61222337  0.86827999  0.06180569  1  0.1849  0.005051  3.653203  0.001  0.137737  0.001314  3.939816  -0.001  0.150658  0.002486  3.948991  0.0  0.159582  0.128882  0.000497  3.935115  -0.002
C  C15  1  0.88777085  0.63172189  0.56181101  1  0.184834  0.005047  3.653143  0.001  0.137829  0.001315  3.939669  -0.001  0.150728  0.002484  3.948903  0.0  0.15965  0.128966  0.000497  3.934987  -0.002
C  C16  1  0.38777065  0.13172616  0.93818742  1  0.184775  0.005035  3.653314  0.001  0.137706  0.001313  3.93984  -0.001  0.15061  0.002484  3.949067  0.0  0.15957  0.128842  0.000497  3.935171  -0.002
C  C17  1  0.11222880  0.36827397  0.43818657  1  0.184836  0.005002  3.653357  0.001  0.137768  0.001314  3.939878  -0.001  0.150673  0.002485  3.949095  0.0  0.15958  0.128909  0.000497  3.935188  -0.002
N  N18  1  0.49817672  0.82288205  0.17451716  1  -0.253748  -0.006279  2.797399  -0.008  -0.24835  -0.003031  3.08098  -0.004  -0.253783  -0.002271  3.088339  -0.003  -0.195036  -0.245305  -0.00392  3.076972  -0.005
N  N19  1  0.00181990  0.67711944  0.67451900  1  -0.253736  -0.00627  2.797389  -0.008  -0.248356  -0.003031  3.080901  -0.004  -0.253791  -0.002272  3.088258  -0.003  -0.195032  -0.245311  -0.00392  3.076894  -0.005
N  N20  1  0.50181948  0.17711895  0.82548153  1  -0.253731  -0.006259  2.797419  -0.008  -0.248358  -0.003031  3.080971  -0.004  -0.253795  -0.002272  3.088329  -0.003  -0.195024  -0.245313  -0.00392  3.076963  -0.005
N  N21  1  0.99818045  0.32288287  0.32548081  1  -0.253756  -0.00624  2.79739  -0.008  -0.248394  -0.003032  3.080943  -0.004  -0.25383  -0.002274  3.088301  -0.003  -0.195024  -0.24535  -0.003921  3.076936  -0.005
N  N22  1  0.60527305  0.85332817  0.29190494  1  0.403199  -3.1e-05  3.645936  -0.001  0.44326  -0.000738  3.926611  -0.002  0.447465  0.000104  3.944497  -0.001  0.096669  0.439478  -0.00141  3.915514  -0.002
N  N23  1  0.89472884  0.64667388  0.79190579  1  0.403146  -4.4e-05  3.646044  -0.001  0.443199  -0.000737  3.926736  -0.002  0.447405  0.000107  3.944621  -0.001  0.096636  0.439415  -0.00141  3.91564  -0.002
N  N24  1  0.39472817  0.14667285  0.70809375  1  0.403144  -7.2e-05  3.646037  -0.001  0.4432  -0.000737  3.926733  -0.002  0.447406  0.00011  3.944617  -0.001  0.09664  0.439418  -0.00141  3.915635  -0.002
N  N25  1  0.10527238  0.35332714  0.20809402  1  0.40315  -5.6e-05  3.645984  -0.001  0.443217  -0.000737  3.926664  -0.002  0.447422  0.000111  3.944548  -0.001  0.09664  0.439433  -0.00141  3.915569  -0.002
N  N26  1  0.77404300  0.91180010  0.26221796  1  -0.086377  0.002233  2.765307  0.002  -0.090124  -0.000589  3.048177  -0.001  -0.080842  0.000311  3.055726  0.0  -0.07269  -0.097317  -0.000911  3.045372  -0.001
N  N27  1  0.72595973  0.58820064  0.76221873  1  -0.086314  0.002246  2.765296  0.002  -0.090039  -0.000589  3.048162  -0.001  -0.08076  0.000309  3.055715  0.0  -0.072641  -0.09723  -0.000911  3.045356  -0.001
N  N28  1  0.22596033  0.08819964  0.73778297  1  -0.086324  0.002279  2.765231  0.002  -0.09007  -0.00059  3.048091  -0.001  -0.080789  0.000307  3.055638  0.0  -0.072658  -0.097258  -0.000911  3.045286  -0.001
N  N29  1  0.27403984  0.41179908  0.23778331  1  -0.086279  0.002243  2.765286  0.002  -0.090024  -0.00059  3.048156  -0.001  -0.080743  0.000306  3.055707  0.0  -0.072631  -0.097213  -0.000911  3.045349  -0.001
N  N30  1  0.77897666  0.92256261  0.11307702  1  -0.248948  -0.061365  3.293574  -0.079  -0.216629  -0.044411  3.624325  -0.06  -0.245756  -0.036146  3.641694  -0.053  -0.253345  -0.200619  -0.047269  3.616802  -0.061
N  N31  1  0.72102637  0.57743934  0.61307778  1  -0.24894  -0.061359  3.293622  -0.079  -0.216665  -0.044409  3.624353  -0.06  -0.245792  -0.036144  3.641707  -0.053  -0.253378  -0.20065  -0.047268  3.616818  -0.061
N  N32  1  0.22102746  0.07743972  0.88692503  1  -0.248911  -0.06136  3.293602  -0.079  -0.216584  -0.044406  3.624286  -0.06  -0.245712  -0.036143  3.64165  -0.053  -0.253323  -0.200577  -0.047265  3.616758  -0.061
N  N33  1  0.27897109  0.42256166  0.38692426  1  -0.248987  -0.061347  3.293745  -0.079  -0.216692  -0.044407  3.62447  -0.06  -0.245818  -0.036142  3.641826  -0.053  -0.253374  -0.200677  -0.047266  3.616935  -0.061
N  N34  1  0.85231534  0.12072716  0.72670951  1  0.692858  0.006583  4.135655  0.006  0.7195  0.001477  4.45231  0.002  0.75263  0.000872  4.456916  0.001  0.109234  0.695807  0.002029  4.448799  0.002
N  N35  1  0.64768547  0.37926945  0.22670756  1  0.692861  0.006586  4.135528  0.006  0.719549  0.001477  4.452129  0.002  0.752679  0.000871  4.456737  0.001  0.109258  0.69585  0.002029  4.448627  0.002
N  N36  1  0.14768470  0.87926999  0.27329142  1  0.692897  0.006597  4.135595  0.006  0.719604  0.001475  4.452171  0.002  0.752736  0.00087  4.456773  0.001  0.109273  0.695906  0.002029  4.448668  0.002
N  N37  1  0.35231496  0.62072899  0.77329225  1  0.692839  0.006551  4.135678  0.006  0.719512  0.001475  4.452296  0.002  0.752643  0.000869  4.456898  0.001  0.109265  0.695814  0.002029  4.448788  0.002
N  N38  1  0.54249777  0.80691273  0.43359312  1  -0.567535  -0.005018  2.974932  -0.008  -0.569087  -0.003411  3.24325  -0.006  -0.588455  -0.002092  3.23746  -0.005  -0.47047  -0.555249  -0.004385  3.248233  -0.007
N  N39  1  0.95750217  0.69308682  0.93359290  1  -0.567601  -0.005027  2.974996  -0.008  -0.56913  -0.003411  3.243323  -0.006  -0.588496  -0.002092  3.237532  -0.005  -0.470504  -0.555293  -0.004386  3.248314  -0.007
N  N40  1  0.45750180  0.19308700  0.56640669  1  -0.567584  -0.005023  2.97497  -0.008  -0.569116  -0.00341  3.243308  -0.006  -0.588479  -0.002091  3.237515  -0.005  -0.4705  -0.555276  -0.004384  3.248291  -0.007
N  N41  1  0.04249866  0.30691291  0.06640580  1  -0.567557  -0.005036  2.974884  -0.008  -0.569084  -0.003411  3.243209  -0.006  -0.588449  -0.002091  3.237422  -0.005  -0.470494  -0.555248  -0.004386  3.248197  -0.007
O  O42  1  0.84875225  0.98791809  0.80804100  1  -0.443779  -0.083649  1.894532  -0.116  -0.458918  -0.052436  2.17783  -0.08  -0.497752  -0.034879  2.176558  -0.059  -0.192198  -0.431058  -0.06566  2.178329  -0.094
O  O43  1  0.65124801  0.51208268  0.30804003  1  -0.443794  -0.083647  1.894378  -0.116  -0.458935  -0.052441  2.177642  -0.08  -0.497777  -0.034884  2.176366  -0.059  -0.192215  -0.43108  -0.065666  2.178146  -0.094
O  O44  1  0.15124936  0.01208423  0.19195993  1  -0.44378  -0.083677  1.894446  -0.116  -0.458945  -0.052438  2.17771  -0.08  -0.497781  -0.034877  2.176439  -0.059  -0.192201  -0.431085  -0.065666  2.178213  -0.094
O  O45  1  0.34875196  0.48791834  0.69195866  1  -0.443754  -0.08366  1.894475  -0.116  -0.458913  -0.052438  2.177763  -0.08  -0.497751  -0.034882  2.176482  -0.059  -0.192202  -0.431052  -0.065664  2.17826  -0.094
O  O46  1  0.93010622  0.26992986  0.76945702  1  -0.404321  0.002493  1.797326  0.0  -0.404237  0.002805  2.026825  0.002  -0.420253  0.003463  2.022087  0.002  -0.157436  -0.391422  0.000341  2.029352  -0.001
O  O47  1  0.56989877  0.23006808  0.26945723  1  -0.404317  0.002453  1.797352  0.0  -0.404229  0.002811  2.026819  0.002  -0.420249  0.003473  2.022085  0.002  -0.157421  -0.391416  0.000342  2.029348  -0.001
O  O48  1  0.06989508  0.73006729  0.23054390  1  -0.40434  0.002502  1.797331  0.0  -0.404248  0.002804  2.026783  0.002  -0.420265  0.003454  2.022045  0.002  -0.157436  -0.391427  0.000343  2.029304  -0.001
O  O49  1  0.43010707  0.76993167  0.73054258  1  -0.404333  0.002506  1.797378  0.0  -0.404231  0.002807  2.026855  0.002  -0.420247  0.003462  2.022116  0.002  -0.157442  -0.391414  0.000342  2.02938  -0.001
O  O50  1  0.77490582  0.09106646  0.60202981  1  -0.440474  -0.019707  1.804511  -0.026  -0.430939  -0.009613  2.023996  -0.014  -0.449852  -0.00452  2.017177  -0.007  -0.170002  -0.41487  -0.016913  2.027363  -0.023
O  O51  1  0.72509483  0.40893394  0.10202679  1  -0.440488  -0.019689  1.804446  -0.026  -0.430997  -0.009615  2.023947  -0.014  -0.449897  -0.004524  2.017116  -0.007  -0.170041  -0.414903  -0.016912  2.027294  -0.023
O  O52  1  0.22509414  0.90893456  0.39797335  1  -0.440489  -0.0197  1.804456  -0.026  -0.430997  -0.009614  2.023943  -0.014  -0.449907  -0.004522  2.017121  -0.007  -0.170044  -0.414921  -0.016913  2.027307  -0.023
O  O53  1  0.27490599  0.59106579  0.89797190  1  -0.440474  -0.019688  1.80451  -0.026  -0.430962  -0.009613  2.024002  -0.014  -0.449875  -0.004519  2.017179  -0.007  -0.170025  -0.414889  -0.016911  2.027365  -0.023
