# generated using pymatgen
data_AgH7C7SO3
_symmetry_space_group_name_H-M   'P 1'
_cell_length_a   5.70184977
_cell_length_b   8.69237169
_cell_length_c   15.68006080
_cell_angle_alpha   92.81494264
_cell_angle_beta   89.99893637
_cell_angle_gamma   89.99899080
_symmetry_Int_Tables_number   1
_chemical_formula_structural   AgH7C7SO3
_chemical_formula_sum   'Ag4 H28 C28 S4 O12'
_cell_volume   776.20681163
_cell_formula_units_Z   4
loop_
 _symmetry_equiv_pos_site_id
 _symmetry_equiv_pos_as_xyz
  1  'x, y, z'
loop_
 _atom_site_type_symbol
 _atom_site_label
 _atom_site_symmetry_multiplicity
 _atom_site_fract_x
 _atom_site_fract_y
 _atom_site_fract_z
 _atom_site_occupancy
 _atom_site_hle17_bader_spin_density
 _atom_site_hle17_ddec_charge
 _atom_site_hle17_ddec_spin_density
 _atom_site_hle17_ddec_sum_bond_order
 _atom_site_hle17_magmom
 _atom_site_hse06_10hf_bader_spin_density
 _atom_site_hse06_10hf_ddec_charge
 _atom_site_hse06_10hf_ddec_spin_density
 _atom_site_hse06_10hf_ddec_sum_bond_order
 _atom_site_hse06_10hf_magmom
 _atom_site_hse06_bader_spin_density
 _atom_site_hse06_ddec_charge
 _atom_site_hse06_ddec_spin_density
 _atom_site_hse06_ddec_sum_bond_order
 _atom_site_hse06_magmom
 _atom_site_pbe_bader_spin_density
 _atom_site_pbe_cm5_charge
 _atom_site_pbe_ddec_charge
 _atom_site_pbe_ddec_spin_density
 _atom_site_pbe_ddec_sum_bond_order
 _atom_site_pbe_magmom
Ag  Ag0  1  0.11369758  0.79491920  0.03080828  1  0  0.714308  0  1.233433  0  0  0.611189  0  1.66077  0  0  0.642637  0  1.602336  0  0  0.453462  0.587599  0  1.703283  0
Ag  Ag1  1  0.61368422  0.70508027  0.96918887  1  0  0.714273  0  1.233608  0  0  0.611176  0  1.660914  0  0  0.642622  0  1.602483  0  0  0.453501  0.587591  0  1.703421  0
Ag  Ag2  1  0.88627357  0.20507846  0.96919510  1  0  0.714321  0  1.233614  0  0  0.611203  0  1.66093  0  0  0.64265  0  1.602496  0  0  0.453462  0.587619  0  1.703442  0
Ag  Ag3  1  0.38631675  0.29492210  0.03080956  1  0  0.714338  0  1.233578  0  0  0.611222  0  1.660891  0  0  0.642669  0  1.602464  0  0  0.453496  0.587635  0  1.703403  0
H  H4  1  0.82733121  0.41720396  0.69317385  1  0  0.097427  0  0.957036  0  0  0.109248  0  1.016721  0  0  0.111415  0  1.017662  0  0  0.099427  0.107668  0  1.016145  0
H  H5  1  0.32729915  0.08280886  0.30682589  1  0  0.097441  0  0.956782  0  0  0.109222  0  1.016523  0  0  0.111434  0  1.017417  0  0  0.099444  0.107646  0  1.015947  0
H  H6  1  0.17268554  0.58278453  0.30682731  1  0  0.097448  0  0.956959  0  0  0.109248  0  1.016655  0  0  0.111448  0  1.017563  0  0  0.099459  0.107675  0  1.016081  0
H  H7  1  0.67267902  0.91720492  0.69317803  1  0  0.097454  0  0.957004  0  0  0.109277  0  1.016689  0  0  0.111444  0  1.01763  0  0  0.099437  0.107708  0  1.016114  0
H  H8  1  0.58783448  0.38045941  0.82091697  1  0  0.121701  0  0.956283  0  0  0.130388  0  1.019085  0  0  0.13391  0  1.016109  0  0  0.108434  0.127661  0  1.021564  0
H  H9  1  0.08779168  0.11955825  0.17908462  1  0  0.121694  0  0.956139  0  0  0.130362  0  1.018989  0  0  0.133882  0  1.016014  0  0  0.108411  0.127635  0  1.021469  0
H  H10  1  0.41215772  0.61953259  0.17908111  1  0  0.121689  0  0.95625  0  0  0.13041  0  1.019023  0  0  0.13393  0  1.016049  0  0  0.108435  0.127682  0  1.021508  0
H  H11  1  0.91216896  0.88044853  0.82092353  1  0  0.121599  0  0.956327  0  0  0.130288  0  1.019174  0  0  0.133808  0  1.016198  0  0  0.108388  0.127562  0  1.021653  0
H  H12  1  0.06059269  0.68368381  0.72677456  1  0  0.096274  0  0.98405  0  0  0.107318  0  1.046351  0  0  0.10906  0  1.046728  0  0  0.104086  0.106211  0  1.045785  0
H  H13  1  0.56055516  0.81629103  0.27321450  1  0  0.096243  0  0.983945  0  0  0.107136  0  1.046469  0  0  0.108911  0  1.046752  0  0  0.103961  0.106029  0  1.045898  0
H  H14  1  0.93944160  0.31631652  0.27321041  1  0  0.096338  0  0.983966  0  0  0.107267  0  1.046414  0  0  0.109032  0  1.046728  0  0  0.104064  0.10616  0  1.045843  0
H  H15  1  0.43940547  0.18369400  0.72678655  1  0  0.096354  0  0.984067  0  0  0.107296  0  1.046476  0  0  0.109038  0  1.046853  0  0  0.104083  0.106187  0  1.045907  0
H  H16  1  0.30994743  0.73050100  0.60102742  1  0  0.082798  0  0.970896  0  0  0.095009  0  1.032804  0  0  0.097491  0  1.032445  0  0  0.095943  0.093416  0  1.03281  0
H  H17  1  0.80992630  0.76949077  0.39896044  1  0  0.082884  0  0.970977  0  0  0.095125  0  1.032835  0  0  0.097606  0  1.032477  0  0  0.096009  0.093531  0  1.032839  0
H  H18  1  0.69010440  0.26950720  0.39896738  1  0  0.082877  0  0.971151  0  0  0.095113  0  1.033023  0  0  0.097605  0  1.032638  0  0  0.095989  0.093511  0  1.03305  0
H  H19  1  0.19007467  0.23049776  0.60103817  1  0  0.082854  0  0.971066  0  0  0.095088  0  1.03294  0  0  0.097577  0  1.032565  0  0  0.095977  0.093488  0  1.032959  0
H  H20  1  0.73174249  0.49862840  0.51458236  1  0  0.104184  0  0.965245  0  0  0.126835  0  1.028052  0  0  0.127469  0  1.029159  0  0  0.089611  0.125983  0  1.027928  0
H  H21  1  0.23170079  0.00136150  0.48540454  1  0  0.104103  0  0.965331  0  0  0.12674  0  1.02812  0  0  0.127379  0  1.029224  0  0  0.089507  0.125872  0  1.028006  0
H  H22  1  0.26828128  0.50137393  0.48541799  1  0  0.104209  0  0.965203  0  0  0.126734  0  1.028155  0  0  0.127375  0  1.029255  0  0  0.089504  0.125864  0  1.028043  0
H  H23  1  0.76827212  0.99863737  0.51459633  1  0  0.104142  0  0.96538  0  0  0.126784  0  1.028151  0  0  0.127423  0  1.029254  0  0  0.089494  0.125915  0  1.02804  0
H  H24  1  0.67120445  0.69856732  0.52498473  1  0  0.099917  0  0.961932  0  0  0.121631  0  1.024134  0  0  0.123213  0  1.023455  0  0  0.087844  0.120238  0  1.025144  0
H  H25  1  0.17118915  0.80143050  0.47500623  1  0  0.09996  0  0.962001  0  0  0.121641  0  1.024205  0  0  0.123213  0  1.023536  0  0  0.087805  0.120249  0  1.02521  0
H  H26  1  0.32885089  0.30142475  0.47500954  1  0  0.099964  0  0.961785  0  0  0.121648  0  1.024003  0  0  0.123218  0  1.023335  0  0  0.087806  0.120256  0  1.02501  0
H  H27  1  0.82881532  0.19856954  0.52499340  1  0  0.099943  0  0.961949  0  0  0.121619  0  1.024175  0  0  0.123197  0  1.023501  0  0  0.087792  0.120227  0  1.02518  0
H  H28  1  0.91853464  0.62015678  0.57749291  1  0  0.104142  0  0.973309  0  0  0.124344  0  1.039814  0  0  0.125484  0  1.0401  0  0  0.088977  0.123417  0  1.039615  0
H  H29  1  0.41849844  0.87984074  0.42249502  1  0  0.104286  0  0.973252  0  0  0.12441  0  1.039809  0  0  0.125542  0  1.040108  0  0  0.088986  0.123483  0  1.039608  0
H  H30  1  0.08148913  0.37983512  0.42251028  1  0  0.104225  0  0.973346  0  0  0.124416  0  1.039826  0  0  0.125556  0  1.040117  0  0  0.089002  0.123491  0  1.039624  0
H  H31  1  0.58150779  0.12017319  0.57750189  1  0  0.10431  0  0.973268  0  0  0.124469  0  1.039777  0  0  0.125604  0  1.040072  0  0  0.089026  0.123544  0  1.039575  0
C  C32  1  0.65884098  0.47611415  0.69954272  1  0  -0.119823  0  3.682068  0  0  -0.135638  0  3.921545  0  0  -0.140913  0  3.943021  0  0  -0.090823  -0.132325  0  3.907729  0
C  C33  1  0.15878296  0.02389815  0.30045820  1  0  -0.119929  0  3.682206  0  0  -0.135606  0  3.921622  0  0  -0.140917  0  3.943081  0  0  -0.090809  -0.132294  0  3.907808  0
C  C34  1  0.34118981  0.52388006  0.30045991  1  0  -0.120062  0  3.682064  0  0  -0.135793  0  3.921597  0  0  -0.141099  0  3.943067  0  0  -0.09095  -0.132488  0  3.907796  0
C  C35  1  0.84116715  0.97612020  0.69954779  1  0  -0.120032  0  3.682267  0  0  -0.135816  0  3.921772  0  0  -0.141087  0  3.943236  0  0  -0.090875  -0.132519  0  3.907969  0
C  C36  1  0.52345543  0.45417877  0.77193973  1  0  -0.040796  0  3.714997  0  0  -0.066364  0  3.964423  0  0  -0.063339  0  3.98138  0  0  -0.080539  -0.068611  0  3.953511  0
C  C37  1  0.02341251  0.04581310  0.22806082  1  0  -0.040943  0  3.715838  0  0  -0.066509  0  3.965232  0  0  -0.063499  0  3.98224  0  0  -0.08066  -0.068749  0  3.95431  0
C  C38  1  0.47655431  0.54582015  0.22805795  1  0  -0.040854  0  3.715403  0  0  -0.066487  0  3.964715  0  0  -0.063478  0  3.981707  0  0  -0.08063  -0.068735  0  3.95381  0
C  C39  1  0.97655513  0.95417407  0.77194859  1  0  -0.040609  0  3.71489  0  0  -0.066202  0  3.964311  0  0  -0.063184  0  3.981289  0  0  -0.080505  -0.068449  0  3.953405  0
C  C40  1  0.30654378  0.52813506  0.78053599  1  0  -0.118731  0  3.729705  0  0  -0.091957  0  3.97581  0  0  -0.100445  0  3.997405  0  0  -0.020584  -0.086163  0  3.9608  0
C  C41  1  0.80653040  0.97186699  0.21945861  1  0  -0.118721  0  3.73031  0  0  -0.091966  0  3.976406  0  0  -0.100472  0  3.998037  0  0  -0.020598  -0.086176  0  3.961398  0
C  C42  1  0.69345368  0.47186979  0.21945359  1  0  -0.118775  0  3.729817  0  0  -0.091793  0  3.97559  0  0  -0.100281  0  3.997184  0  0  -0.020587  -0.086004  0  3.96058  0
C  C43  1  0.19345479  0.02814330  0.78054710  1  0  -0.118718  0  3.729575  0  0  -0.091956  0  3.97566  0  0  -0.100445  0  3.997259  0  0  -0.020654  -0.086167  0  3.96065  0
C  C44  1  0.22757470  0.62481544  0.71834766  1  0  -0.053115  0  3.777354  0  0  -0.081042  0  4.028406  0  0  -0.078814  0  4.049069  0  0  -0.086456  -0.081403  0  4.012552  0
C  C45  1  0.72755951  0.87518966  0.28165207  1  0  -0.052938  0  3.777171  0  0  -0.080721  0  4.028189  0  0  -0.078486  0  4.048877  0  0  -0.086172  -0.081076  0  4.01233  0
C  C46  1  0.77243504  0.37518461  0.28165133  1  0  -0.05301  0  3.776849  0  0  -0.080877  0  4.027807  0  0  -0.07865  0  4.048484  0  0  -0.086284  -0.081229  0  4.011947  0
C  C47  1  0.27243795  0.12481603  0.71835286  1  0  -0.05316  0  3.777349  0  0  -0.080966  0  4.028371  0  0  -0.078742  0  4.049039  0  0  -0.086367  -0.081323  0  4.012513  0
C  C48  1  0.36824266  0.64921368  0.64758561  1  0  -0.146717  0  3.749042  0  0  -0.162732  0  3.994326  0  0  -0.168239  0  4.015934  0  0  -0.09823  -0.15933  0  3.978947  0
C  C49  1  0.86823533  0.85077394  0.35240617  1  0  -0.147004  0  3.749898  0  0  -0.163011  0  3.995211  0  0  -0.168524  0  4.016824  0  0  -0.098433  -0.159606  0  3.979829  0
C  C50  1  0.63177584  0.35077828  0.35241503  1  0  -0.147  0  3.749783  0  0  -0.163013  0  3.995138  0  0  -0.168522  0  4.016752  0  0  -0.098406  -0.159613  0  3.979753  0
C  C51  1  0.13178493  0.14921920  0.64759260  1  0  -0.146747  0  3.749308  0  0  -0.162782  0  3.994612  0  0  -0.168289  0  4.01622  0  0  -0.09832  -0.159381  0  3.979228  0
C  C52  1  0.58492112  0.57460747  0.63653455  1  0  0.144515  0  3.759197  0  0  0.172443  0  3.989568  0  0  0.174877  0  4.0141  0  0  -0.007774  0.170671  0  3.972995  0
C  C53  1  0.08484955  0.92538677  0.36345116  1  0  0.144877  0  3.759492  0  0  0.172625  0  3.989989  0  0  0.175062  0  4.01452  0  0  -0.007693  0.170851  0  3.973422  0
C  C54  1  0.41512545  0.42538102  0.36346597  1  0  0.144906  0  3.759255  0  0  0.172648  0  3.989785  0  0  0.175082  0  4.014319  0  0  -0.007644  0.170878  0  3.973209  0
C  C55  1  0.91510406  0.07461898  0.63655122  1  0  0.144658  0  3.759326  0  0  0.172491  0  3.989794  0  0  0.174929  0  4.014317  0  0  -0.007728  0.17072  0  3.973218  0
C  C56  1  0.73447757  0.59988912  0.55955789  1  0  -0.337568  0  3.7277  0  0  -0.419724  0  3.960511  0  0  -0.421699  0  3.969504  0  0  -0.240323  -0.417642  0  3.954692  0
C  C57  1  0.23444164  0.90010114  0.44043109  1  0  -0.337766  0  3.727536  0  0  -0.41974  0  3.960353  0  0  -0.42171  0  3.969361  0  0  -0.240191  -0.417642  0  3.954545  0
C  C58  1  0.26555146  0.40011211  0.44043986  1  0  -0.337766  0  3.727596  0  0  -0.419715  0  3.960357  0  0  -0.421691  0  3.969368  0  0  -0.240182  -0.417614  0  3.954546  0
C  C59  1  0.76555758  0.09989886  0.55957045  1  0  -0.337843  0  3.727988  0  0  -0.419854  0  3.960783  0  0  -0.421833  0  3.969786  0  0  -0.240241  -0.417754  0  3.954974  0
S  S60  1  0.13291405  0.50435568  0.87306423  1  0  1.31141  0  5.561543  0  0  1.212644  0  6.060977  0  0  1.261415  0  6.042728  0  0  0.513779  1.178205  0  6.072947  0
S  S61  1  0.63288687  0.99563894  0.12693454  1  0  1.311455  0  5.561478  0  0  1.212745  0  6.060863  0  0  1.261523  0  6.0426  0  0  0.513823  1.178305  0  6.072838  0
S  S62  1  0.86708868  0.49563993  0.12692632  1  0  1.311313  0  5.562139  0  0  1.212572  0  6.061498  0  0  1.261348  0  6.043238  0  0  0.513756  1.17814  0  6.073464  0
S  S63  1  0.36709130  0.00436430  0.87307796  1  0  1.311231  0  5.562255  0  0  1.212508  0  6.061649  0  0  1.261283  0  6.043396  0  0  0.513731  1.178078  0  6.07361  0
O  O64  1  0.97804102  0.63953227  0.88148801  1  0  -0.681138  0  2.070914  0  0  -0.620048  0  2.361101  0  0  -0.644961  0  2.344015  0  0  -0.333791  -0.602192  0  2.373134  0
O  O65  1  0.47802185  0.86046765  0.11852126  1  0  -0.681121  0  2.071123  0  0  -0.620047  0  2.361337  0  0  -0.644961  0  2.34425  0  0  -0.33375  -0.602186  0  2.373369  0
O  O66  1  0.02194942  0.36046328  0.11850573  1  0  -0.681118  0  2.071208  0  0  -0.620032  0  2.361399  0  0  -0.64495  0  2.34431  0  0  -0.333715  -0.602176  0  2.373426  0
O  O67  1  0.52196860  0.13953100  0.88149044  1  0  -0.681184  0  2.071232  0  0  -0.620096  0  2.36145  0  0  -0.645008  0  2.344363  0  0  -0.333763  -0.602236  0  2.373475  0
O  O68  1  0.00697853  0.35670114  0.86023009  1  0  -0.654395  0  2.052477  0  0  -0.584346  0  2.329452  0  0  -0.611565  0  2.316502  0  0  -0.332104  -0.564941  0  2.338608  0
O  O69  1  0.50695799  0.14330705  0.13977048  1  0  -0.654397  0  2.052288  0  0  -0.584361  0  2.329264  0  0  -0.611599  0  2.316365  0  0  -0.332107  -0.564963  0  2.338445  0
O  O70  1  0.99302244  0.64328739  0.13976916  1  0  -0.654322  0  2.052569  0  0  -0.584354  0  2.329639  0  0  -0.611574  0  2.316691  0  0  -0.33213  -0.564935  0  2.338765  0
O  O71  1  0.49301492  0.85671129  0.86023614  1  0  -0.654189  0  2.052756  0  0  -0.584155  0  2.329714  0  0  -0.611375  0  2.316764  0  0  -0.332037  -0.564737  0  2.338833  0
O  O72  1  0.30196452  0.50016930  0.94547940  1  0  -0.724418  0  2.183917  0  0  -0.649175  0  2.498426  0  0  -0.676967  0  2.477369  0  0  -0.350931  -0.628454  0  2.512245  0
O  O73  1  0.80192668  0.99982366  0.05451112  1  0  -0.724453  0  2.183878  0  0  -0.649274  0  2.498408  0  0  -0.677064  0  2.477349  0  0  -0.351012  -0.628549  0  2.512225  0
O  O74  1  0.69805223  0.49983667  0.05451214  1  0  -0.72432  0  2.184006  0  0  -0.649194  0  2.498591  0  0  -0.676995  0  2.477541  0  0  -0.350979  -0.628472  0  2.5124  0
O  O75  1  0.19804272  0.00018556  0.94549010  1  0  -0.724382  0  2.184156  0  0  -0.649188  0  2.498679  0  0  -0.676986  0  2.477628  0  0  -0.350934  -0.62847  0  2.512492  0
