# generated using pymatgen
data_CdH21C17(SN4)2
_symmetry_space_group_name_H-M   'P 1'
_cell_length_a   8.59183203
_cell_length_b   8.77482511
_cell_length_c   14.63778745
_cell_angle_alpha   105.75190128
_cell_angle_beta   103.44522880
_cell_angle_gamma   91.92938865
_symmetry_Int_Tables_number   1
_chemical_formula_structural   CdH21C17(SN4)2
_chemical_formula_sum   'Cd2 H42 C34 S4 N16'
_cell_volume   1027.47909335
_cell_formula_units_Z   2
loop_
 _symmetry_equiv_pos_site_id
 _symmetry_equiv_pos_as_xyz
  1  'x, y, z'
loop_
 _atom_site_type_symbol
 _atom_site_label
 _atom_site_symmetry_multiplicity
 _atom_site_fract_x
 _atom_site_fract_y
 _atom_site_fract_z
 _atom_site_occupancy
 _atom_site_hle17_bader_spin_density
 _atom_site_hle17_ddec_charge
 _atom_site_hle17_ddec_spin_density
 _atom_site_hle17_ddec_sum_bond_order
 _atom_site_hle17_magmom
 _atom_site_hse06_10hf_bader_spin_density
 _atom_site_hse06_10hf_ddec_charge
 _atom_site_hse06_10hf_ddec_spin_density
 _atom_site_hse06_10hf_ddec_sum_bond_order
 _atom_site_hse06_10hf_magmom
 _atom_site_hse06_bader_spin_density
 _atom_site_hse06_ddec_charge
 _atom_site_hse06_ddec_spin_density
 _atom_site_hse06_ddec_sum_bond_order
 _atom_site_hse06_magmom
 _atom_site_pbe_bader_spin_density
 _atom_site_pbe_cm5_charge
 _atom_site_pbe_ddec_charge
 _atom_site_pbe_ddec_spin_density
 _atom_site_pbe_ddec_sum_bond_order
 _atom_site_pbe_magmom
Cd  Cd0  1  0.92615106  0.05931435  0.69327977  1  0  1.005156  0  1.957927  0  0  0.812897  0  2.42745  0  0  0.859239  0  2.387514  0  0  0.765253  0.780645  0  2.454332  0
Cd  Cd1  1  0.07384654  0.94068295  0.30671690  1  0  1.005186  0  1.957777  0  0  0.81294  0  2.427274  0  0  0.859283  0  2.387337  0  0  0.765303  0.780693  0  2.45416  0
H  H2  1  0.80288369  0.40814989  0.79638267  1  0  0.092099  0  0.969651  0  0  0.099098  0  1.04171  0  0  0.101271  0  1.03911  0  0  0.123298  0.097458  0  1.043612  0
H  H3  1  0.19711187  0.59185096  0.20361567  1  0  0.09209  0  0.9696  0  0  0.099076  0  1.041672  0  0  0.10125  0  1.039071  0  0  0.123287  0.097438  0  1.043574  0
H  H4  1  0.66562136  0.53577764  0.53279874  1  0  0.104098  0  0.993879  0  0  0.110331  0  1.066109  0  0  0.113474  0  1.064023  0  0  0.108565  0.10803  0  1.067733  0
H  H5  1  0.33438041  0.46422564  0.46720015  1  0  0.104114  0  0.993809  0  0  0.110348  0  1.066049  0  0  0.113495  0  1.063965  0  0  0.108569  0.108047  0  1.067673  0
H  H6  1  0.79991735  0.24458996  0.49743062  1  0  0.097054  0  0.973265  0  0  0.108149  0  1.033503  0  0  0.109716  0  1.033383  0  0  0.110807  0.10697  0  1.03372  0
H  H7  1  0.20008443  0.75541333  0.50256896  1  0  0.097058  0  0.973276  0  0  0.108159  0  1.033503  0  0  0.109724  0  1.033382  0  0  0.110817  0.10698  0  1.03372  0
H  H8  1  0.08285347  0.70621366  0.61250840  1  0  0.086417  0  0.951893  0  0  0.094615  0  1.02257  0  0  0.097026  0  1.019266  0  0  0.130366  0.092839  0  1.024894  0
H  H9  1  0.91714893  0.29378368  0.38749098  1  0  0.086427  0  0.951857  0  0  0.094628  0  1.022537  0  0  0.097039  0  1.019233  0  0  0.130354  0.092852  0  1.024861  0
H  H10  1  0.12472912  0.59891302  0.88181477  1  0  0.109434  0  0.998515  0  0  0.113568  0  1.071568  0  0  0.116246  0  1.070345  0  0  0.110561  0.111586  0  1.072593  0
H  H11  1  0.87527004  0.40108786  0.11818543  1  0  0.109438  0  0.998541  0  0  0.113582  0  1.071575  0  0  0.116272  0  1.070316  0  0  0.110553  0.111594  0  1.072618  0
H  H12  1  0.99064028  0.88550548  0.89017508  1  0  0.096814  0  0.94735  0  0  0.10971  0  1.003681  0  0  0.111896  0  1.002716  0  0  0.115201  0.108114  0  1.004478  0
H  H13  1  0.00935875  0.11449422  0.10982286  1  0  0.096802  0  0.947335  0  0  0.109697  0  1.003666  0  0  0.111883  0  1.002702  0  0  0.115196  0.108102  0  1.004461  0
H  H14  1  0.69146837  0.75391514  0.71219045  1  0  0.080369  0  0.947143  0  0  0.092036  0  1.015456  0  0  0.09251  0  1.01602  0  0  0.104672  0.091631  0  1.015133  0
H  H15  1  0.30852946  0.24608454  0.28780664  1  0  0.080419  0  0.9471  0  0  0.092085  0  1.015407  0  0  0.09256  0  1.015975  0  0  0.104668  0.09168  0  1.015084  0
H  H16  1  0.69500654  0.66707799  0.80869567  1  0  0.068643  0  0.954765  0  0  0.079635  0  1.029506  0  0  0.08063  0  1.029285  0  0  0.101701  0.078819  0  1.029792  0
H  H17  1  0.30499033  0.33292406  0.19130167  1  0  0.06868  0  0.954812  0  0  0.079664  0  1.029541  0  0  0.080661  0  1.029321  0  0  0.101712  0.078848  0  1.029828  0
H  H18  1  0.41752184  0.60830602  0.62347236  1  0  0.063852  0  0.947924  0  0  0.086221  0  1.006215  0  0  0.086054  0  1.007731  0  0  0.089206  0.086266  0  1.005236  0
H  H19  1  0.58247133  0.39169482  0.37652771  1  0  0.063871  0  0.947931  0  0  0.086242  0  1.006232  0  0  0.086075  0  1.007747  0  0  0.089209  0.086285  0  1.005256  0
H  H20  1  0.42407885  0.74666647  0.73679217  1  0  0.072337  0  0.946796  0  0  0.089522  0  1.008815  0  0  0.08981  0  1.010444  0  0  0.090906  0.089209  0  1.007806  0
H  H21  1  0.57591802  0.25333558  0.26320722  1  0  0.072324  0  0.946777  0  0  0.089509  0  1.008814  0  0  0.089794  0  1.010445  0  0  0.090906  0.089197  0  1.007801  0
H  H22  1  0.42766837  0.52679682  0.81653553  1  0  0.075884  0  0.926188  0  0  0.096686  0  0.982291  0  0  0.097408  0  0.982903  0  0  0.090587  0.09605  0  0.982037  0
H  H23  1  0.57233113  0.47320764  0.18346529  1  0  0.07587  0  0.926145  0  0  0.096656  0  0.982276  0  0  0.097374  0  0.982891  0  0  0.09059  0.096021  0  0.98202  0
H  H24  1  0.43571586  0.38548050  0.70642425  1  0  0.077942  0  0.94733  0  0  0.093055  0  1.014135  0  0  0.09327  0  1.016  0  0  0.091584  0.092822  0  1.012931  0
H  H25  1  0.56428603  0.61452397  0.29357690  1  0  0.077938  0  0.947313  0  0  0.093063  0  1.014098  0  0  0.093278  0  1.015962  0  0  0.091587  0.09283  0  1.012894  0
H  H26  1  0.16851713  0.43568660  0.62068119  1  0  0.068926  0  0.930716  0  0  0.083724  0  0.996971  0  0  0.084171  0  0.997211  0  0  0.104435  0.083299  0  0.996924  0
H  H27  1  0.83148288  0.56431072  0.37931923  1  0  0.068916  0  0.930709  0  0  0.083719  0  0.996968  0  0  0.084166  0  0.997208  0  0  0.104428  0.083296  0  0.99692  0
H  H28  1  0.16069860  0.37527105  0.72559504  1  0  0.085425  0  0.945822  0  0  0.096526  0  1.014459  0  0  0.096615  0  1.015544  0  0  0.109251  0.096355  0  1.013814  0
H  H29  1  0.83930152  0.62472746  0.27440559  1  0  0.085446  0  0.945828  0  0  0.096549  0  1.014457  0  0  0.096637  0  1.015545  0  0  0.109252  0.096379  0  1.013811  0
H  H30  1  0.82585266  0.15010128  0.91580423  1  0  0.092815  0  0.945048  0  0  0.101995  0  1.010115  0  0  0.104173  0  1.007657  0  0  0.131238  0.100373  0  1.01188  0
H  H31  1  0.17415380  0.84990086  0.08419785  1  0  0.092736  0  0.945093  0  0  0.10195  0  1.010125  0  0  0.104131  0  1.007662  0  0  0.131208  0.100329  0  1.011889  0
H  H32  1  0.32897358  0.11029780  0.77867832  1  0  0.123949  0  0.972551  0  0  0.130063  0  1.039309  0  0  0.132617  0  1.038295  0  0  0.119049  0.1282  0  1.040149  0
H  H33  1  0.67102991  0.88969837  0.22132238  1  0  0.124007  0  0.972403  0  0  0.130075  0  1.039215  0  0  0.132629  0  1.038202  0  0  0.119039  0.128212  0  1.040059  0
H  H34  1  0.50042705  0.01072476  0.63639711  1  0  0.09784  0  0.977458  0  0  0.104592  0  1.045669  0  0  0.10692  0  1.044912  0  0  0.105641  0.102888  0  1.046309  0
H  H35  1  0.49958124  0.98927145  0.36360561  1  0  0.097946  0  0.977397  0  0  0.104653  0  1.04563  0  0  0.106964  0  1.04489  0  0  0.105665  0.102972  0  1.046252  0
H  H36  1  0.45908689  0.30039650  0.97045433  1  0  0.069638  0  0.981287  0  0  0.07888  0  1.056228  0  0  0.079999  0  1.055584  0  0  0.093999  0.077976  0  1.056779  0
H  H37  1  0.54091945  0.69960444  0.02954616  1  0  0.069724  0  0.981209  0  0  0.078894  0  1.056225  0  0  0.080018  0  1.055575  0  0  0.094025  0.077989  0  1.056776  0
H  H38  1  0.64849042  0.24735682  0.02386102  1  0  0.060041  0  0.969707  0  0  0.073173  0  1.042564  0  0  0.073498  0  1.04315  0  0  0.1007  0.072855  0  1.042241  0
H  H39  1  0.35151615  0.75264651  0.97614194  1  0  0.05996  0  0.969666  0  0  0.073074  0  1.042579  0  0  0.073399  0  1.043166  0  0  0.100657  0.072756  0  1.042256  0
H  H40  1  0.42115949  0.12305298  0.06742467  1  0  0.072925  0  0.935785  0  0  0.093841  0  0.993012  0  0  0.094388  0  0.993925  0  0  0.092072  0.0934  0  0.992435  0
H  H41  1  0.57884338  0.87694913  0.93257759  1  0  0.07297  0  0.935768  0  0  0.093892  0  0.99296  0  0  0.094441  0  0.99387  0  0  0.092081  0.09345  0  0.992382  0
H  H42  1  0.33266136  0.02544107  0.94272210  1  0  0.071446  0  0.939591  0  0  0.088937  0  1.003368  0  0  0.089047  0  1.005046  0  0  0.089144  0.08878  0  1.002277  0
H  H43  1  0.66734402  0.97456225  0.05727933  1  0  0.071379  0  0.939714  0  0  0.088826  0  1.003522  0  0  0.088935  0  1.005204  0  0  0.089098  0.08867  0  1.002427  0
C  C44  1  0.78280577  0.39907788  0.71904808  1  0  0.168177  0  3.656898  0  0  0.106009  0  3.923761  0  0  0.120088  0  3.936952  0  0  0.138059  0.096936  0  3.914568  0
C  C45  1  0.21718991  0.60092417  0.28095184  1  0  0.168102  0  3.657072  0  0  0.105956  0  3.923935  0  0  0.120032  0  3.937129  0  0  0.13804  0.096882  0  3.914742  0
C  C46  1  0.71150783  0.46314346  0.58029126  1  0  -0.08823  0  3.705691  0  0  -0.129677  0  3.969625  0  0  -0.12841  0  3.98816  0  0  -0.012387  -0.130441  0  3.957224  0
C  C47  1  0.28849240  0.53685624  0.41970616  1  0  -0.088196  0  3.705648  0  0  -0.129645  0  3.969569  0  0  -0.128384  0  3.988107  0  0  -0.01236  -0.130406  0  3.957164  0
C  C48  1  0.78075915  0.32211207  0.56458722  1  0  -0.009533  0  3.778944  0  0  -0.043293  0  4.046714  0  0  -0.041321  0  4.067782  0  0  -0.011855  -0.044563  0  4.032389  0
C  C49  1  0.21924132  0.67789002  0.43541198  1  0  -0.009579  0  3.778942  0  0  -0.043353  0  4.046731  0  0  -0.041379  0  4.067797  0  0  -0.011865  -0.044623  0  4.032402  0
C  C50  1  0.07728419  0.71965805  0.68744255  1  0  0.156791  0  3.688133  0  0  0.095063  0  3.957603  0  0  0.108809  0  3.970741  0  0  0.137493  0.086268  0  3.948308  0
C  C51  1  0.92271701  0.28033928  0.31255667  1  0  0.15686  0  3.688067  0  0  0.095118  0  3.957548  0  0  0.108862  0  3.970689  0  0  0.137537  0.086324  0  3.948252  0
C  C52  1  0.09919399  0.66642217  0.82879435  1  0  -0.069451  0  3.671101  0  0  -0.108672  0  3.932131  0  0  -0.106865  0  3.950266  0  0  -0.002608  -0.109828  0  3.92008  0
C  C53  1  0.90080516  0.33357871  0.17120516  1  0  -0.069508  0  3.671201  0  0  -0.108753  0  3.932254  0  0  -0.10694  0  3.950397  0  0  -0.002638  -0.109909  0  3.920199  0
C  C54  1  0.03237677  0.80743377  0.83151645  1  0  -0.002558  0  3.770239  0  0  -0.037978  0  4.04386  0  0  -0.035976  0  4.063324  0  0  -0.00787  -0.039345  0  4.030738  0
C  C55  1  0.96762358  0.19256712  0.16848254  1  0  -0.002504  0  3.770269  0  0  -0.03792  0  4.043884  0  0  -0.03592  0  4.063355  0  0  -0.007849  -0.039286  0  4.030759  0
C  C56  1  0.64628782  0.64967231  0.72972001  1  0  -0.001663  0  3.612389  0  0  -0.062586  0  3.867063  0  0  -0.058417  0  3.878164  0  0  -0.057712  -0.065271  0  3.859552  0
C  C57  1  0.35370905  0.35032974  0.27027733  1  0  -0.001894  0  3.612675  0  0  -0.062766  0  3.867296  0  0  -0.058609  0  3.878414  0  0  -0.057729  -0.065448  0  3.859784  0
C  C58  1  0.46243565  0.63064250  0.70329208  1  0  -0.127074  0  3.68589  0  0  -0.167344  0  3.944702  0  0  -0.168526  0  3.95836  0  0  -0.166861  -0.166348  0  3.935201  0
C  C59  1  0.53756014  0.36936074  0.29670736  1  0  -0.127025  0  3.68601  0  0  -0.167342  0  3.94484  0  0  -0.168519  0  3.958498  0  0  -0.166868  -0.166347  0  3.935333  0
C  C60  1  0.39017902  0.49946188  0.73602122  1  0  -0.129642  0  3.67502  0  0  -0.17159  0  3.937174  0  0  -0.173078  0  3.95045  0  0  -0.168192  -0.170407  0  3.927922  0
C  C61  1  0.60982145  0.50054020  0.26397936  1  0  -0.129593  0  3.674957  0  0  -0.171526  0  3.937125  0  0  -0.17301  0  3.950395  0  0  -0.168181  -0.170343  0  3.927873  0
C  C62  1  0.20677715  0.47131715  0.70119312  1  0  -0.0  0  3.619195  0  0  -0.060888  0  3.875169  0  0  -0.056717  0  3.887215  0  0  -0.055276  -0.063543  0  3.866905  0
C  C63  1  0.79322309  0.52868255  0.29880704  1  0  -4.3e-05  0  3.61912  0  0  -0.060948  0  3.875118  0  0  -0.056775  0  3.887158  0  0  -0.055299  -0.063602  0  3.86685  0
C  C64  1  0.71518914  0.11992879  0.85810710  1  0  0.147186  0  3.68657  0  0  0.087699  0  3.952636  0  0  0.100605  0  3.966118  0  0  0.131227  0.0794  0  3.943234  0
C  C65  1  0.28481698  0.88006977  0.14189571  1  0  0.147134  0  3.686427  0  0  0.087634  0  3.952493  0  0  0.100537  0  3.965974  0  0  0.131244  0.079338  0  3.943089  0
C  C66  1  0.45623451  0.10057335  0.78488498  1  0  -0.060062  0  3.644857  0  0  -0.096605  0  3.896454  0  0  -0.094993  0  3.914881  0  0  0.000112  -0.097612  0  3.884119  0
C  C67  1  0.54377017  0.89942282  0.21511451  1  0  -0.060109  0  3.64473  0  0  -0.096603  0  3.896317  0  0  -0.094989  0  3.914739  0  0  0.000174  -0.097609  0  3.883988  0
C  C68  1  0.54248979  0.05056713  0.71571674  1  0  -0.008368  0  3.765085  0  0  -0.040264  0  4.030861  0  0  -0.038584  0  4.050494  0  0  -0.011031  -0.041391  0  4.017643  0
C  C69  1  0.45751837  0.94942788  0.28428441  1  0  -0.008611  0  3.765025  0  0  -0.04046  0  4.030833  0  0  -0.038763  0  4.050476  0  0  -0.01109  -0.041607  0  4.017606  0
C  C70  1  0.53302486  0.20080765  0.97037575  1  0  -0.012034  0  3.658793  0  0  -0.075217  0  3.915506  0  0  -0.071103  0  3.926619  0  0  -0.063644  -0.077789  0  3.90785  0
C  C71  1  0.46698028  0.79919328  0.02962595  1  0  -0.012026  0  3.658575  0  0  -0.075143  0  3.915216  0  0  -0.071027  0  3.926324  0  0  -0.063644  -0.077715  0  3.907565  0
C  C72  1  0.44919749  0.06888020  0.99668747  1  0  -0.127535  0  3.689177  0  0  -0.169402  0  3.952432  0  0  -0.170869  0  3.966183  0  0  -0.167899  -0.168252  0  3.942908  0
C  C73  1  0.55081040  0.93112433  0.00331518  1  0  -0.127616  0  3.689259  0  0  -0.169416  0  3.952476  0  0  -0.17088  0  3.966218  0  0  -0.16784  -0.168265  0  3.94295  0
C  C74  1  0.18953001  0.09389077  0.55653840  1  0  0.305662  0  4.01579  0  0  0.288032  0  4.312384  0  0  0.309573  0  4.326794  0  0  0.148008  0.273419  0  4.302308  0
C  C75  1  0.81046373  0.90611602  0.44346339  1  0  0.30561  0  4.015531  0  0  0.287987  0  4.312115  0  0  0.309529  0  4.326526  0  0  0.148077  0.273373  0  4.302043  0
C  C76  1  0.13876447  0.31888504  0.92095784  1  0  0.286742  0  4.082489  0  0  0.271901  0  4.382086  0  0  0.294356  0  4.394583  0  0  0.131444  0.256707  0  4.373177  0
C  C77  1  0.86122860  0.68111463  0.07904680  1  0  0.287114  0  4.082692  0  0  0.272286  0  4.382219  0  0  0.294735  0  4.394714  0  0  0.131692  0.257097  0  4.373318  0
S  S78  1  0.27894049  0.14865437  0.48221539  1  0  -0.360004  0  2.085658  0  0  -0.330426  0  2.403862  0  0  -0.345627  0  2.396789  0  0  -0.151415  -0.31976  0  2.408426  0
S  S79  1  0.72105291  0.85134885  0.51778440  1  0  -0.36002  0  2.085607  0  0  -0.330455  0  2.403834  0  0  -0.345666  0  2.396782  0  0  -0.15145  -0.319787  0  2.408399  0
S  S80  1  0.22321104  0.45142866  0.02371292  1  0  -0.386531  0  2.070398  0  0  -0.36769  0  2.373499  0  0  -0.382698  0  2.36891  0  0  -0.170191  -0.357092  0  2.376377  0
S  S81  1  0.77677846  0.54855906  0.97628315  1  0  -0.386841  0  2.070015  0  0  -0.368005  0  2.373115  0  0  -0.383021  0  2.368524  0  0  -0.170308  -0.357404  0  2.375994  0
N  N82  1  0.82513663  0.28398485  0.65189920  1  0  -0.381526  0  3.261097  0  0  -0.30744  0  3.540904  0  0  -0.328257  0  3.559892  0  0  -0.35763  -0.29319  0  3.527416  0
N  N83  1  0.17486133  0.71601602  0.34809947  1  0  -0.381492  0  3.261245  0  0  -0.307402  0  3.54104  0  0  -0.32822  0  3.560032  0  0  -0.357645  -0.293159  0  3.527573  0
N  N84  1  0.71376231  0.51028204  0.67877980  1  0  -0.05595  0  3.561112  0  0  0.043492  0  3.77093  0  0  0.028461  0  3.797868  0  0  -0.243381  0.053356  0  3.752667  0
N  N85  1  0.28623456  0.48972002  0.32121823  1  0  -0.055826  0  3.561259  0  0  0.043609  0  3.771047  0  0  0.028582  0  3.79799  0  0  -0.243335  0.053474  0  3.752783  0
N  N86  1  0.01908326  0.83910393  0.74280341  1  0  -0.386796  0  3.279703  0  0  -0.315748  0  3.566832  0  0  -0.335661  0  3.584681  0  0  -0.359485  -0.302109  0  3.554123  0
N  N87  1  0.98091936  0.16089579  0.25719502  1  0  -0.386825  0  3.279756  0  0  -0.315765  0  3.566874  0  0  -0.335678  0  3.584727  0  0  -0.359493  -0.302126  0  3.554166  0
N  N88  1  0.12750413  0.61248915  0.73675852  1  0  -0.059068  0  3.558423  0  0  0.038225  0  3.770499  0  0  0.023368  0  3.797067  0  0  -0.245221  0.047984  0  3.752433  0
N  N89  1  0.87249599  0.38750937  0.26324074  1  0  -0.059093  0  3.55834  0  0  0.038224  0  3.770404  0  0  0.023365  0  3.796974  0  0  -0.245178  0.047985  0  3.752336  0
N  N90  1  0.70376947  0.06270560  0.76240780  1  0  -0.39966  0  3.285183  0  0  -0.325408  0  3.563219  0  0  -0.345048  0  3.581595  0  0  -0.364119  -0.311969  0  3.550299  0
N  N91  1  0.29623534  0.93729177  0.23759533  1  0  -0.399498  0  3.284899  0  0  -0.325262  0  3.562967  0  0  -0.3449  0  3.581337  0  0  -0.364069  -0.311823  0  3.550051  0
N  N92  1  0.56787052  0.14460806  0.87459204  1  0  -0.052819  0  3.576452  0  0  0.044971  0  3.788182  0  0  0.030543  0  3.814492  0  0  -0.245704  0.054455  0  3.770283  0
N  N93  1  0.43213571  0.85539169  0.12541030  1  0  -0.052694  0  3.576321  0  0  0.045086  0  3.788042  0  0  0.030656  0  3.814357  0  0  -0.245756  0.05457  0  3.770141  0
N  N94  1  0.12810567  0.05315356  0.61181560  1  0  -0.546618  0  2.860874  0  0  -0.488751  0  3.13369  0  0  -0.509717  0  3.140784  0  0  -0.393609  -0.474467  0  3.128725  0
N  N95  1  0.87189788  0.94685569  0.38818655  1  0  -0.546553  0  2.860657  0  0  -0.488704  0  3.133519  0  0  -0.509673  0  3.140619  0  0  -0.393641  -0.474419  0  3.128553  0
N  N96  1  0.08012450  0.22257168  0.84460367  1  0  -0.572497  0  2.861129  0  0  -0.513614  0  3.135935  0  0  -0.533861  0  3.140597  0  0  -0.408528  -0.499668  0  3.132489  0
N  N97  1  0.91985951  0.77740885  0.15538776  1  0  -0.572614  0  2.86168  0  0  -0.513765  0  3.136539  0  0  -0.534005  0  3.141196  0  0  -0.408695  -0.49983  0  3.133106  0
