# generated using pymatgen
data_AlH11C17NO5
_symmetry_space_group_name_H-M   'P 1'
_cell_length_a   6.67396957
_cell_length_b   23.41935094
_cell_length_c   26.22927050
_cell_angle_alpha   78.44041096
_cell_angle_beta   90.13897130
_cell_angle_gamma   90.11973624
_symmetry_Int_Tables_number   1
_chemical_formula_structural   AlH11C17NO5
_chemical_formula_sum   'Al4 H44 C68 N4 O20'
_cell_volume   4016.46509162
_cell_formula_units_Z   4
loop_
 _symmetry_equiv_pos_site_id
 _symmetry_equiv_pos_as_xyz
  1  'x, y, z'
loop_
 _atom_site_type_symbol
 _atom_site_label
 _atom_site_symmetry_multiplicity
 _atom_site_fract_x
 _atom_site_fract_y
 _atom_site_fract_z
 _atom_site_occupancy
 _atom_site_pbe_bader_charge
 _atom_site_pbe_bader_spin_density
 _atom_site_pbe_cm5_charge
 _atom_site_pbe_ddec_charge
 _atom_site_pbe_ddec_spin_density
 _atom_site_pbe_ddec_sum_bond_order
 _atom_site_pbe_magmom
Al  Al0  1  0.76853127  0.75009533  0.74994137  1  2.501159  0  0.400788  1.645549  0  2.579729  0
Al  Al1  1  0.23313555  0.24999542  0.25013339  1  2.500972  0  0.400486  1.645124  0  2.579128  0
Al  Al2  1  0.26841501  0.74985091  0.74998940  1  2.499206  0  0.400128  1.644855  0  2.580135  0
Al  Al3  1  0.73326499  0.25016621  0.24941408  1  2.500114  0  0.399923  1.641511  0  2.581932  0
H  H4  1  0.29391348  0.37401599  0.34062874  1  0.084289  0  0.104719  0.116004  0  1.005268  0
H  H5  1  0.70498157  0.62595187  0.66029544  1  0.08749  0  0.1047  0.115919  0  1.005437  0
H  H6  1  0.78542918  0.16926044  0.12200842  1  0.082125  0  0.105578  0.116466  0  1.003871  0
H  H7  1  0.20735552  0.83096739  0.87485361  1  0.091532  0  0.105383  0.116877  0  1.004478  0
H  H8  1  0.28784090  0.43926995  0.40530604  1  0.095175  0  0.093498  0.093429  0  1.044297  0
H  H9  1  0.70800870  0.55969845  0.59639388  1  0.080267  0  0.09376  0.093625  0  1.043996  0
H  H10  1  0.76797406  0.10598031  0.05560179  1  0.013687  0  0.093694  0.085784  0  1.037824  0
H  H11  1  0.21450211  0.89304790  0.94204619  1  0.096218  0  0.093549  0.08972  0  1.052934  0
H  H12  1  0.74381136  0.57655904  0.49915253  1  0.03517  0  0.097725  0.098894  0  1.009915  0
H  H13  1  0.25037056  0.42130272  0.50251322  1  0.021048  0  0.097495  0.099041  0  1.01001  0
H  H14  1  0.34948814  0.89882087  0.02455112  1  0.051793  0  0.103603  0.106401  0  0.99464  0
H  H15  1  0.62975485  0.09869600  0.97675820  1  0.042981  0  0.100264  0.10164  0  1.003076  0
H  H16  1  0.13996916  0.46417569  0.92554896  1  0.027661  0  0.103647  0.091328  0  0.986692  0
H  H17  1  0.86728157  0.53595315  0.07428335  1  0.112797  0  0.10427  0.092155  0  0.986117  0
H  H18  1  0.61771329  0.03687595  0.57597332  1  0.088303  0  0.104116  0.092438  0  0.986421  0
H  H19  1  0.38766243  0.96319234  0.42369222  1  0.081078  0  0.104685  0.093078  0  0.985911  0
H  H20  1  0.66324265  0.53714229  0.97870585  1  0.077558  0  0.102303  0.091248  0  0.994381  0
H  H21  1  0.34396757  0.46296501  0.02112726  1  0.091201  0  0.101982  0.091486  0  0.9949  0
H  H22  1  0.16472088  0.95883048  0.51674748  1  0.072572  0  0.10157  0.090711  0  0.995891  0
H  H23  1  0.84045851  0.04122014  0.48292035  1  0.064756  0  0.101899  0.091156  0  0.995431  0
H  H24  1  0.52038548  0.36726405  0.44233085  1  0.440216  0  0.30441  0.296411  0  0.951293  0
H  H25  1  0.63693237  0.41188780  0.47695551  1  0.428899  0  0.296147  0.283231  0  0.980906  0
H  H26  1  0.35705897  0.58579282  0.52354076  1  0.438588  0  0.296628  0.284444  0  0.978238  0
H  H27  1  0.47508864  0.63089712  0.55738370  1  0.443604  0  0.304832  0.297433  0  0.949056  0
H  H28  1  0.99255695  0.06848116  0.11430867  1  0.446274  0  0.298432  0.295544  0  0.971145  0
H  H29  1  0.09387987  0.03879575  0.06620841  1  0.428921  0  0.298045  0.288576  0  0.972279  0
H  H30  1  0.88272354  0.96659805  0.93415303  1  0.450293  0  0.298179  0.290392  0  0.985508  0
H  H31  1  0.99427616  0.93691255  0.88653854  1  0.4408  0  0.306526  0.303916  0  0.953804  0
H  H32  1  0.67100926  0.33519516  0.37035151  1  0.095231  0  0.109115  0.126321  0  0.999198  0
H  H33  1  0.32777986  0.66374141  0.62939185  1  0.074231  0  0.109391  0.126566  0  0.999042  0
H  H34  1  0.17281022  0.12675095  0.16258353  1  0.093204  0  0.110714  0.128468  0  0.995355  0
H  H35  1  0.82924987  0.86915490  0.84303364  1  0.096421  0  0.109298  0.126717  0  0.999654  0
H  H36  1  0.72072782  0.51126283  0.43598079  1  0.092127  0  0.103992  0.109517  0  0.994639  0
H  H37  1  0.27340922  0.48661074  0.56570281  1  0.052365  0  0.103825  0.109159  0  0.994911  0
H  H38  1  0.31782370  0.96599598  0.08529934  1  0.084863  0  0.10429  0.109352  0  1.002501  0
H  H39  1  0.65861184  0.03186075  0.91583826  1  0.052736  0  0.100956  0.100287  0  1.004445  0
H  H40  1  0.79188005  0.42050742  0.98216695  1  0.06845  0  0.103466  0.092134  0  0.988308  0
H  H41  1  0.21539908  0.57958236  0.01767789  1  0.084549  0  0.104324  0.092931  0  0.987003  0
H  H42  1  0.27444845  0.07675341  0.51538914  1  0.080385  0  0.102608  0.089363  0  0.991023  0
H  H43  1  0.73073560  0.92334415  0.48429611  1  0.063259  0  0.10319  0.091619  0  0.989813  0
H  H44  1  0.51784928  0.67479864  0.77352241  1  0.609503  0  0.356926  0.435855  0  0.845486  0
H  H45  1  0.48369401  0.32534427  0.22621962  1  0.594138  0  0.356953  0.435981  0  0.844695  0
H  H46  1  0.02002794  0.82451592  0.72431491  1  0.627452  0  0.355081  0.432795  0  0.849893  0
H  H47  1  0.98105919  0.17559819  0.27580742  1  0.626549  0  0.354982  0.43304  0  0.849514  0
C  C48  1  0.52181401  0.82649786  0.67248056  1  1.673708  0  0.274079  0.719041  0  4.161705  0
C  C49  1  0.47983993  0.17359976  0.32721569  1  1.670838  0  0.274687  0.719953  0  4.160139  0
C  C50  1  0.01533729  0.67358868  0.82733939  1  1.662922  0  0.27475  0.720622  0  4.158299  0
C  C51  1  0.98761660  0.32629769  0.17232780  1  1.673431  0  0.275523  0.722264  0  4.157733  0
C  C52  1  0.51552152  0.81229144  0.81313487  1  1.53781  0  0.266229  0.64134  0  4.094763  0
C  C53  1  0.48583545  0.18731676  0.18697599  1  1.563166  0  0.266274  0.641263  0  4.09352  0
C  C54  1  0.02078936  0.68645740  0.68760119  1  1.56863  0  0.265085  0.6397  0  4.097641  0
C  C55  1  0.97954735  0.31338997  0.31229839  1  1.568214  0  0.26639  0.640672  0  4.095726  0
C  C56  1  0.15793706  0.37957861  0.36202495  1  -0.064061  0  -0.105891  -0.135866  0  4.026772  0
C  C57  1  0.84027620  0.61987085  0.63883099  1  -0.029036  0  -0.105212  -0.133639  0  4.025175  0
C  C58  1  0.64933599  0.14543891  0.11635897  1  0.006097  0  -0.106041  -0.140153  0  4.037952  0
C  C59  1  0.34333684  0.85367074  0.88257636  1  -0.026934  0  -0.10662  -0.13852  0  4.031805  0
C  C60  1  0.15320542  0.41551491  0.39825007  1  -0.047686  0  -0.101303  -0.132024  0  4.048996  0
C  C61  1  0.84333978  0.58339351  0.60303907  1  -0.113599  0  -0.102419  -0.133865  0  4.048937  0
C  C62  1  0.63806572  0.11000672  0.07982687  1  -0.106153  0  -0.102484  -0.134579  0  4.064477  0
C  C63  1  0.34916764  0.88833663  0.91978012  1  -0.092928  0  -0.103457  -0.135292  0  4.058954  0
C  C64  1  0.97836314  0.42320960  0.42583149  1  -0.008106  0  -0.020096  -0.041202  0  3.968783  0
C  C65  1  0.01740134  0.57516432  0.57539057  1  0.030599  0  -0.020398  -0.041512  0  3.968717  0
C  C66  1  0.46588016  0.07734044  0.07336056  1  0.038871  0  -0.020289  -0.042906  0  3.960623  0
C  C67  1  0.52149176  0.91950731  0.92882111  1  -0.056378  0  -0.023358  -0.049547  0  3.96997  0
C  C68  1  0.80145286  0.39321344  0.41625716  1  0.348625  0  0.092617  0.253538  0  4.079783  0
C  C69  1  0.19506081  0.60517694  0.58432566  1  0.380859  0  0.092938  0.255156  0  4.080687  0
C  C70  1  0.29367687  0.08353784  0.10367526  1  0.38352  0  0.09583  0.260233  0  4.073657  0
C  C71  1  0.69980977  0.91184093  0.90134414  1  0.439982  0  0.096928  0.264856  0  4.088183  0
C  C72  1  0.80589141  0.35804693  0.37880097  1  0.029849  0  -0.097988  -0.212092  0  3.936022  0
C  C73  1  0.19233678  0.64084233  0.62139620  1  0.01432  0  -0.097806  -0.212492  0  3.939041  0
C  C74  1  0.30401371  0.12080472  0.13945732  1  0.041163  0  -0.096376  -0.20962  0  3.930665  0
C  C75  1  0.69404953  0.87587687  0.86437332  1  -0.026069  0  -0.099106  -0.216605  0  3.933455  0
C  C76  1  0.98162348  0.35097425  0.35201783  1  -0.055125  0  -0.020612  -0.027461  0  4.025262  0
C  C77  1  0.01739892  0.64840940  0.64829241  1  -0.026995  0  -0.020593  -0.028005  0  4.025178  0
C  C78  1  0.47974435  0.15050286  0.14667514  1  -0.045886  0  -0.019639  -0.024813  0  4.020952  0
C  C79  1  0.51784937  0.84805444  0.85423421  1  -0.01643  0  -0.020668  -0.026022  0  4.029396  0
C  C80  1  0.84080100  0.50515547  0.46484978  1  -0.099647  0  -0.096098  -0.137802  0  4.002177  0
C  C81  1  0.15317112  0.49262844  0.53689109  1  -0.019068  0  -0.095907  -0.13818  0  4.00199  0
C  C82  1  0.39139139  0.98097114  0.04792817  1  -0.076248  0  -0.096624  -0.138091  0  3.99441  0
C  C83  1  0.58859815  0.01642715  0.95366797  1  -0.141474  0  -0.101518  -0.151064  0  4.022004  0
C  C84  1  0.85398132  0.54194638  0.50035765  1  -0.046292  0  -0.095741  -0.133922  0  4.005808  0
C  C85  1  0.14000278  0.45584902  0.50136998  1  -0.035917  0  -0.095346  -0.134044  0  4.006974  0
C  C86  1  0.41055882  0.94283462  0.01374178  1  -0.080718  0  -0.093395  -0.131147  0  3.993582  0
C  C87  1  0.57021278  0.05452184  0.98786331  1  -0.088955  0  -0.097833  -0.137079  0  4.016174  0
C  C88  1  0.00993053  0.53658147  0.53716088  1  -0.040172  0  -0.011765  0.076257  0  4.014327  0
C  C89  1  0.98435927  0.46132471  0.46445504  1  -0.000546  0  -0.013492  0.073779  0  4.017476  0
C  C90  1  0.51032497  0.95938330  0.96584279  1  0.083302  0  -0.012056  0.082344  0  4.008925  0
C  C91  1  0.47217276  0.03771852  0.03605403  1  0.026425  0  -0.015244  0.07149  0  4.014685  0
C  C92  1  0.07971946  0.47952122  0.95912529  1  0.015815  0  -0.066282  -0.070763  0  3.625289  0
C  C93  1  0.92747729  0.52058846  0.04071054  1  -0.065952  0  -0.066153  -0.071796  0  3.622775  0
C  C94  1  0.56690146  0.02115356  0.54157827  1  -0.044182  0  -0.067044  -0.072394  0  3.627559  0
C  C95  1  0.43827352  0.97892661  0.45809301  1  -0.032973  0  -0.06677  -0.071377  0  3.62337  0
C  C96  1  0.88539292  0.45637507  0.98960794  1  -0.025021  0  -0.067286  -0.078541  0  3.629453  0
C  C97  1  0.12179782  0.54373926  0.01021464  1  -0.036093  0  -0.067376  -0.077111  0  3.627453  0
C  C98  1  0.37521574  0.04213356  0.50889061  1  -0.045873  0  -0.06927  -0.077565  0  3.635136  0
C  C99  1  0.62996975  0.95794043  0.49079118  1  -0.019555  0  -0.068908  -0.080596  0  3.63398  0
C  C100  1  0.98785050  0.37153014  0.12621169  1  0.052495  0  -0.049504  -0.21617  0  3.99302  0
C  C101  1  0.01624064  0.62835641  0.87345286  1  0.225939  0  -0.047975  -0.2134  0  3.993211  0
C  C102  1  0.48494047  0.12840480  0.37340278  1  0.232239  0  -0.04862  -0.213267  0  3.991327  0
C  C103  1  0.51829126  0.87170063  0.62628982  1  0.063542  0  -0.049673  -0.213784  0  3.993954  0
C  C104  1  0.19322663  0.47996554  0.01123673  1  -0.041125  0  -0.071829  -0.084089  0  3.638515  0
C  C105  1  0.81392516  0.52013455  0.98860571  1  -0.032493  0  -0.071144  -0.080703  0  3.634273  0
C  C106  1  0.69076556  0.02246567  0.49083876  1  -0.02164  0  -0.071422  -0.082686  0  3.633938  0
C  C107  1  0.31441242  0.97762050  0.50882667  1  -0.028025  0  -0.070406  -0.081767  0  3.633061  0
C  C108  1  0.99919640  0.45558713  0.04292947  1  0.104784  0  0.007485  0.121001  0  3.79842  0
C  C109  1  0.00790142  0.54451109  0.95690400  1  0.10801  0  0.008003  0.120525  0  3.799346  0
C  C110  1  0.49901749  0.04473754  0.45697291  1  0.122026  0  0.007358  0.121094  0  3.79855  0
C  C111  1  0.50605414  0.95535875  0.54269673  1  0.110891  0  0.008803  0.123285  0  3.797189  0
C  C112  1  0.99210669  0.41029119  0.08752578  1  -0.341012  0  -0.027844  -0.038485  0  4.091843  0
C  C113  1  0.01395983  0.58971381  0.91223351  1  -0.512262  0  -0.028643  -0.039992  0  4.094202  0
C  C114  1  0.49184796  0.08985146  0.41222790  1  -0.523955  0  -0.029777  -0.042089  0  4.094382  0
C  C115  1  0.51263181  0.91023791  0.58744308  1  -0.355543  0  -0.030078  -0.043061  0  4.095167  0
N  N116  1  0.62399125  0.39901752  0.44238049  1  -1.22587  0  -0.597929  -0.624698  0  3.374492  0
N  N117  1  0.37162173  0.59897333  0.55794280  1  -1.249024  0  -0.59914  -0.628142  0  3.368787  0
N  N118  1  0.11767200  0.05311991  0.09974598  1  -1.246029  0  -0.601329  -0.626404  0  3.343277  0
N  N119  1  0.88021921  0.93587867  0.91205789  1  -1.257708  0  -0.599072  -0.626033  0  3.381652  0
O  O120  1  0.34479248  0.79514635  0.80023288  1  -1.246131  0  -0.237621  -0.594096  0  2.350662  0
O  O121  1  0.65718536  0.20539487  0.19845018  1  -1.251333  0  -0.237342  -0.591884  0  2.340016  0
O  O122  1  0.85273178  0.69750654  0.70651627  1  -1.261276  0  -0.239375  -0.599755  0  2.353421  0
O  O123  1  0.14788909  0.30294908  0.29311981  1  -1.262424  0  -0.239942  -0.600448  0  2.348269  0
O  O124  1  0.69276461  0.80622465  0.68838844  1  -1.239922  0  -0.228935  -0.58225  0  2.278634  0
O  O125  1  0.30872948  0.19445887  0.31211001  1  -1.239847  0  -0.229711  -0.582774  0  2.276608  0
O  O126  1  0.18449055  0.68863371  0.80642306  1  -1.239361  0  -0.228483  -0.585539  0  2.284988  0
O  O127  1  0.81829958  0.31159664  0.19330999  1  -1.242776  0  -0.229111  -0.586003  0  2.284447  0
O  O128  1  0.68344467  0.80240480  0.79344400  1  -1.2545  0  -0.24038  -0.600879  0  2.347571  0
O  O129  1  0.31947942  0.19693020  0.20752571  1  -1.268512  0  -0.23931  -0.600725  0  2.354742  0
O  O130  1  0.19159341  0.70426502  0.69981082  1  -1.258954  0  -0.238928  -0.596341  0  2.34953  0
O  O131  1  0.80931326  0.29527782  0.30004401  1  -1.257358  0  -0.239346  -0.59618  0  2.351302  0
O  O132  1  0.84488379  0.69418342  0.81125882  1  -1.23487  0  -0.228548  -0.581845  0  2.278945  0
O  O133  1  0.15762852  0.30533189  0.18837499  1  -1.238965  0  -0.228804  -0.582691  0  2.279532  0
O  O134  1  0.35302446  0.81121979  0.69349120  1  -1.237851  0  -0.228678  -0.584374  0  2.28549  0
O  O135  1  0.64760260  0.18832240  0.30535213  1  -1.242869  0  -0.228739  -0.585133  0  2.286385  0
O  O136  1  0.51843452  0.71451554  0.75385061  1  -1.411323  0  -0.448487  -0.993714  0  2.195881  0
O  O137  1  0.48335717  0.28558198  0.24580407  1  -1.395543  0  -0.448263  -0.993009  0  2.195616  0
O  O138  1  0.01876424  0.78562996  0.74569852  1  -1.429271  0  -0.448237  -0.991895  0  2.194091  0
O  O139  1  0.98292088  0.21430038  0.25406065  1  -1.428439  0  -0.447964  -0.99092  0  2.191004  0
