# generated using pymatgen
data_Zn2H36C41(N2O3)4
_symmetry_space_group_name_H-M   'P 1'
_cell_length_a   9.11906473
_cell_length_b   13.68554304
_cell_length_c   20.53036806
_cell_angle_alpha   86.09750700
_cell_angle_beta   78.21061819
_cell_angle_gamma   70.55596887
_symmetry_Int_Tables_number   1
_chemical_formula_structural   Zn2H36C41(N2O3)4
_chemical_formula_sum   'Zn4 H72 C82 N16 O24'
_cell_volume   2365.08243759
_cell_formula_units_Z   2
loop_
 _symmetry_equiv_pos_site_id
 _symmetry_equiv_pos_as_xyz
  1  'x, y, z'
loop_
 _atom_site_type_symbol
 _atom_site_label
 _atom_site_symmetry_multiplicity
 _atom_site_fract_x
 _atom_site_fract_y
 _atom_site_fract_z
 _atom_site_occupancy
 _atom_site_pbe_bader_charge
 _atom_site_pbe_bader_spin_density
 _atom_site_pbe_cm5_charge
 _atom_site_pbe_ddec_charge
 _atom_site_pbe_ddec_spin_density
 _atom_site_pbe_ddec_sum_bond_order
 _atom_site_pbe_magmom
Zn  Zn0  1  0.35262730  0.75767386  0.51360509  1  1.250673  0  0.697798  0.764175  0  2.360853  0
Zn  Zn1  1  0.88961340  0.75764119  0.98639505  1  1.252265  0  0.69714  0.762475  0  2.361269  0
Zn  Zn2  1  0.64737653  0.24232675  0.48639273  1  1.25057  0  0.697763  0.764126  0  2.360839  0
Zn  Zn3  1  0.11038786  0.24235788  0.01360551  1  1.252286  0  0.697169  0.762503  0  2.361277  0
H  H4  1  0.97091728  0.30546330  0.82840557  1  0.098477  0  0.111726  0.091127  0  0.99657  0
H  H5  1  0.99768188  0.38565081  0.75722737  1  0.07657  0  0.108744  0.084653  0  0.976963  0
H  H6  1  0.21781118  0.50321413  0.55279106  1  0.062507  0  0.097608  0.109442  0  1.032561  0
H  H7  1  0.61733519  0.66521906  0.31126810  1  0.068473  0  0.097739  0.103784  0  1.021441  0
H  H8  1  0.03147585  0.41172161  0.87792383  1  0.130783  0  0.110693  0.134888  0  1.043734  0
H  H9  1  0.61070276  0.74993812  0.91726152  1  0.091909  0  0.119225  0.089339  0  0.976785  0
H  H10  1  0.57108892  0.61851563  0.85018266  1  0.099827  0  0.118383  0.142794  0  0.973082  0
H  H11  1  0.84334901  0.01227409  0.63307405  1  0.088277  0  0.11088  0.137679  0  1.012543  0
H  H12  1  0.01789883  0.85729584  0.56434210  1  0.148995  0  0.11596  0.094699  0  1.035522  0
H  H13  1  0.26242248  0.09788007  0.62841826  1  0.078979  0  0.1088  0.126823  0  1.043835  0
H  H14  1  0.41617725  0.94253181  0.55960405  1  0.120677  0  0.117591  0.088677  0  1.001935  0
H  H15  1  0.04457493  0.26470614  0.66134968  1  0.103837  0  0.10415  0.085974  0  1.031374  0
H  H16  1  0.09579884  0.17438128  0.72762551  1  0.067385  0  0.105735  0.081331  0  1.000797  0
H  H17  1  0.05060598  0.55163521  0.94249178  1  0.145789  0  0.115927  0.089808  0  1.051008  0
H  H18  1  0.84035062  0.74508257  0.45061312  1  0.481607  0  0.284725  0.289154  0  1.018388  0
H  H19  1  0.71493277  0.68194101  0.43359145  1  0.432171  0  0.284377  0.282745  0  1.005589  0
H  H20  1  0.42640788  0.01372616  0.36759619  1  0.472566  0  0.289849  0.299018  0  1.006404  0
H  H21  1  0.48452882  0.07808196  0.29694849  1  0.432433  0  0.297161  0.284745  0  0.966481  0
H  H22  1  0.72342298  0.30546397  0.67147857  1  0.091429  0  0.111883  0.09095  0  0.996462  0
H  H23  1  0.61677046  0.38581173  0.74261482  1  0.058517  0  0.108813  0.084403  0  0.977098  0
H  H24  1  0.27912456  0.50296924  0.94718341  1  0.069928  0  0.097733  0.109379  0  1.033373  0
H  H25  1  0.71679592  0.66523369  0.18871575  1  0.073972  0  0.097731  0.103856  0  1.02124  0
H  H26  1  0.55690422  0.41172045  0.62184291  1  0.123217  0  0.110667  0.135305  0  1.043533  0
H  H27  1  0.63937747  0.75008987  0.58270401  1  0.089521  0  0.119421  0.089814  0  0.975947  0
H  H28  1  0.81044150  0.61859834  0.64971419  1  0.11861  0  0.118106  0.141591  0  0.972886  0
H  H29  1  0.14359154  0.01261182  0.86688713  1  0.105206  0  0.11144  0.138596  0  1.010764  0
H  H30  1  0.12420865  0.85760020  0.93565435  1  0.149208  0  0.11614  0.095363  0  1.036816  0
H  H31  1  0.63903314  0.09789132  0.87161668  1  0.119997  0  0.109005  0.126778  0  1.043299  0
H  H32  1  0.64074909  0.94257115  0.94050298  1  0.124811  0  0.117563  0.08873  0  1.000408  0
H  H33  1  0.69022470  0.26501058  0.83849056  1  0.109914  0  0.104371  0.085792  0  1.031655  0
H  H34  1  0.72935978  0.17452437  0.77229665  1  0.084123  0  0.10535  0.08046  0  1.003068  0
H  H35  1  0.39790793  0.55167862  0.55731214  1  0.15389  0  0.116227  0.090545  0  1.05225  0
H  H36  1  0.41455809  0.74513834  0.04926979  1  0.489683  0  0.28426  0.288405  0  1.018049  0
H  H37  1  0.60297322  0.68203674  0.06639049  1  0.443527  0  0.284212  0.282697  0  1.00564  0
H  H38  1  0.55992571  0.01377506  0.13244016  1  0.471483  0  0.290062  0.298752  0  1.006674  0
H  H39  1  0.43738305  0.07809400  0.20306741  1  0.42601  0  0.296893  0.283717  0  0.966665  0
H  H40  1  0.02908699  0.69453422  0.17159430  1  0.098497  0  0.111744  0.091143  0  0.996603  0
H  H41  1  0.00231826  0.61434826  0.24277330  1  0.076562  0  0.108758  0.084671  0  0.976934  0
H  H42  1  0.78219262  0.49678881  0.44720812  1  0.062519  0  0.097632  0.109465  0  1.032583  0
H  H43  1  0.38266787  0.33478311  0.68873070  1  0.068397  0  0.097741  0.103786  0  1.021363  0
H  H44  1  0.96852429  0.58827746  0.12207733  1  0.130808  0  0.110703  0.134885  0  1.043713  0
H  H45  1  0.38929664  0.25006017  0.08273974  1  0.091963  0  0.119238  0.089397  0  0.976669  0
H  H46  1  0.42891345  0.38148344  0.14981732  1  0.099811  0  0.118406  0.142813  0  0.973018  0
H  H47  1  0.15665035  0.98772652  0.36692613  1  0.08825  0  0.110889  0.137685  0  1.012563  0
H  H48  1  0.98210091  0.14270400  0.43565760  1  0.148843  0  0.115962  0.094697  0  1.035532  0
H  H49  1  0.73757877  0.90211900  0.37158133  1  0.078966  0  0.108801  0.126829  0  1.04384  0
H  H50  1  0.58382137  0.05746803  0.44039477  1  0.120909  0  0.117573  0.088681  0  1.001887  0
H  H51  1  0.95542594  0.73529370  0.33865039  1  0.103836  0  0.104147  0.085967  0  1.031396  0
H  H52  1  0.90420279  0.82561701  0.27237408  1  0.067392  0  0.105739  0.081346  0  1.000793  0
H  H53  1  0.94939197  0.44836153  0.05751212  1  0.146083  0  0.115945  0.089825  0  1.051049  0
H  H54  1  0.15964870  0.25492037  0.54938647  1  0.481605  0  0.28466  0.28901  0  1.018479  0
H  H55  1  0.28506922  0.31805883  0.56640901  1  0.432156  0  0.284381  0.282769  0  1.005549  0
H  H56  1  0.57358660  0.98627523  0.63240148  1  0.472544  0  0.289831  0.29897  0  1.006455  0
H  H57  1  0.51546829  0.92191865  0.70304897  1  0.432452  0  0.297182  0.284712  0  0.96656  0
H  H58  1  0.27657827  0.69453510  0.32852151  1  0.091428  0  0.111881  0.090951  0  0.996462  0
H  H59  1  0.38322894  0.61418656  0.25738595  1  0.058535  0  0.108761  0.084361  0  0.977173  0
H  H60  1  0.72087518  0.49703060  0.05281482  1  0.069933  0  0.097752  0.109392  0  1.033387  0
H  H61  1  0.28320714  0.33476848  0.81128304  1  0.073958  0  0.097724  0.103857  0  1.021303  0
H  H62  1  0.44309514  0.58828017  0.37815727  1  0.123193  0  0.110649  0.135282  0  1.043556  0
H  H63  1  0.36061815  0.24991152  0.41729648  1  0.089497  0  0.119408  0.089819  0  0.975952  0
H  H64  1  0.18955485  0.38140382  0.35028620  1  0.118585  0  0.118106  0.141577  0  0.972875  0
H  H65  1  0.85640221  0.98738879  0.13311211  1  0.105126  0  0.111427  0.138611  0  1.01075  0
H  H66  1  0.87578921  0.14240119  0.06434740  1  0.149192  0  0.116152  0.095408  0  1.036836  0
H  H67  1  0.36096329  0.90210620  0.12838342  1  0.120005  0  0.108991  0.126757  0  1.043239  0
H  H68  1  0.35924692  0.05742947  0.05949897  1  0.124869  0  0.117565  0.088775  0  1.000409  0
H  H69  1  0.30977354  0.73499003  0.16150973  1  0.109926  0  0.104355  0.085759  0  1.031645  0
H  H70  1  0.27063996  0.82547547  0.22770304  1  0.084122  0  0.105362  0.080467  0  1.003075  0
H  H71  1  0.60209031  0.44832200  0.44268815  1  0.154126  0  0.116244  0.090602  0  1.052227  0
H  H72  1  0.58544429  0.25486073  0.95073164  1  0.489637  0  0.284267  0.288426  0  1.018056  0
H  H73  1  0.39702958  0.31795923  0.93360910  1  0.443533  0  0.284196  0.282681  0  1.005678  0
H  H74  1  0.44007735  0.98622711  0.86755767  1  0.47153  0  0.290095  0.298831  0  1.006587  0
H  H75  1  0.56261815  0.92190739  0.79693062  1  0.426143  0  0.296908  0.283745  0  0.966669  0
C  C76  1  0.80025286  0.50572173  0.85625278  1  0.478901  0  0.111191  0.312731  0  4.042293  0
C  C77  1  0.91336106  0.35308431  0.78958271  1  0.370003  0  -0.058022  -0.028842  0  3.817405  0
C  C78  1  0.12190108  0.50100080  0.52952303  1  -0.030262  0  -0.110324  -0.21292  0  3.992309  0
C  C79  1  0.08744016  0.68565100  0.49917628  1  1.53647  0  0.198819  0.579303  0  4.209326  0
C  C80  1  0.60284207  0.73769365  0.28388248  1  -0.071556  0  -0.110719  -0.129674  0  4.081067  0
C  C81  1  0.93678927  0.48612343  0.88308484  1  -0.007044  0  -0.100648  -0.259558  0  3.955391  0
C  C82  1  0.70224475  0.67471010  0.90632032  1  0.438021  0  0.043005  0.101139  0  4.001937  0
C  C83  1  0.47548560  0.82992863  0.39334336  1  1.512836  0  0.198893  0.568643  0  4.200481  0
C  C84  1  0.03928283  0.06660311  0.63735371  1  0.514418  0  0.114613  0.32634  0  4.04346  0
C  C85  1  0.03904310  0.59156525  0.49920947  1  -0.033781  0  -0.036735  -0.14337  0  3.988362  0
C  C86  1  0.91192112  0.59170465  0.46887970  1  0.420811  0  0.081934  0.258642  0  4.103794  0
C  C87  1  0.52935602  0.83164461  0.31971383  1  -0.005381  0  -0.037596  -0.15447  0  3.99377  0
C  C88  1  0.68007512  0.60214275  0.86901003  1  0.062047  0  -0.091969  -0.241403  0  3.961071  0
C  C89  1  0.97044613  0.99785206  0.61851238  1  0.067379  0  -0.093785  -0.235164  0  3.934666  0
C  C90  1  0.06647216  0.91149908  0.58150444  1  0.411009  0  0.043262  0.110623  0  3.948549  0
C  C91  1  0.20299924  0.04632602  0.61665885  1  -0.013608  0  -0.102372  -0.255176  0  3.948864  0
C  C92  1  0.28996891  0.95839955  0.57878919  1  0.5008  0  0.044996  0.113748  0  3.976119  0
C  C93  1  0.00002157  0.21814392  0.70148558  1  0.376514  0  -0.064149  -0.03873  0  3.807238  0
C  C94  1  0.94730141  0.56313846  0.92041566  1  0.466716  0  0.044008  0.119617  0  3.941306  0
C  C95  1  0.51126763  0.92660421  0.28534031  1  0.379476  0  0.091544  0.179842  0  4.039512  0
C  C96  1  0.69418812  0.50572343  0.64354259  1  0.47967  0  0.111547  0.313808  0  4.042736  0
C  C97  1  0.73355199  0.35313460  0.71022869  1  0.40244  0  -0.058747  -0.029874  0  3.818417  0
C  C98  1  0.37715566  0.50092764  0.97046273  1  -0.01944  0  -0.110182  -0.212687  0  3.9948  0
C  C99  1  0.22703055  0.68564925  0.00069976  1  1.53235  0  0.198106  0.579492  0  4.207796  0
C  C100  1  0.65897308  0.73770274  0.21611643  1  -0.014155  0  -0.111014  -0.129408  0  4.080721  0
C  C101  1  0.57722144  0.48613620  0.61671394  1  0.009144  0  -0.100808  -0.260307  0  3.956952  0
C  C102  1  0.62313406  0.67480512  0.59358322  1  0.441607  0  0.042415  0.100011  0  4.005098  0
C  C103  1  0.69440283  0.82995262  0.10667121  1  1.520047  0  0.199805  0.570436  0  4.199417  0
C  C104  1  0.89340939  0.06677084  0.86265021  1  0.508918  0  0.115284  0.32777  0  4.040556  0
C  C105  1  0.36939755  0.59153299  0.00075231  1  -0.03504  0  -0.036272  -0.143616  0  3.987129  0
C  C106  1  0.49635308  0.59173403  0.03108121  1  0.408292  0  0.081645  0.259229  0  4.104501  0
C  C107  1  0.63871194  0.83165934  0.18029469  1  0.01069  0  -0.038161  -0.155519  0  3.994764  0
C  C108  1  0.71786082  0.60220180  0.63086430  1  0.02472  0  -0.09163  -0.240561  0  3.961125  0
C  C109  1  0.03100756  0.99807910  0.88146119  1  0.069781  0  -0.094073  -0.236226  0  3.932292  0
C  C110  1  0.02140411  0.91173156  0.91850369  1  0.415529  0  0.042724  0.109095  0  3.951922  0
C  C111  1  0.75003397  0.04639553  0.88335522  1  -0.001409  0  -0.103164  -0.256764  0  3.947704  0
C  C112  1  0.75105795  0.95846392  0.92125788  1  0.439991  0  0.044769  0.113652  0  3.973755  0
C  C113  1  0.78138068  0.21831450  0.79842586  1  0.36005  0  -0.06377  -0.036993  0  3.807817  0
C  C114  1  0.48968494  0.56318760  0.57941560  1  0.434391  0  0.042682  0.117222  0  3.944556  0
C  C115  1  0.56197114  0.92661968  0.21467310  1  0.412879  0  0.091198  0.178422  0  4.039639  0
C  C116  1  0.19974845  0.49427501  0.14374886  1  0.478733  0  0.111124  0.312666  0  4.042252  0
C  C117  1  0.08664170  0.64691398  0.21041727  1  0.370018  0  -0.058084  -0.028916  0  3.817485  0
C  C118  1  0.87810310  0.49900137  0.47047517  1  -0.030469  0  -0.110328  -0.21297  0  3.992448  0
C  C119  1  0.91256066  0.31435117  0.50082273  1  1.536742  0  0.198774  0.579329  0  4.20938  0
C  C120  1  0.39715801  0.26230774  0.71611565  1  -0.071588  0  -0.11068  -0.129592  0  4.080998  0
C  C121  1  0.06321126  0.51387487  0.11691681  1  -0.006789  0  -0.100611  -0.259474  0  3.95524  0
C  C122  1  0.29775393  0.32528741  0.09368152  1  0.437692  0  0.042976  0.101116  0  4.001966  0
C  C123  1  0.52451823  0.17007198  0.60665495  1  1.512876  0  0.198839  0.568516  0  4.200554  0
C  C124  1  0.96071804  0.93339673  0.36264685  1  0.514457  0  0.114618  0.32628  0  4.043389  0
C  C125  1  0.96096034  0.40843614  0.50078883  1  -0.033795  0  -0.036767  -0.143367  0  3.988329  0
C  C126  1  0.08808305  0.40829751  0.53111851  1  0.420634  0  0.081901  0.258636  0  4.103732  0
C  C127  1  0.47064256  0.16835756  0.68028440  1  -0.005349  0  -0.037503  -0.154222  0  3.993603  0
C  C128  1  0.31992579  0.39785477  0.13099015  1  0.062111  0  -0.091965  -0.241385  0  3.961085  0
C  C129  1  0.02955474  0.00214778  0.38148819  1  0.067362  0  -0.093761  -0.235086  0  3.934634  0
C  C130  1  0.93352949  0.08849921  0.41849613  1  0.41115  0  0.043211  0.110555  0  3.948591  0
C  C131  1  0.79700089  0.95367305  0.38334133  1  -0.013612  0  -0.102379  -0.255197  0  3.948896  0
C  C132  1  0.71003123  0.04159952  0.42121148  1  0.500578  0  0.045019  0.113764  0  3.976056  0
C  C133  1  0.99997894  0.78185438  0.29851411  1  0.376491  0  -0.064147  -0.038732  0  3.807292  0
C  C134  1  0.05269653  0.43685828  0.07958727  1  0.466475  0  0.043928  0.119556  0  3.941333  0
C  C135  1  0.48873094  0.07339796  0.71465841  1  0.37942  0  0.091462  0.179572  0  4.039666  0
C  C136  1  0.30580827  0.49427641  0.35645838  1  0.479671  0  0.111538  0.313896  0  4.042688  0
C  C137  1  0.26644849  0.64686602  0.28977090  1  0.402399  0  -0.058693  -0.029811  0  3.818523  0
C  C138  1  0.62284675  0.49906910  0.02953589  1  -0.019621  0  -0.110233  -0.21271  0  3.99486  0
C  C139  1  0.77296481  0.31434594  0.99930249  1  1.532702  0  0.198256  0.579776  0  4.207637  0
C  C140  1  0.34103149  0.26229865  0.78388275  1  -0.014084  0  -0.111053  -0.129547  0  4.080867  0
C  C141  1  0.42277567  0.51386441  0.38328644  1  0.009156  0  -0.100813  -0.260386  0  3.957068  0
C  C142  1  0.37686306  0.32519550  0.40641668  1  0.441599  0  0.042374  0.099897  0  4.005149  0
C  C143  1  0.30560101  0.17004800  0.89332808  1  1.519825  0  0.199808  0.570407  0  4.199669  0
C  C144  1  0.10658661  0.93322977  0.13735077  1  0.509018  0  0.115358  0.327824  0  4.040448  0
C  C145  1  0.63060598  0.40846375  0.99924718  1  -0.035186  0  -0.036291  -0.143748  0  3.98725  0
C  C146  1  0.50364822  0.40826272  0.96891897  1  0.408303  0  0.081582  0.259158  0  4.104626  0
C  C147  1  0.36129077  0.16834128  0.81970470  1  0.010697  0  -0.03815  -0.155457  0  3.994793  0
C  C148  1  0.28213631  0.39779881  0.36913706  1  0.024702  0  -0.09162  -0.240536  0  3.961152  0
C  C149  1  0.96898694  0.00192229  0.11853989  1  0.069689  0  -0.094056  -0.236204  0  3.9322  0
C  C150  1  0.97859185  0.08827138  0.08149815  1  0.416213  0  0.042682  0.108965  0  3.951994  0
C  C151  1  0.24996242  0.95360431  0.11664624  1  -0.001261  0  -0.103161  -0.256742  0  3.947702  0
C  C152  1  0.24893766  0.04153747  0.07874359  1  0.439826  0  0.044766  0.113535  0  3.973861  0
C  C153  1  0.21861868  0.78168612  0.20157432  1  0.360047  0  -0.06375  -0.036925  0  3.807822  0
C  C154  1  0.51031369  0.43681224  0.42058468  1  0.434227  0  0.042674  0.11715  0  3.944555  0
C  C155  1  0.43803007  0.07338171  0.78532542  1  0.412834  0  0.09117  0.178431  0  4.039708  0
C  C156  1  0.85657657  0.28670969  0.74992492  1  0.071246  0  -0.01725  0.055742  0  3.804623  0
C  C157  1  0.14342580  0.71328938  0.25007506  1  0.071238  0  -0.017277  0.055705  0  3.804695  0
N  N158  1  0.83449548  0.65700682  0.93172077  1  -1.287538  0  -0.344624  -0.270091  0  3.563103  0
N  N159  1  0.22508739  0.89071544  0.56199985  1  -1.256303  0  -0.349992  -0.267226  0  3.629439  0
N  N160  1  0.82592590  0.67845610  0.43762271  1  -1.248443  0  -0.61099  -0.632221  0  3.366615  0
N  N161  1  0.43875509  0.02180409  0.31680069  1  -1.242613  0  -0.605618  -0.62368  0  3.343242  0
N  N162  1  0.50858591  0.65710124  0.56817151  1  -1.262325  0  -0.343781  -0.268748  0  3.565574  0
N  N163  1  0.88364194  0.89085260  0.93804161  1  -1.26938  0  -0.349232  -0.265352  0  3.629485  0
N  N164  1  0.49550051  0.67853134  0.06233788  1  -1.268304  0  -0.610543  -0.631751  0  3.366457  0
N  N165  1  0.53943164  0.02183192  0.18323376  1  -1.235828  0  -0.605197  -0.621295  0  3.34287  0
N  N166  1  0.16550247  0.34298992  0.06828215  1  -1.287437  0  -0.344551  -0.270121  0  3.563068  0
N  N167  1  0.77491610  0.10928363  0.43799905  1  -1.256305  0  -0.349966  -0.267177  0  3.629359  0
N  N168  1  0.17407341  0.32154684  0.56237688  1  -1.248359  0  -0.610893  -0.632096  0  3.36662  0
N  N169  1  0.56123973  0.97819885  0.68319639  1  -1.242546  0  -0.605609  -0.623515  0  3.34338  0
N  N170  1  0.49141160  0.34289860  0.43182839  1  -1.262359  0  -0.343755  -0.26864  0  3.565581  0
N  N171  1  0.11635330  0.10914957  0.06196131  1  -1.270026  0  -0.349247  -0.265269  0  3.629493  0
N  N172  1  0.50450191  0.32146540  0.93766269  1  -1.268306  0  -0.610523  -0.631736  0  3.366554  0
N  N173  1  0.46057068  0.97816947  0.81676416  1  -1.235933  0  -0.605237  -0.621406  0  3.342888  0
O  O174  1  0.21660448  0.67074952  0.52154050  1  -1.199196  0  -0.347033  -0.579504  0  2.416434  0
O  O175  1  0.00646259  0.77185132  0.47911672  1  -1.17696  0  -0.324454  -0.547038  0  2.139203  0
O  O176  1  0.77586728  0.43745580  0.81893437  1  -1.072951  0  -0.162182  -0.179399  0  2.551059  0
O  O177  1  0.46739638  0.74173139  0.41948051  1  -1.179329  0  -0.332236  -0.554448  0  2.316343  0
O  O178  1  0.94006108  0.14776914  0.67450024  1  -1.082739  0  -0.160259  -0.180245  0  2.599054  0
O  O179  1  0.44132867  0.90970085  0.42817110  1  -1.179487  0  -0.316135  -0.545611  0  2.147726  0
O  O180  1  0.11254428  0.67073676  0.97850434  1  -1.200486  0  -0.346554  -0.579329  0  2.415908  0
O  O181  1  0.22212247  0.77192451  0.02052755  1  -1.178575  0  -0.324269  -0.546877  0  2.138329  0
O  O182  1  0.78690423  0.43740529  0.68080136  1  -1.064919  0  -0.161676  -0.177779  0  2.550131  0
O  O183  1  0.79071446  0.74177893  0.08053674  1  -1.181128  0  -0.332682  -0.554931  0  2.315583  0
O  O184  1  0.91148800  0.14796673  0.82552375  1  -1.084866  0  -0.160999  -0.180778  0  2.599616  0
O  O185  1  0.64886776  0.90972766  0.07184932  1  -1.181184  0  -0.316625  -0.546338  0  2.148362  0
O  O186  1  0.78339368  0.32925574  0.47846006  1  -1.199081  0  -0.346997  -0.579502  0  2.416462  0
O  O187  1  0.99353895  0.22815162  0.52087926  1  -1.177192  0  -0.324387  -0.546994  0  2.139288  0
O  O188  1  0.22413324  0.56254249  0.18106630  1  -1.07296  0  -0.162159  -0.179389  0  2.551015  0
O  O189  1  0.53261310  0.25826690  0.58051837  1  -1.179389  0  -0.33223  -0.55444  0  2.316463  0
O  O190  1  0.05994018  0.85222993  0.32549935  1  -1.082716  0  -0.160272  -0.180234  0  2.59904  0
O  O191  1  0.55866916  0.09030054  0.57182675  1  -1.179529  0  -0.316109  -0.545566  0  2.147702  0
O  O192  1  0.88745521  0.32925689  0.02149615  1  -1.200792  0  -0.346574  -0.57939  0  2.415834  0
O  O193  1  0.77786652  0.22807223  0.97947668  1  -1.17832  0  -0.324413  -0.547059  0  2.138368  0
O  O194  1  0.21309362  0.56259611  0.31919941  1  -1.064922  0  -0.161636  -0.177753  0  2.550064  0
O  O195  1  0.20928904  0.25822013  0.91946362  1  -1.181094  0  -0.332667  -0.554886  0  2.315614  0
O  O196  1  0.08851102  0.85203234  0.17447800  1  -1.084867  0  -0.161028  -0.180823  0  2.599681  0
O  O197  1  0.35114354  0.09027374  0.92814973  1  -1.18095  0  -0.316653  -0.546382  0  2.148422  0
