# generated using pymatgen
data_ZnH11C15I(NO)4
_symmetry_space_group_name_H-M   'P 1'
_cell_length_a   9.40579034
_cell_length_b   10.20271027
_cell_length_c   11.11706497
_cell_angle_alpha   75.89422099
_cell_angle_beta   67.37218028
_cell_angle_gamma   76.12801279
_symmetry_Int_Tables_number   1
_chemical_formula_structural   ZnH11C15I(NO)4
_chemical_formula_sum   'Zn2 H22 C30 I2 N8 O8'
_cell_volume   942.24548202
_cell_formula_units_Z   2
loop_
 _symmetry_equiv_pos_site_id
 _symmetry_equiv_pos_as_xyz
  1  'x, y, z'
loop_
 _atom_site_type_symbol
 _atom_site_label
 _atom_site_symmetry_multiplicity
 _atom_site_fract_x
 _atom_site_fract_y
 _atom_site_fract_z
 _atom_site_occupancy
 _atom_site_hle17_bader_spin_density
 _atom_site_hle17_ddec_charge
 _atom_site_hle17_ddec_spin_density
 _atom_site_hle17_ddec_sum_bond_order
 _atom_site_hle17_magmom
 _atom_site_hse06_10hf_bader_spin_density
 _atom_site_hse06_10hf_ddec_charge
 _atom_site_hse06_10hf_ddec_spin_density
 _atom_site_hse06_10hf_ddec_sum_bond_order
 _atom_site_hse06_10hf_magmom
 _atom_site_hse06_bader_spin_density
 _atom_site_hse06_ddec_charge
 _atom_site_hse06_ddec_spin_density
 _atom_site_hse06_ddec_sum_bond_order
 _atom_site_hse06_magmom
 _atom_site_pbe_bader_spin_density
 _atom_site_pbe_cm5_charge
 _atom_site_pbe_ddec_charge
 _atom_site_pbe_ddec_spin_density
 _atom_site_pbe_ddec_sum_bond_order
 _atom_site_pbe_magmom
Zn  Zn0  1  0.93318056  0.95996494  0.70961783  1  0  0.985714  0  1.866455  0  0  0.786786  0  2.350961  0  0  0.83369  0  2.296791  0  0  0.710121  0.750944  0  2.391033  0
Zn  Zn1  1  0.06681111  0.04003840  0.29038335  1  0  0.985703  0  1.866517  0  0  0.786756  0  2.351036  0  0  0.833667  0  2.296862  0  0  0.710126  0.750918  0  2.391107  0
H  H2  1  0.60533347  0.84758856  0.82750965  1  0  0.112585  0  0.928645  0  0  0.123693  0  0.986926  0  0  0.126388  0  0.984519  0  0  0.124854  0.121691  0  0.988749  0
H  H3  1  0.39466274  0.15241552  0.17249349  1  0  0.112584  0  0.928591  0  0  0.123733  0  0.986837  0  0  0.126431  0  0.984426  0  0  0.124867  0.121729  0  0.98866  0
H  H4  1  0.78278949  0.13726724  0.50620598  1  0  0.299113  0  0.931651  0  0  0.275476  0  0.998082  0  0  0.284249  0  0.991063  0  0  0.320584  0.269207  0  1.003302  0
H  H5  1  0.21720793  0.86273606  0.49379150  1  0  0.299082  0  0.931663  0  0  0.275485  0  0.998029  0  0  0.284259  0  0.991003  0  0  0.320561  0.269215  0  1.003251  0
H  H6  1  0.49882720  0.16826279  0.52289556  1  0  0.104299  0  0.965652  0  0  0.112721  0  1.035932  0  0  0.114831  0  1.034597  0  0  0.118147  0.110898  0  1.037177  0
H  H7  1  0.50117132  0.83173340  0.47710198  1  0  0.10434  0  0.965724  0  0  0.112775  0  1.035985  0  0  0.114861  0  1.03469  0  0  0.11816  0.110969  0  1.037212  0
H  H8  1  0.19564891  0.86232285  0.05176678  1  0  0.124175  0  0.944625  0  0  0.135237  0  1.002468  0  0  0.138146  0  0.99953  0  0  0.124034  0.132981  0  1.004703  0
H  H9  1  0.80434903  0.13767724  0.94823382  1  0  0.124177  0  0.944604  0  0  0.135239  0  1.002448  0  0  0.138149  0  0.999508  0  0  0.124035  0.132981  0  1.004682  0
H  H10  1  0.10408957  0.26944616  0.06713678  1  0  0.302016  0  0.9368  0  0  0.282472  0  0.997925  0  0  0.291454  0  0.990333  0  0  0.31904  0.276034  0  1.003454  0
H  H11  1  0.89591281  0.73055494  0.93286037  1  0  0.302013  0  0.936783  0  0  0.282516  0  0.997865  0  0  0.291476  0  0.990311  0  0  0.319047  0.276078  0  1.003396  0
H  H12  1  0.21007875  0.26801165  0.81114470  1  0  0.108847  0  0.950025  0  0  0.119695  0  1.012228  0  0  0.121695  0  1.010924  0  0  0.122401  0.117975  0  1.013553  0
H  H13  1  0.78992643  0.73198629  0.18885301  1  0  0.108863  0  0.950016  0  0  0.119682  0  1.012241  0  0  0.121679  0  1.010942  0  0  0.122401  0.117969  0  1.01357  0
H  H14  1  0.30842819  0.86473979  0.78066295  1  0  0.081504  0  0.94327  0  0  0.092126  0  1.013037  0  0  0.093887  0  1.011413  0  0  0.087726  0.090793  0  1.014239  0
H  H15  1  0.69157177  0.13525503  0.21934067  1  0  0.081541  0  0.943315  0  0  0.092158  0  1.013055  0  0  0.093917  0  1.011432  0  0  0.087718  0.090825  0  1.014256  0
H  H16  1  0.25682812  0.01954446  0.68306630  1  0  0.103212  0  0.963915  0  0  0.114956  0  1.028535  0  0  0.116809  0  1.027704  0  0  0.096029  0.113448  0  1.029572  0
H  H17  1  0.74316963  0.98044953  0.31693551  1  0  0.103319  0  0.963912  0  0  0.11509  0  1.02847  0  0  0.116942  0  1.027638  0  0  0.096082  0.113581  0  1.029503  0
H  H18  1  0.91890127  0.44658767  0.74603403  1  0  0.116094  0  0.945418  0  0  0.12211  0  1.010649  0  0  0.127087  0  1.005791  0  0  0.107767  0.118514  0  1.014344  0
H  H19  1  0.08110224  0.55340622  0.25396498  1  0  0.116121  0  0.945351  0  0  0.122142  0  1.010561  0  0  0.127121  0  1.005702  0  0  0.107783  0.118548  0  1.014257  0
H  H20  1  0.26833338  0.24075085  0.43816340  1  0  0.109414  0  0.964235  0  0  0.115067  0  1.035646  0  0  0.118339  0  1.03407  0  0  0.102463  0.11302  0  1.036337  0
H  H21  1  0.73167330  0.75925220  0.56183195  1  0  0.10938  0  0.964287  0  0  0.115037  0  1.03568  0  0  0.118312  0  1.034097  0  0  0.102438  0.112992  0  1.03637  0
H  H22  1  0.30395176  0.64518275  0.46893084  1  0  0.101435  0  0.963785  0  0  0.109465  0  1.032926  0  0  0.112947  0  1.030281  0  0  0.101609  0.107454  0  1.033945  0
H  H23  1  0.69604578  0.35482023  0.53107296  1  0  0.101427  0  0.963774  0  0  0.109454  0  1.032923  0  0  0.112936  0  1.030278  0  0  0.101605  0.107442  0  1.033941  0
C  C24  1  0.60454312  0.93026440  0.74496375  1  0  -0.008691  0  3.700848  0  0  -0.058325  0  3.973709  0  0  -0.050773  0  3.988712  0  0  0.019601  -0.063499  0  3.963636  0
C  C25  1  0.39545572  0.06973758  0.25503890  1  0  -0.008697  0  3.700851  0  0  -0.058396  0  3.97369  0  0  -0.050844  0  3.988697  0  0  0.019603  -0.063569  0  3.963614  0
C  C26  1  0.48236105  0.99567201  0.69704392  1  0  -0.012083  0  3.805642  0  0  0.012157  0  4.056567  0  0  0.003826  0  4.084608  0  0  -0.029174  0.017534  0  4.037813  0
C  C27  1  0.51763590  0.00432709  0.30295719  1  0  -0.011991  0  3.805396  0  0  0.012296  0  4.056223  0  0  0.003966  0  4.084261  0  0  -0.029169  0.017675  0  4.037473  0
C  C28  1  0.54822167  0.09375286  0.59029255  1  0  -0.001913  0  3.651399  0  0  -0.055087  0  3.911567  0  0  -0.047811  0  3.927503  0  0  0.023995  -0.059406  0  3.900782  0
C  C29  1  0.45177574  0.90624322  0.40970807  1  0  -0.001981  0  3.651275  0  0  -0.055206  0  3.911436  0  0  -0.047919  0  3.927378  0  0  0.023998  -0.059542  0  3.900645  0
C  C30  1  0.18725808  0.97081176  0.01074355  1  0  0.002698  0  3.683172  0  0  -0.049015  0  3.950329  0  0  -0.041101  0  3.966223  0  0  0.01946  -0.053845  0  3.939109  0
C  C31  1  0.81274218  0.02918828  0.98925629  1  0  0.002648  0  3.683218  0  0  -0.04905  0  3.950395  0  0  -0.041135  0  3.966288  0  0  0.019437  -0.05388  0  3.939171  0
C  C32  1  0.23180374  0.03819731  0.87880105  1  0  -0.005265  0  3.77583  0  0  0.021144  0  4.026319  0  0  0.012837  0  4.053539  0  0  -0.028027  0.026378  0  4.008012  0
C  C33  1  0.76819567  0.96180076  0.12119854  1  0  -0.005117  0  3.775769  0  0  0.021211  0  4.026317  0  0  0.012898  0  4.053542  0  0  -0.028002  0.026452  0  4.008003  0
C  C34  1  0.19495627  0.17757426  0.88727930  1  0  0.007954  0  3.646734  0  0  -0.047292  0  3.909546  0  0  -0.039062  0  3.924559  0  0  0.024324  -0.05274  0  3.899807  0
C  C35  1  0.80504526  0.82242487  0.11271759  1  0  0.007864  0  3.646744  0  0  -0.04731  0  3.909605  0  0  -0.039079  0  3.924622  0  0  0.024305  -0.052771  0  3.899875  0
C  C36  1  0.31498799  0.97475691  0.75601251  1  0  -0.163074  0  3.772194  0  0  -0.208009  0  4.008776  0  0  -0.207747  0  4.02259  0  0  -0.156767  -0.208093  0  3.99974  0
C  C37  1  0.68500945  0.02523907  0.24398992  1  0  -0.163377  0  3.77234  0  0  -0.208282  0  4.008832  0  0  -0.208016  0  4.022643  0  0  -0.15684  -0.208364  0  3.999787  0
C  C38  1  0.10574654  0.55777725  0.61760375  1  0  -0.073661  0  3.76923  0  0  -0.04573  0  4.005552  0  0  -0.055947  0  4.030035  0  0  -0.019886  -0.039099  0  3.989773  0
C  C39  1  0.89425457  0.44222476  0.38239634  1  0  -0.07371  0  3.769351  0  0  -0.045797  0  4.005684  0  0  -0.056014  0  4.030166  0  0  -0.019908  -0.039162  0  3.989898  0
C  C40  1  0.02742594  0.44531465  0.66178038  1  0  -0.068621  0  3.702706  0  0  -0.106203  0  3.94828  0  0  -0.10314  0  3.966744  0  0  -0.075963  -0.108569  0  3.936964  0
C  C41  1  0.97257729  0.55468120  0.33822016  1  0  -0.068708  0  3.702648  0  0  -0.106248  0  3.948199  0  0  -0.103193  0  3.966671  0  0  -0.075994  -0.108617  0  3.936889  0
C  C42  1  0.08529801  0.33190422  0.59773754  1  0  -0.053831  0  3.756396  0  0  -0.023998  0  3.985101  0  0  -0.033483  0  4.009462  0  0  -0.016187  -0.017999  0  3.969437  0
C  C43  1  0.91470705  0.66809465  0.40226183  1  0  -0.053742  0  3.75632  0  0  -0.023974  0  3.985077  0  0  -0.033459  0  4.009439  0  0  -0.016155  -0.017975  0  3.969416  0
C  C44  1  0.22453747  0.32927697  0.48837149  1  0  -0.097847  0  3.706854  0  0  -0.130416  0  3.953763  0  0  -0.128501  0  3.973202  0  0  -0.087594  -0.130691  0  3.939898  0
C  C45  1  0.77546807  0.67072605  0.51162515  1  0  -0.097834  0  3.706845  0  0  -0.130382  0  3.953771  0  0  -0.128469  0  3.973217  0  0  -0.08759  -0.130659  0  3.939908  0
C  C46  1  0.30088257  0.44282830  0.44397496  1  0  0.030292  0  3.667975  0  0  0.060501  0  3.930678  0  0  0.058744  0  3.955034  0  0  -0.045823  0.061104  0  3.914162  0
C  C47  1  0.69911915  0.55717694  0.55602073  1  0  0.030302  0  3.667915  0  0  0.060509  0  3.930628  0  0  0.058751  0  3.954981  0  0  -0.04583  0.061113  0  3.914113  0
C  C48  1  0.24331719  0.55743135  0.50670990  1  0  -0.086241  0  3.732118  0  0  -0.126143  0  3.989523  0  0  -0.12367  0  4.0094  0  0  -0.088451  -0.126962  0  3.975479  0
C  C49  1  0.75668245  0.44257274  0.49329030  1  0  -0.086183  0  3.73212  0  0  -0.126091  0  3.989564  0  0  -0.123613  0  4.009437  0  0  -0.088419  -0.126908  0  3.975516  0
C  C50  1  0.03306968  0.67617642  0.69112118  1  0  0.65741  0  3.880302  0  0  0.603585  0  4.17684  0  0  0.637429  0  4.169769  0  0  0.212089  0.580034  0  4.181506  0
C  C51  1  0.96692968  0.32382235  0.30888459  1  0  0.657373  0  3.880405  0  0  0.603557  0  4.176925  0  0  0.637403  0  4.169857  0  0  0.212091  0.580009  0  4.181585  0
C  C52  1  0.99390830  0.21564303  0.64890298  1  0  0.626686  0  3.921754  0  0  0.577952  0  4.212107  0  0  0.610742  0  4.207265  0  0  0.196101  0.555286  0  4.214999  0
C  C53  1  0.00609723  0.78435281  0.35109590  1  0  0.626695  0  3.921688  0  0  0.577972  0  4.212066  0  0  0.61076  0  4.207229  0  0  0.196161  0.555305  0  4.214954  0
I  I54  1  0.50586264  0.44391732  0.27468850  1  0  -0.011635  0  1.168377  0  0  -0.0183  0  1.389275  0  0  -0.020001  0  1.382462  0  0  0.085107  -0.016339  0  1.393415  0
I  I55  1  0.49414164  0.55608662  0.72531109  1  0  -0.011655  0  1.168364  0  0  -0.018324  0  1.389268  0  0  -0.020024  0  1.382456  0  0  0.085095  -0.016364  0  1.393412  0
N  N56  1  0.73470789  0.98501510  0.67221715  1  0  -0.235742  0  3.247105  0  0  -0.175967  0  3.55398  0  0  -0.190128  0  3.56611  0  0  -0.25607  -0.166239  0  3.545764  0
N  N57  1  0.26528843  0.01498805  0.32778432  1  0  -0.235749  0  3.247067  0  0  -0.175969  0  3.553943  0  0  -0.190135  0  3.566083  0  0  -0.256087  -0.16624  0  3.545724  0
N  N58  1  0.69790693  0.08470775  0.57943688  1  0  -0.131272  0  3.49143  0  0  -0.069079  0  3.725187  0  0  -0.080601  0  3.742751  0  0  -0.274561  -0.061997  0  3.713483  0
N  N59  1  0.30209082  0.91529346  0.42056178  1  0  -0.131189  0  3.491272  0  0  -0.069004  0  3.72499  0  0  -0.08052  0  3.742549  0  0  -0.274502  -0.061924  0  3.713295  0
N  N60  1  0.12738801  0.06296756  0.09337737  1  0  -0.261786  0  3.270012  0  0  -0.195518  0  3.574681  0  0  -0.211825  0  3.589675  0  0  -0.263651  -0.18408  0  3.563936  0
N  N61  1  0.87261425  0.93703448  0.90662144  1  0  -0.261858  0  3.270052  0  0  -0.195567  0  3.574754  0  0  -0.211868  0  3.589738  0  0  -0.263686  -0.184127  0  3.564009  0
N  N62  1  0.13213384  0.18788651  0.01654820  1  0  -0.155811  0  3.49941  0  0  -0.095877  0  3.731582  0  0  -0.108094  0  3.750209  0  0  -0.2796  -0.087942  0  3.719058  0
N  N63  1  0.86787102  0.81211347  0.98344923  1  0  -0.155707  0  3.499284  0  0  -0.095868  0  3.731498  0  0  -0.108072  0  3.750141  0  0  -0.279572  -0.087933  0  3.718978  0
O  O64  1  0.07946430  0.79362892  0.63512607  1  0  -0.649433  0  2.078435  0  0  -0.570441  0  2.34695  0  0  -0.598569  0  2.331585  0  0  -0.321671  -0.549648  0  2.35833  0
O  O65  1  0.92052416  0.20637321  0.36488180  1  0  -0.649407  0  2.078479  0  0  -0.570404  0  2.347003  0  0  -0.598533  0  2.331638  0  0  -0.3217  -0.549633  0  2.358412  0
O  O66  1  0.92810185  0.65721187  0.80229317  1  0  -0.605371  0  1.946407  0  0  -0.558371  0  2.159588  0  0  -0.580689  0  2.149384  0  0  -0.31546  -0.542264  0  2.165926  0
O  O67  1  0.07190292  0.34278173  0.19771088  1  0  -0.60534  0  1.946392  0  0  -0.558326  0  2.15957  0  0  -0.580653  0  2.149367  0  0  -0.315431  -0.542218  0  2.165904  0
O  O68  1  0.06580268  0.10101984  0.60552844  1  0  -0.647546  0  2.053533  0  0  -0.570539  0  2.325347  0  0  -0.598617  0  2.311634  0  0  -0.336498  -0.549479  0  2.335525  0
O  O69  1  0.93420496  0.89897707  0.39446774  1  0  -0.647554  0  2.053504  0  0  -0.570516  0  2.325268  0  0  -0.598593  0  2.311551  0  0  -0.336519  -0.549467  0  2.335478  0
O  O70  1  0.85785455  0.23145328  0.72979942  1  0  -0.603619  0  1.919156  0  0  -0.560843  0  2.141528  0  0  -0.583347  0  2.133762  0  0  -0.320068  -0.544404  0  2.145872  0
O  O71  1  0.14214575  0.76854606  0.27019424  1  0  -0.603638  0  1.919217  0  0  -0.560887  0  2.141616  0  0  -0.583382  0  2.133833  0  0  -0.320112  -0.544446  0  2.145961  0
