# generated using pymatgen
data_AgH6C5N3O2
_symmetry_space_group_name_H-M   'P 1'
_cell_length_a   6.51047306
_cell_length_b   7.70875863
_cell_length_c   15.39326707
_cell_angle_alpha   90.00026251
_cell_angle_beta   90.00118752
_cell_angle_gamma   101.74125183
_symmetry_Int_Tables_number   1
_chemical_formula_structural   AgH6C5N3O2
_chemical_formula_sum   'Ag4 H24 C20 N12 O8'
_cell_volume   756.38768375
_cell_formula_units_Z   4
loop_
 _symmetry_equiv_pos_site_id
 _symmetry_equiv_pos_as_xyz
  1  'x, y, z'
loop_
 _atom_site_type_symbol
 _atom_site_label
 _atom_site_symmetry_multiplicity
 _atom_site_fract_x
 _atom_site_fract_y
 _atom_site_fract_z
 _atom_site_occupancy
 _atom_site_hle17_bader_spin_density
 _atom_site_hle17_ddec_charge
 _atom_site_hle17_ddec_spin_density
 _atom_site_hle17_ddec_sum_bond_order
 _atom_site_hle17_magmom
 _atom_site_hse06_10hf_bader_spin_density
 _atom_site_hse06_10hf_ddec_charge
 _atom_site_hse06_10hf_ddec_spin_density
 _atom_site_hse06_10hf_ddec_sum_bond_order
 _atom_site_hse06_10hf_magmom
 _atom_site_hse06_bader_spin_density
 _atom_site_hse06_ddec_charge
 _atom_site_hse06_ddec_spin_density
 _atom_site_hse06_ddec_sum_bond_order
 _atom_site_hse06_magmom
 _atom_site_pbe_bader_spin_density
 _atom_site_pbe_cm5_charge
 _atom_site_pbe_ddec_charge
 _atom_site_pbe_ddec_spin_density
 _atom_site_pbe_ddec_sum_bond_order
 _atom_site_pbe_magmom
Ag  Ag0  1  0.77256525  0.03926935  0.74910161  1  0  0.551755  0  1.416025  0  0  0.415729  0  1.846207  0  0  0.439807  0  1.804204  0  0  0.491183  0.399218  0  1.875141  0
Ag  Ag1  1  0.22742571  0.46073765  0.24909896  1  0  0.551665  0  1.416312  0  0  0.415648  0  1.846489  0  0  0.43973  0  1.804486  0  0  0.491182  0.399134  0  1.875431  0
Ag  Ag2  1  0.22743721  0.96073232  0.25089888  1  0  0.551691  0  1.416153  0  0  0.415687  0  1.846319  0  0  0.439765  0  1.804316  0  0  0.491163  0.399164  0  1.875272  0
Ag  Ag3  1  0.77256145  0.53926526  0.75090542  1  0  0.551649  0  1.416137  0  0  0.415633  0  1.846315  0  0  0.439713  0  1.804311  0  0  0.491193  0.399117  0  1.875256  0
H  H4  1  0.75595679  0.05653953  0.53346139  1  0  0.126513  0  0.97375  0  0  0.136206  0  1.034583  0  0  0.139421  0  1.031442  0  0  0.141983  0.133759  0  1.037008  0
H  H5  1  0.24402224  0.44343770  0.03345063  1  0  0.126518  0  0.973881  0  0  0.136212  0  1.034705  0  0  0.139432  0  1.031564  0  0  0.141964  0.133767  0  1.037132  0
H  H6  1  0.24406315  0.94346632  0.46654949  1  0  0.126389  0  0.973939  0  0  0.136258  0  1.034555  0  0  0.139431  0  1.031489  0  0  0.141965  0.13381  0  1.03698  0
H  H7  1  0.75594073  0.55654349  0.96655765  1  0  0.126376  0  0.974012  0  0  0.136189  0  1.034696  0  0  0.1394  0  1.031566  0  0  0.141913  0.133742  0  1.037121  0
H  H8  1  0.79678267  0.51311987  0.53516540  1  0  0.121524  0  0.977083  0  0  0.131827  0  1.037084  0  0  0.134292  0  1.034871  0  0  0.142938  0.129883  0  1.038899  0
H  H9  1  0.20323933  0.98687195  0.03516649  1  0  0.121749  0  0.977145  0  0  0.131933  0  1.037258  0  0  0.134395  0  1.035051  0  0  0.142945  0.129988  0  1.039073  0
H  H10  1  0.20322837  0.48688909  0.46482404  1  0  0.12162  0  0.977201  0  0  0.131913  0  1.037208  0  0  0.134381  0  1.034991  0  0  0.142944  0.12997  0  1.039022  0
H  H11  1  0.79680825  0.01313245  0.96482945  1  0  0.121798  0  0.977181  0  0  0.131967  0  1.037316  0  0  0.134436  0  1.035093  0  0  0.142967  0.130022  0  1.039134  0
H  H12  1  0.81540618  0.90995388  0.38199059  1  0  0.072148  0  0.917499  0  0  0.083184  0  0.975727  0  0  0.08472  0  0.975145  0  0  0.117533  0.082086  0  0.976259  0
H  H13  1  0.18461522  0.59005659  0.88198612  1  0  0.072147  0  0.917455  0  0  0.083203  0  0.975733  0  0  0.084739  0  0.975153  0  0  0.117537  0.082104  0  0.97627  0
H  H14  1  0.18458159  0.09008037  0.61800015  1  0  0.071993  0  0.91766  0  0  0.083137  0  0.975861  0  0  0.084667  0  0.975282  0  0  0.117492  0.082038  0  0.976403  0
H  H15  1  0.81539833  0.40990827  0.11800852  1  0  0.071977  0  0.917683  0  0  0.083167  0  0.97589  0  0  0.084683  0  0.975329  0  0  0.117499  0.082063  0  0.976435  0
H  H16  1  0.00931658  0.66268568  0.37476417  1  0  0.099697  0  0.994449  0  0  0.106293  0  1.089232  0  0  0.110313  0  1.08443  0  0  0.081193  0.103277  0  1.092793  0
H  H17  1  0.99069908  0.83731955  0.87475947  1  0  0.099657  0  0.994464  0  0  0.106233  0  1.089252  0  0  0.110251  0  1.084454  0  0  0.081173  0.103221  0  1.092809  0
H  H18  1  0.99065856  0.33733311  0.62522137  1  0  0.099787  0  0.994584  0  0  0.106286  0  1.089451  0  0  0.110309  0  1.084652  0  0  0.081185  0.103273  0  1.093009  0
H  H19  1  0.00931868  0.16265481  0.12523777  1  0  0.099704  0  0.994574  0  0  0.10628  0  1.089337  0  0  0.110298  0  1.084539  0  0  0.081194  0.103269  0  1.092897  0
H  H20  1  0.81143978  0.64529053  0.29317605  1  0  0.122989  0  0.947312  0  0  0.142038  0  1.012839  0  0  0.145074  0  1.00991  0  0  0.095391  0.139811  0  1.014908  0
H  H21  1  0.18859296  0.85472294  0.79316910  1  0  0.122986  0  0.947188  0  0  0.142006  0  1.012774  0  0  0.145074  0  1.009767  0  0  0.095384  0.139775  0  1.014851  0
H  H22  1  0.18852162  0.35471660  0.70682249  1  0  0.122894  0  0.947192  0  0  0.142084  0  1.012597  0  0  0.14513  0  1.009655  0  0  0.095373  0.139857  0  1.014672  0
H  H23  1  0.81143277  0.14526647  0.20682943  1  0  0.123029  0  0.947178  0  0  0.142039  0  1.012755  0  0  0.145095  0  1.00978  0  0  0.095407  0.139809  0  1.014834  0
H  H24  1  0.76692755  0.50389430  0.38490018  1  0  0.119129  0  0.934246  0  0  0.140874  0  0.990758  0  0  0.142807  0  0.990252  0  0  0.092983  0.13942  0  0.991205  0
H  H25  1  0.23308981  0.99611953  0.88489725  1  0  0.119104  0  0.934183  0  0  0.140818  0  0.990703  0  0  0.142737  0  0.99024  0  0  0.092959  0.139364  0  0.991148  0
H  H26  1  0.23303775  0.49611969  0.61509835  1  0  0.119072  0  0.934236  0  0  0.140833  0  0.990708  0  0  0.142758  0  0.990247  0  0  0.092946  0.139378  0  0.991157  0
H  H27  1  0.76693513  0.00387633  0.11510323  1  0  0.119088  0  0.934277  0  0  0.14083  0  0.990772  0  0  0.142766  0  0.990274  0  0  0.092923  0.139373  0  0.991224  0
C  C28  1  0.78016708  0.92664317  0.55408542  1  0  0.152966  0  3.619181  0  0  0.084665  0  3.890981  0  0  0.097753  0  3.902847  0  0  0.157604  0.075954  0  3.883078  0
C  C29  1  0.21982235  0.57331059  0.05407209  1  0  0.152992  0  3.618341  0  0  0.084618  0  3.890162  0  0  0.097703  0  3.902034  0  0  0.157577  0.075904  0  3.882259  0
C  C30  1  0.21980697  0.07334032  0.44590921  1  0  0.152899  0  3.61849  0  0  0.084458  0  3.89027  0  0  0.097564  0  3.90218  0  0  0.157525  0.075753  0  3.882359  0
C  C31  1  0.78018683  0.42668255  0.94591735  1  0  0.152932  0  3.618272  0  0  0.084513  0  3.890036  0  0  0.0976  0  3.901915  0  0  0.15755  0.075805  0  3.882129  0
C  C32  1  0.80298629  0.64942519  0.55509708  1  0  0.168339  0  3.594778  0  0  0.109532  0  3.846432  0  0  0.122038  0  3.860707  0  0  0.163472  0.101186  0  3.836975  0
C  C33  1  0.19704408  0.85058692  0.05508080  1  0  0.16824  0  3.594133  0  0  0.109458  0  3.845806  0  0  0.121968  0  3.860081  0  0  0.163481  0.101109  0  3.836347  0
C  C34  1  0.19702584  0.35059299  0.44490990  1  0  0.168589  0  3.594678  0  0  0.109726  0  3.846315  0  0  0.122234  0  3.860599  0  0  0.16358  0.101382  0  3.836853  0
C  C35  1  0.80297258  0.14941732  0.94492359  1  0  0.168199  0  3.59425  0  0  0.109414  0  3.845906  0  0  0.121919  0  3.860186  0  0  0.163509  0.101068  0  3.836449  0
C  C36  1  0.50269912  0.75349387  0.39021321  1  0  0.625275  0  3.9203  0  0  0.579288  0  4.220626  0  0  0.610528  0  4.216372  0  0  0.193316  0.558116  0  4.222632  0
C  C37  1  0.49732278  0.74651610  0.89021225  1  0  0.625419  0  3.920531  0  0  0.579565  0  4.220706  0  0  0.610805  0  4.216451  0  0  0.193482  0.558391  0  4.222715  0
C  C38  1  0.49726946  0.24652172  0.60979896  1  0  0.625332  0  3.920361  0  0  0.579445  0  4.220629  0  0  0.610684  0  4.216365  0  0  0.19321  0.558274  0  4.222642  0
C  C39  1  0.50269498  0.25347129  0.10979409  1  0  0.625561  0  3.920581  0  0  0.579687  0  4.220832  0  0  0.610932  0  4.216562  0  0  0.193443  0.558509  0  4.22285  0
C  C40  1  0.74240059  0.77879603  0.40783143  1  0  0.042919  0  3.597058  0  0  0.027521  0  3.832058  0  0  0.02726  0  3.845998  0  0  0.016716  0.027613  0  3.822627  0
C  C41  1  0.25762191  0.72120891  0.90782372  1  0  0.042883  0  3.597355  0  0  0.027249  0  3.832597  0  0  0.026988  0  3.846539  0  0  0.016608  0.027337  0  3.823165  0
C  C42  1  0.25757767  0.22121000  0.59216970  1  0  0.043388  0  3.596856  0  0  0.027671  0  3.832243  0  0  0.02742  0  3.846177  0  0  0.016815  0.027743  0  3.822848  0
C  C43  1  0.74238570  0.27878409  0.09217742  1  0  0.043266  0  3.596854  0  0  0.027367  0  3.832402  0  0  0.027119  0  3.846332  0  0  0.016627  0.027449  0  3.823014  0
C  C44  1  0.83920470  0.63824604  0.36312284  1  0  -0.348074  0  3.71222  0  0  -0.438549  0  3.972282  0  0  -0.440398  0  3.977788  0  0  -0.249798  -0.43683  0  3.968543  0
C  C45  1  0.16082275  0.86176101  0.86312114  1  0  -0.347999  0  3.711992  0  0  -0.438319  0  3.972084  0  0  -0.440175  0  3.977613  0  0  -0.249709  -0.436595  0  3.968331  0
C  C46  1  0.16076716  0.36175812  0.63686790  1  0  -0.348187  0  3.712133  0  0  -0.438669  0  3.972333  0  0  -0.440536  0  3.977826  0  0  -0.249768  -0.436936  0  3.968567  0
C  C47  1  0.83920453  0.13822854  0.13687480  1  0  -0.348181  0  3.711957  0  0  -0.438508  0  3.972155  0  0  -0.440364  0  3.97768  0  0  -0.249735  -0.436752  0  3.968329  0
N  N48  1  0.80020376  0.88091739  0.63604546  1  0  -0.22829  0  3.249517  0  0  -0.158679  0  3.552852  0  0  -0.17296  0  3.566208  0  0  -0.261338  -0.149208  0  3.543928  0
N  N49  1  0.19977546  0.61907304  0.13604152  1  0  -0.228283  0  3.248987  0  0  -0.158661  0  3.55234  0  0  -0.172934  0  3.565691  0  0  -0.261341  -0.149192  0  3.543418  0
N  N50  1  0.19980056  0.11911313  0.36394398  1  0  -0.228127  0  3.249329  0  0  -0.158533  0  3.552695  0  0  -0.172805  0  3.566053  0  0  -0.261377  -0.149063  0  3.543768  0
N  N51  1  0.80021967  0.38089278  0.86395052  1  0  -0.228056  0  3.248979  0  0  -0.158461  0  3.552335  0  0  -0.172734  0  3.565693  0  0  -0.261309  -0.148992  0  3.543409  0
N  N52  1  0.81393080  0.70453022  0.63680553  1  0  -0.231511  0  3.237547  0  0  -0.161787  0  3.534927  0  0  -0.176805  0  3.549483  0  0  -0.261031  -0.151824  0  3.525199  0
N  N53  1  0.18607907  0.79547072  0.13679965  1  0  -0.231745  0  3.237275  0  0  -0.16198  0  3.534652  0  0  -0.176995  0  3.549199  0  0  -0.261029  -0.15202  0  3.52493  0
N  N54  1  0.18609913  0.29549477  0.36319431  1  0  -0.231737  0  3.237888  0  0  -0.161921  0  3.535222  0  0  -0.176953  0  3.549797  0  0  -0.260998  -0.151959  0  3.525493  0
N  N55  1  0.81392246  0.20451001  0.86320538  1  0  -0.23181  0  3.237519  0  0  -0.16202  0  3.534885  0  0  -0.177033  0  3.549436  0  0  -0.261077  -0.152059  0  3.52516  0
N  N56  1  0.78416318  0.78558255  0.50153750  1  0  -0.094776  0  3.548638  0  0  -0.003834  0  3.769696  0  0  -0.020676  0  3.794056  0  0  -0.227567  0.007229  0  3.753147  0
N  N57  1  0.21586396  0.71440676  0.00152732  1  0  -0.094615  0  3.548421  0  0  -0.003535  0  3.769466  0  0  -0.020386  0  3.793852  0  0  -0.227451  0.007533  0  3.752907  0
N  N58  1  0.21582288  0.21441114  0.49845974  1  0  -0.094987  0  3.548565  0  0  -0.003966  0  3.769759  0  0  -0.020811  0  3.794116  0  0  -0.227575  0.0071  0  3.75321  0
N  N59  1  0.78416004  0.28560727  0.99846992  1  0  -0.094734  0  3.548289  0  0  -0.003603  0  3.769381  0  0  -0.020452  0  3.793759  0  0  -0.22746  0.007461  0  3.752828  0
O  O60  1  0.45737444  0.75368240  0.31009043  1  0  -0.661495  0  2.040882  0  0  -0.595457  0  2.308444  0  0  -0.621258  0  2.293916  0  0  -0.350524  -0.577197  0  2.31769  0
O  O61  1  0.54264621  0.74632365  0.81008510  1  0  -0.661675  0  2.040932  0  0  -0.595648  0  2.30845  0  0  -0.621459  0  2.293921  0  0  -0.350622  -0.577386  0  2.3177  0
O  O62  1  0.54256651  0.24630856  0.68992175  1  0  -0.661702  0  2.040972  0  0  -0.595639  0  2.308412  0  0  -0.621444  0  2.293886  0  0  -0.350543  -0.57738  0  2.317661  0
O  O63  1  0.45738278  0.25369343  0.18992318  1  0  -0.661768  0  2.041057  0  0  -0.595712  0  2.308538  0  0  -0.62152  0  2.294003  0  0  -0.350532  -0.577452  0  2.317793  0
O  O64  1  0.37934220  0.73697181  0.45442786  1  0  -0.638965  0  1.944531  0  0  -0.598763  0  2.171018  0  0  -0.621825  0  2.162682  0  0  -0.344046  -0.582403  0  2.176144  0
O  O65  1  0.62066531  0.76303653  0.95442842  1  0  -0.639042  0  1.944782  0  0  -0.598837  0  2.17124  0  0  -0.6219  0  2.16288  0  0  -0.344084  -0.582478  0  2.176367  0
O  O66  1  0.62064791  0.26305614  0.54558951  1  0  -0.638966  0  1.944373  0  0  -0.598745  0  2.17084  0  0  -0.621803  0  2.162467  0  0  -0.343993  -0.582382  0  2.175965  0
O  O67  1  0.37935198  0.23694692  0.04558116  1  0  -0.639123  0  1.944761  0  0  -0.598857  0  2.171213  0  0  -0.621913  0  2.162843  0  0  -0.344118  -0.582498  0  2.176346  0
