# generated using pymatgen
data_CuH8(C7N6)2
_symmetry_space_group_name_H-M   'P 1'
_cell_length_a   8.66438708
_cell_length_b   12.97865046
_cell_length_c   14.43300300
_cell_angle_alpha   100.05232828
_cell_angle_beta   89.99833226
_cell_angle_gamma   89.99917694
_symmetry_Int_Tables_number   1
_chemical_formula_structural   CuH8(C7N6)2
_chemical_formula_sum   'Cu4 H32 C56 N48'
_cell_volume   1598.10539348
_cell_formula_units_Z   4
loop_
 _symmetry_equiv_pos_site_id
 _symmetry_equiv_pos_as_xyz
  1  'x, y, z'
loop_
 _atom_site_type_symbol
 _atom_site_label
 _atom_site_symmetry_multiplicity
 _atom_site_fract_x
 _atom_site_fract_y
 _atom_site_fract_z
 _atom_site_occupancy
 _atom_site_hle17_ddec_charge
 _atom_site_hle17_ddec_spin_density
 _atom_site_hle17_ddec_sum_bond_order
 _atom_site_hle17_magmom
 _atom_site_hse06_10hf_bader_charge
 _atom_site_hse06_10hf_bader_spin_density
 _atom_site_hse06_10hf_ddec_charge
 _atom_site_hse06_10hf_ddec_spin_density
 _atom_site_hse06_10hf_ddec_sum_bond_order
 _atom_site_hse06_10hf_magmom
 _atom_site_hse06_bader_charge
 _atom_site_hse06_bader_spin_density
 _atom_site_hse06_ddec_charge
 _atom_site_hse06_ddec_spin_density
 _atom_site_hse06_ddec_sum_bond_order
 _atom_site_hse06_magmom
 _atom_site_pbe_cm5_charge
 _atom_site_pbe_ddec_charge
 _atom_site_pbe_ddec_spin_density
 _atom_site_pbe_ddec_sum_bond_order
 _atom_site_pbe_magmom
Cu  Cu0  1  0.52948581  0.82483236  0.39457994  1  0.682122  0.745909  2.010262  0.52  1.081013  0.62202  0.614885  0.809449  2.422903  0.62  1.160755  0.704841  0.694559  0.883703  2.367055  0.7  0.793597  0.569202  0.756985  2.459847  0.568
Cu  Cu1  1  0.02948099  0.67516870  0.10541773  1  0.682179  0.745885  2.010085  0.52  1.080984  0.622003  0.614733  0.809424  2.42292  0.62  1.160624  0.704819  0.69459  0.883673  2.366805  0.7  0.79357  0.569051  0.75698  2.459859  0.568
Cu  Cu2  1  0.47052337  0.17516629  0.60540729  1  0.682074  -0.745876  2.010166  -0.52  1.080977  -0.622001  0.614754  -0.80942  2.422834  -0.62  1.160766  -0.704825  0.694494  -0.883675  2.366856  -0.7  0.793606  0.56905  -0.757049  2.459789  -0.568
Cu  Cu3  1  0.97052357  0.32482914  0.89458323  1  0.682008  -0.745886  2.010102  -0.52  1.080923  -0.622006  0.614661  -0.809428  2.422837  -0.62  1.160433  -0.704817  0.694478  -0.883681  2.366813  -0.7  0.793534  0.568976  -0.756981  2.459798  -0.568
H  H4  1  0.24587224  0.67876110  0.40136126  1  0.078146  0.001663  0.974073  0.003  0.131553  0.002639  0.081312  0.00123  1.043417  0.002  0.138554  0.001929  0.081791  0.000838  1.043652  0.001  0.117425  0.080783  0.001554  1.043393  0.002
H  H5  1  0.74586262  0.82123627  0.09864036  1  0.077945  0.001664  0.974168  0.003  0.131432  0.002641  0.08119  0.00123  1.043456  0.002  0.138478  0.00193  0.081674  0.000839  1.043692  0.001  0.117352  0.080662  0.001554  1.043434  0.002
H  H6  1  0.75412540  0.32122735  0.59863475  1  0.078021  -0.001664  0.974109  -0.003  0.131383  -0.002643  0.081241  -0.001232  1.043403  -0.002  0.138772  -0.00193  0.08172  -0.000839  1.043641  -0.001  0.117393  0.080707  -0.001555  1.043379  -0.002
H  H7  1  0.25414079  0.17876391  0.90136305  1  0.078042  -0.001664  0.974153  -0.003  0.131466  -0.002641  0.081315  -0.001231  1.043403  -0.002  0.138571  -0.001929  0.081801  -0.000839  1.043638  -0.001  0.117405  0.080784  -0.001553  1.043386  -0.002
H  H8  1  0.15822126  0.56236420  0.51041611  1  0.111917  0.00064  0.94413  0.001  0.136036  0.00106  0.120031  0.000546  1.003129  0.001  0.138628  0.00077  0.122505  0.000385  1.003285  0.0  0.110487  0.118257  0.000673  1.003158  0.001
H  H9  1  0.65821558  0.93763516  0.98958964  1  0.111898  0.000641  0.944095  0.001  0.136008  0.001061  0.120082  0.000546  1.003033  0.001  0.138646  0.00077  0.122555  0.000385  1.003192  0.0  0.110535  0.118312  0.000671  1.003062  0.001
H  H10  1  0.84178214  0.43763519  0.48958926  1  0.11188  -0.00064  0.944063  -0.001  0.13603  -0.001061  0.120049  -0.000547  1.003017  -0.001  0.138693  -0.00077  0.122523  -0.000385  1.003175  0.0  0.11048  0.118272  -0.000672  1.003046  -0.001
H  H11  1  0.34178897  0.06236346  0.01041214  1  0.111931  -0.00064  0.944036  -0.001  0.135966  -0.001061  0.1201  -0.000547  1.00298  -0.001  0.138586  -0.00077  0.122574  -0.000385  1.003137  0.0  0.110528  0.118326  -0.000673  1.003013  -0.001
H  H12  1  0.33594479  0.53239372  0.64095415  1  0.091697  0.000326  0.95081  0.001  0.107711  3.4e-05  0.101678  2e-05  1.010606  0.0  0.111194  -2.7e-05  0.103049  -1.8e-05  1.010371  0.0  0.105823  0.100604  6.9e-05  1.010917  0.0
H  H13  1  0.83594825  0.96760640  0.85905069  1  0.091692  0.000325  0.95072  0.001  0.107872  3.5e-05  0.101682  2e-05  1.010508  0.0  0.111316  -2.7e-05  0.103053  -1.7e-05  1.010276  0.0  0.105846  0.100615  6.9e-05  1.010817  0.0
H  H14  1  0.66405400  0.46761272  0.35905025  1  0.091725  -0.000326  0.950709  -0.001  0.107783  -3.4e-05  0.10169  -2e-05  1.010529  0.0  0.111228  2.7e-05  0.103062  1.7e-05  1.010293  0.0  0.105816  0.100614  -7e-05  1.010843  0.0
H  H15  1  0.16405747  0.03239143  0.14095304  1  0.091712  -0.000326  0.950804  -0.001  0.107742  -3.4e-05  0.101688  -2e-05  1.010598  0.0  0.111199  2.7e-05  0.10306  1.7e-05  1.010364  0.0  0.105812  0.100616  -6.9e-05  1.010908  0.0
H  H16  1  0.59289070  0.61901561  0.65560006  1  0.118301  0.000927  0.974545  0.001  0.127536  0.001335  0.127368  0.00067  1.035357  0.001  0.133257  0.000918  0.130044  0.000447  1.034384  0.001  0.111708  0.125394  0.000862  1.036272  0.001
H  H17  1  0.09289986  0.88098620  0.84440168  1  0.118284  0.000929  0.97445  0.001  0.127564  0.001336  0.127314  0.00067  1.035277  0.001  0.133394  0.000918  0.129987  0.000447  1.034309  0.001  0.111669  0.125346  0.000862  1.036196  0.001
H  H18  1  0.40709886  0.38099085  0.34439465  1  0.118192  -0.000928  0.974455  -0.001  0.127908  -0.001337  0.1273  -0.000671  1.035224  -0.001  0.133405  -0.000918  0.129981  -0.000447  1.034243  -0.001  0.111629  0.125322  -0.000861  1.036139  -0.001
H  H19  1  0.90710470  0.11901553  0.15560544  1  0.118195  -0.000928  0.974515  -0.001  0.127483  -0.001337  0.127278  -0.000671  1.03532  -0.001  0.133392  -0.000918  0.129957  -0.000447  1.034347  -0.001  0.111638  0.125299  -0.000865  1.036234  -0.001
H  H20  1  0.81356694  0.68748706  0.65175791  1  0.118172  0.000989  0.965567  0.001  0.111502  0.001447  0.122117  0.000716  1.033786  0.001  0.114226  0.001008  0.125643  0.000484  1.031909  0.001  0.10939  0.119551  0.000913  1.035272  0.001
H  H21  1  0.31359010  0.81251572  0.84824150  1  0.118082  0.000989  0.965512  0.001  0.111182  0.001448  0.121989  0.000717  1.033783  0.001  0.114244  0.001008  0.125519  0.000484  1.031909  0.001  0.109299  0.119422  0.000913  1.035269  0.001
H  H22  1  0.18642492  0.31252018  0.34823691  1  0.118124  -0.000989  0.965462  -0.001  0.111256  -0.001448  0.122039  -0.000717  1.033743  -0.001  0.114197  -0.001008  0.125565  -0.000484  1.031868  -0.001  0.109308  0.119466  -0.000912  1.035227  -0.001
H  H23  1  0.68641331  0.18748290  0.15176235  1  0.118182  -0.00099  0.965551  -0.001  0.111278  -0.001448  0.122092  -0.000717  1.033817  -0.001  0.114142  -0.001008  0.125617  -0.000484  1.031941  -0.001  0.109362  0.119523  -0.000913  1.035298  -0.001
H  H24  1  0.05994918  0.78197203  0.63829458  1  0.103309  0.000352  0.931373  0.001  0.12401  2.4e-05  0.110965  1e-06  0.993583  0.0  0.129292  -2.9e-05  0.113858  -2.2e-05  0.991199  0.0  0.112372  0.108812  3.6e-05  0.995395  0.0
H  H25  1  0.55997060  0.71802318  0.86170876  1  0.103332  0.000352  0.931345  0.001  0.124408  2.4e-05  0.11103  1e-06  0.993538  0.0  0.130264  -2.9e-05  0.113899  -2.2e-05  0.991178  0.0  0.112374  0.108879  3.7e-05  0.995353  0.0
H  H26  1  0.94003807  0.21803051  0.36170366  1  0.103298  -0.000352  0.931219  -0.001  0.12389  -2.4e-05  0.110988  -1e-06  0.993401  0.0  0.129517  2.9e-05  0.113858  2.2e-05  0.99104  0.0  0.112329  0.10883  -3.6e-05  0.995212  0.0
H  H27  1  0.44003396  0.28197231  0.13829321  1  0.103303  -0.000352  0.931383  -0.001  0.124088  -2.4e-05  0.110992  -1e-06  0.993576  0.0  0.129923  2.9e-05  0.113863  2.2e-05  0.991214  0.0  0.112388  0.108835  -3.9e-05  0.995388  0.0
H  H28  1  0.08410031  0.89689627  0.51665286  1  0.111761  0.000656  0.961558  0.001  0.14578  0.000992  0.115047  0.00053  1.03212  0.001  0.148818  0.000714  0.117484  0.000374  1.03235  0.0  0.107924  0.113199  0.00064  1.032187  0.001
H  H29  1  0.58411370  0.60309627  0.98334686  1  0.111694  0.000655  0.961457  0.001  0.145803  0.000992  0.114988  0.00053  1.032029  0.001  0.148637  0.000714  0.117428  0.000375  1.032256  0.0  0.107912  0.113154  0.000648  1.032098  0.001
H  H30  1  0.91588809  0.10309923  0.48334218  1  0.111744  -0.000656  0.96145  -0.001  0.145728  -0.000993  0.115017  -0.00053  1.032047  -0.001  0.148716  -0.000714  0.117457  -0.000375  1.032274  0.0  0.107906  0.113169  -0.000648  1.032116  -0.001
H  H31  1  0.41588855  0.39689922  0.01665442  1  0.111699  -0.000656  0.961462  -0.001  0.145675  -0.000992  0.114969  -0.00053  1.032094  -0.001  0.148696  -0.000714  0.117404  -0.000374  1.032325  0.0  0.107901  0.113143  -0.000646  1.032116  -0.001
H  H32  1  0.85144696  0.92089604  0.41835288  1  0.07643  0.001917  0.978836  0.003  0.153307  0.003044  0.079259  0.001435  1.052612  0.002  0.15555  0.002258  0.079861  0.000989  1.052107  0.002  0.117153  0.078625  0.001797  1.053215  0.003
H  H33  1  0.35144998  0.57910070  0.08164818  1  0.07638  0.001918  0.978887  0.003  0.153211  0.003045  0.079229  0.001435  1.052645  0.002  0.155453  0.002259  0.079829  0.00099  1.052143  0.002  0.117169  0.078597  0.001795  1.053245  0.003
H  H34  1  0.14854606  0.07909634  0.58163544  1  0.076453  -0.00192  0.978834  -0.003  0.15333  -0.003047  0.079308  -0.001436  1.052558  -0.002  0.155586  -0.00226  0.079909  -0.00099  1.052056  -0.002  0.117166  0.078666  -0.001798  1.053172  -0.003
H  H35  1  0.64855112  0.42089557  0.91835461  1  0.076455  -0.001919  0.978808  -0.003  0.15331  -0.003046  0.079306  -0.001435  1.052571  -0.002  0.155579  -0.002259  0.079907  -0.00099  1.052069  -0.002  0.117176  0.07867  -0.001796  1.053178  -0.003
C  C36  1  0.61848979  0.62273793  0.22281299  1  0.227221  0.002726  3.895455  0.003  1.090156  0.002034  0.217996  0.001774  4.162098  0.002  1.175361  0.001458  0.225686  0.001263  4.173548  0.002  0.222833  0.213182  0.002223  4.154192  0.003
C  C37  1  0.11849306  0.87727288  0.27719367  1  0.227195  0.002726  3.895546  0.003  1.090059  0.002022  0.217899  0.001766  4.162295  0.002  1.175318  0.001474  0.225566  0.001275  4.173783  0.002  0.222785  0.213086  0.00222  4.154388  0.003
C  C38  1  0.38150669  0.37727243  0.77718648  1  0.226905  -0.002729  3.895511  -0.003  1.089725  -0.002025  0.217721  -0.001767  4.162127  -0.002  1.175185  -0.001471  0.225398  -0.001272  4.173594  -0.002  0.222777  0.212903  -0.002229  4.154225  -0.003
C  C39  1  0.88149996  0.12273122  0.72280551  1  0.227107  -0.002728  3.895338  -0.003  1.090249  -0.002024  0.217882  -0.001767  4.162025  -0.002  1.174959  -0.001474  0.22556  -0.001274  4.173491  -0.002  0.222761  0.21307  -0.002225  4.154117  -0.003
C  C40  1  0.49312636  0.55874164  0.23864509  1  0.233899  -0.000554  3.727316  -0.001  0.872598  -3.1e-05  0.216388  -3.6e-05  4.007954  0.0  0.892022  -0.00016  0.226812  -0.000122  4.020549  0.0  0.204244  0.208854  5.2e-05  3.99982  0.0
C  C41  1  0.99312934  0.94126337  0.26136034  1  0.23394  -0.000555  3.726632  -0.001  0.87255  -4.3e-05  0.216438  -4.4e-05  4.007308  0.0  0.891834  -0.000143  0.226873  -0.000111  4.0199  0.0  0.204151  0.208906  5e-05  3.999175  0.0
C  C42  1  0.50687243  0.44127108  0.76135337  1  0.234011  0.000561  3.727367  0.001  0.873408  4.1e-05  0.216485  4.3e-05  4.007992  0.0  0.892314  0.000154  0.226914  0.000118  4.020583  0.0  0.204224  0.208955  -5.5e-05  3.999863  0.0
C  C43  1  0.00687175  0.05873915  0.73864552  1  0.234057  0.000554  3.727335  0.001  0.872689  4.1e-05  0.216536  4.3e-05  4.007989  0.0  0.892126  0.000143  0.226965  0.000111  4.020581  0.0  0.204302  0.209006  -5.6e-05  3.999856  0.0
C  C44  1  0.54409065  0.00108874  0.27583122  1  0.231808  -0.00132  3.911359  0.0  1.151501  0.000411  0.216244  0.000832  4.181758  0.002  1.213436  -0.000767  0.226389  -5.3e-05  4.19386  0.001  0.214391  0.209833  0.001488  4.173657  0.003
C  C45  1  0.04409501  0.49892328  0.22417125  1  0.23169  -0.00132  3.911367  0.0  1.151443  0.000416  0.216234  0.000835  4.181567  0.002  1.213113  -0.000784  0.226376  -6.4e-05  4.193681  0.001  0.214361  0.209839  0.001486  4.173444  0.003
C  C46  1  0.45590121  0.99892320  0.72416019  1  0.231585  0.001322  3.911286  0.0  1.151026  -0.000413  0.215828  -0.000834  4.181951  -0.002  1.2135  0.000789  0.225967  6.7e-05  4.194063  -0.001  0.214414  0.209464  -0.001489  4.173784  -0.003
C  C47  1  0.95590608  0.50107612  0.77582926  1  0.231752  0.001323  3.911522  0.0  1.151072  -0.000416  0.216275  -0.000835  4.18176  -0.002  1.213471  0.000783  0.226413  6.3e-05  4.193871  -0.001  0.214419  0.20989  -0.001485  4.17363  -0.003
C  C48  1  0.48140293  0.94344989  0.19226996  1  0.244191  0.000619  3.718606  0.001  0.83616  -4.5e-05  0.229865  -6.6e-05  3.993054  0.0  0.854041  0.000141  0.24043  8.1e-05  4.005287  0.0  0.197517  0.22208  -0.000156  3.985266  0.0
C  C49  1  0.98141083  0.55656467  0.30773581  1  0.244436  0.000611  3.718782  0.001  0.836461  -3.8e-05  0.230097  -6.1e-05  3.993175  0.0  0.854573  0.000129  0.240659  7.3e-05  4.005413  0.0  0.19767  0.222306  -0.000152  3.985379  0.0
C  C50  1  0.51857970  0.05655344  0.80772148  1  0.24465  -0.000619  3.718295  -0.001  0.835938  3.6e-05  0.230405  6e-05  3.992738  0.0  0.853549  -0.000127  0.240969  -7.1e-05  4.004968  0.0  0.197654  0.222604  0.000164  3.984942  0.0
C  C51  1  0.01858449  0.44343942  0.69227237  1  0.244299  -0.000629  3.718434  -0.001  0.835538  3.8e-05  0.229966  6.2e-05  3.992846  0.0  0.853723  -0.000138  0.240532  -7.9e-05  4.005081  0.0  0.197557  0.222168  0.000162  3.985049  0.0
C  C52  1  0.31969042  0.66444967  0.45859252  1  0.143418  -0.007255  3.687956  -0.008  0.424218  -0.002326  0.110995  -0.000729  3.95269  -0.002  0.432262  -0.003938  0.120715  -0.001883  3.972371  -0.003  0.052659  0.104813  0.000149  3.939738  -0.001
C  C53  1  0.81969019  0.83554201  0.04141245  1  0.143644  -0.007237  3.687858  -0.008  0.424121  -0.002328  0.111095  -0.000732  3.952675  -0.002  0.432118  -0.003935  0.120803  -0.001881  3.972377  -0.003  0.052753  0.104918  0.000145  3.939725  -0.001
C  C54  1  0.68029913  0.33553877  0.54140973  1  0.14356  0.007252  3.688195  0.008  0.424191  0.002332  0.111081  0.000735  3.952912  0.002  0.432118  0.003929  0.120793  0.001878  3.972601  0.003  0.052651  0.104895  -0.00015  3.939958  0.001
C  C55  1  0.18031552  0.16445660  0.95859209  1  0.143516  0.007266  3.687928  0.008  0.424177  0.002327  0.110954  0.00073  3.952709  0.002  0.432125  0.003935  0.120664  0.00188  3.972406  0.003  0.052649  0.104778  -0.000152  3.939757  0.001
C  C56  1  0.27146004  0.59905162  0.51977338  1  -0.106799  0.010536  3.703742  0.011  -0.006964  0.006275  -0.118134  0.004329  3.953129  0.005  -0.00329  0.005697  -0.126051  0.003766  3.974547  0.005  -0.073706  -0.11299  0.004818  3.938672  0.006
C  C57  1  0.77145792  0.90094074  0.98023482  1  -0.10681  0.010514  3.70333  0.011  -0.006855  0.006275  -0.118214  0.00433  3.95281  0.005  -0.003178  0.005692  -0.126131  0.003763  3.974231  0.005  -0.073829  -0.113063  0.004823  3.938351  0.006
C  C58  1  0.72853644  0.40093994  0.48023421  1  -0.10694  -0.010536  3.703458  -0.011  -0.006728  -0.00628  -0.118352  -0.004334  3.952909  -0.005  -0.003433  -0.005684  -0.12627  -0.003758  3.974328  -0.005  -0.073827  -0.113211  -0.004821  3.938452  -0.006
C  C59  1  0.22854549  0.09905709  0.01977029  1  -0.106839  -0.010549  3.703587  -0.011  -0.006869  -0.006274  -0.118219  -0.004329  3.953041  -0.005  -0.003167  -0.005692  -0.126137  -0.003763  3.97446  -0.005  -0.07378  -0.113079  -0.00482  3.938587  -0.006
C  C60  1  0.37053069  0.58281721  0.59174338  1  0.017234  -0.008536  3.698097  -0.008  -0.055374  -0.004089  -0.001082  -0.002685  3.943702  -0.002  -0.059539  -0.004584  0.003829  -0.002889  3.961867  -0.003  -0.059629  -0.004282  -0.002535  3.931431  -0.002
C  C61  1  0.87053170  0.91718245  0.90826355  1  0.01735  -0.008511  3.697802  -0.008  -0.055066  -0.004088  -0.000979  -0.002684  3.94341  -0.002  -0.059729  -0.004578  0.003932  -0.002886  3.961571  -0.003  -0.059561  -0.004177  -0.00253  3.931146  -0.002
C  C62  1  0.62946579  0.41718610  0.40826260  1  0.017284  0.008535  3.697593  0.008  -0.055356  0.004089  -0.001025  0.002685  3.943192  0.002  -0.059504  0.004578  0.003886  0.002886  3.961357  0.003  -0.059604  -0.004234  0.002529  3.93093  0.002
C  C63  1  0.12947286  0.08281695  0.09174181  1  0.017231  0.008547  3.697869  0.008  -0.055316  0.004088  -0.001068  0.002684  3.943487  0.002  -0.059773  0.004584  0.003841  0.002889  3.961652  0.003  -0.059579  -0.004266  0.002528  3.931217  0.002
C  C64  1  0.51408195  0.63152415  0.59995975  1  -0.126059  0.007352  3.675702  0.007  0.08635  0.004008  -0.145498  0.00292  3.918844  0.003  0.089503  0.003778  -0.152876  0.002613  3.939524  0.003  -0.072501  -0.140658  0.003205  3.904955  0.003
C  C65  1  0.01408407  0.86847244  0.90004670  1  -0.125973  0.007328  3.675452  0.007  0.086376  0.004006  -0.145344  0.002919  3.918575  0.003  0.089901  0.003775  -0.152713  0.002611  3.939246  0.003  -0.072371  -0.140509  0.003206  3.904702  0.003
C  C66  1  0.48591107  0.36847211  0.40004720  1  -0.125833  -0.007351  3.675032  -0.007  0.086397  -0.004003  -0.145247  -0.002917  3.918127  -0.003  0.08987  -0.003781  -0.152621  -0.002615  3.938804  -0.003  -0.072273  -0.140416  -0.003204  3.904247  -0.003
C  C67  1  0.98591587  0.13152617  0.09995716  1  -0.125895  -0.007365  3.675279  -0.007  0.086574  -0.004007  -0.145355  -0.00292  3.918469  -0.003  0.089804  -0.003786  -0.152733  -0.002618  3.939146  -0.003  -0.072381  -0.140516  -0.003198  3.904587  -0.003
C  C68  1  0.55486351  0.69661993  0.53655900  1  0.179011  -0.003332  3.758554  -0.003  0.479433  0.000109  0.175328  0.000689  4.004251  0.0  0.460119  -0.00156  0.183561  -0.00054  4.024431  -0.001  0.122692  0.1699  0.001614  3.990953  0.001
C  C69  1  0.05486743  0.80337611  0.96344942  1  0.17881  -0.003312  3.75909  -0.003  0.479296  0.00011  0.17511  0.000689  4.004727  0.0  0.459436  -0.001557  0.183337  -0.000539  4.024919  -0.001  0.122652  0.169679  0.001614  3.991435  0.001
C  C70  1  0.44513413  0.30336928  0.46344822  1  0.178893  0.003328  3.758873  0.003  0.478454  -0.000116  0.1751  -0.000692  4.004631  0.0  0.496229  0.001535  0.183325  0.000541  4.024816  0.001  0.122576  0.169669  -0.001611  3.991333  -0.001
C  C71  1  0.94513482  0.19662406  0.03655607  1  0.17898  0.003342  3.758793  0.004  0.478699  -0.000111  0.17524  -0.000689  4.004488  0.0  0.459989  0.001564  0.183472  0.000544  4.024676  0.001  0.122606  0.169811  -0.001615  3.991192  -0.001
C  C72  1  0.70228929  0.75301420  0.53993508  1  0.1859  -0.003173  3.729641  -0.003  0.474158  0.000266  0.181906  0.000894  3.971113  0.0  0.52895  -0.001412  0.190856  -0.000386  3.99137  -0.001  0.123126  0.176141  0.001878  3.957731  0.001
C  C73  1  0.20229459  0.74698535  0.96007409  1  0.18594  -0.003176  3.729902  -0.003  0.474368  0.000268  0.181934  0.000895  3.97128  0.0  0.529457  -0.001412  0.190882  -0.000387  3.991559  -0.001  0.123079  0.176177  0.001879  3.957902  0.001
C  C74  1  0.29771643  0.24697658  0.46007100  1  0.18609  0.003172  3.729777  0.003  0.474362  -0.000272  0.182105  -0.000895  3.971182  0.0  0.493  0.001445  0.191049  0.000391  3.991441  0.001  0.123275  0.176338  -0.001875  3.957807  -0.001
C  C75  1  0.79771112  0.25301561  0.03993291  1  0.185909  0.003169  3.729928  0.003  0.474492  -0.000267  0.182011  -0.000892  3.971222  0.0  0.529715  0.001414  0.190954  0.000387  3.991498  0.001  0.123205  0.176243  -0.001882  3.957841  -0.001
C  C76  1  0.82408770  0.73947205  0.60031823  1  -0.126215  0.007883  3.661173  0.008  -0.01006  0.004235  -0.141972  0.003086  3.90119  0.003  -0.015765  0.003957  -0.149715  0.002738  3.921082  0.003  -0.070698  -0.136888  0.003406  3.88782  0.004
C  C77  1  0.32409794  0.76052901  0.89968696  1  -0.126056  0.007885  3.660853  0.008  -0.009625  0.004232  -0.141761  0.003085  3.900873  0.003  -0.015482  0.00396  -0.149501  0.00274  3.920743  0.003  -0.070621  -0.136676  0.003402  3.887497  0.004
C  C78  1  0.17591455  0.26052501  0.39968191  1  -0.126312  -0.007885  3.660825  -0.008  -0.009645  -0.004232  -0.142057  -0.003086  3.900859  -0.003  -0.015716  -0.003962  -0.149795  -0.002741  3.920746  -0.003  -0.070729  -0.136982  -0.003409  3.88749  -0.004
C  C79  1  0.67590546  0.23947117  0.10031852  1  -0.126223  -0.007883  3.660986  -0.008  -0.009697  -0.004237  -0.141962  -0.003088  3.900985  -0.003  -0.01558  -0.00396  -0.149695  -0.00274  3.920858  -0.003  -0.070711  -0.13688  -0.003403  3.887609  -0.004
C  C80  1  0.96251257  0.79190362  0.59288912  1  0.019365  -0.008999  3.694633  -0.008  0.00447  -0.004193  -0.000499  -0.002763  3.943557  -0.003  0.00489  -0.004674  0.004202  -0.002959  3.961481  -0.003  -0.056377  -0.003526  -0.002603  3.931461  -0.002
C  C81  1  0.46252936  0.70809324  0.90711576  1  0.019216  -0.008999  3.694584  -0.008  0.003706  -0.004192  -0.000709  -0.002763  3.943604  -0.003  0.004441  -0.004675  0.004016  -0.002959  3.96153  -0.003  -0.056338  -0.003736  -0.0026  3.931516  -0.002
C  C82  1  0.03748045  0.20809110  0.40710788  1  0.019345  0.008999  3.69423  0.008  0.004505  0.004192  -0.00052  0.002763  3.943167  0.003  0.005135  0.004674  0.004202  0.002959  3.961091  0.003  -0.05637  -0.003545  0.002613  3.93107  0.002
C  C83  1  0.53747289  0.29190459  0.09288797  1  0.019305  0.009  3.69463  0.008  0.004169  0.004191  -0.000593  0.002762  3.943581  0.003  0.004742  0.004675  0.004131  0.00296  3.961504  0.003  -0.056407  -0.003622  0.002599  3.931488  0.002
C  C84  1  0.97635406  0.85654960  0.52570648  1  -0.107829  0.011093  3.685462  0.012  -0.065541  0.006648  -0.120647  0.004459  3.936492  0.005  0.003937  0.005857  -0.129436  0.003846  3.959518  0.005  -0.079023  -0.114957  0.004982  3.921134  0.006
C  C85  1  0.47635745  0.64344238  0.97429878  1  -0.107681  0.011097  3.685262  0.012  -0.065772  0.006652  -0.120551  0.00446  3.936455  0.005  0.003069  0.005854  -0.129336  0.003844  3.959471  0.005  -0.078965  -0.114867  0.00497  3.921109  0.006
C  C86  1  0.02365511  0.14344041  0.47429394  1  -0.10778  -0.011097  3.685235  -0.012  -0.066086  -0.006651  -0.120661  -0.00446  3.936442  -0.005  0.003552  -0.005858  -0.129447  -0.003847  3.959461  -0.005  -0.07895  -0.114979  -0.004983  3.921095  -0.006
C  C87  1  0.52364364  0.35655389  0.02570470  1  -0.107664  -0.011094  3.685299  -0.012  -0.065543  -0.006644  -0.120543  -0.004456  3.936483  -0.005  0.003247  -0.005856  -0.129328  -0.003845  3.9595  -0.005  -0.078968  -0.114853  -0.004969  3.921147  -0.006
C  C88  1  0.84903063  0.86916902  0.46995596  1  0.146833  -0.007968  3.677386  -0.009  0.486979  -0.002815  0.111738  -0.001017  3.944696  -0.002  0.436582  -0.004303  0.121763  -0.002187  3.96374  -0.004  0.053168  0.105302  -0.000102  3.932296  -0.001
C  C89  1  0.34902695  0.63082775  0.03004792  1  0.146984  -0.00797  3.677463  -0.009  0.487695  -0.002818  0.111867  -0.001018  3.944772  -0.002  0.437531  -0.0043  0.12189  -0.002185  3.963829  -0.004  0.053163  0.105447  -9.5e-05  3.932363  -0.001
C  C90  1  0.15098432  0.13082413  0.53003941  1  0.14693  0.007969  3.677768  0.009  0.487858  0.002817  0.111793  0.001017  3.94508  0.002  0.43664  0.004301  0.121808  0.002186  3.964125  0.004  0.053137  0.105382  9.8e-05  3.932614  0.001
C  C91  1  0.65097530  0.36916930  0.96995638  1  0.146793  0.00797  3.677339  0.009  0.487121  0.002814  0.111656  0.001016  3.944687  0.002  0.436727  0.004298  0.121679  0.002184  3.963742  0.004  0.053107  0.105229  9.4e-05  3.932262  0.001
N  N92  1  0.64517383  0.72085506  0.27038822  1  -0.268724  0.004578  3.109132  0.007  -0.636846  0.003081  -0.24803  0.002252  3.421137  0.004  -0.693087  0.000818  -0.26325  0.000899  3.433321  0.003  -0.20666  -0.238234  0.003872  3.413355  0.006
N  N93  1  0.14517344  0.77915225  0.22962158  1  -0.26865  0.004578  3.108872  0.007  -0.636298  0.003087  -0.24786  0.002255  3.4208  0.004  -0.692901  0.000811  -0.263102  0.000894  3.432993  0.003  -0.206508  -0.238067  0.003868  3.41302  0.006
N  N94  1  0.35483073  0.27915452  0.72961113  1  -0.268469  -0.004576  3.108879  -0.007  -0.636516  -0.003082  -0.247759  -0.002253  3.420814  -0.004  -0.692857  -0.000814  -0.262981  -0.000896  3.433002  -0.003  -0.206581  -0.23796  -0.003866  3.41303  -0.006
N  N95  1  0.85481496  0.22084950  0.77037862  1  -0.268491  -0.004577  3.108734  -0.007  -0.636551  -0.003085  -0.247746  -0.002254  3.420667  -0.004  -0.692755  -0.000813  -0.262987  -0.000895  3.432864  -0.003  -0.206465  -0.237959  -0.003867  3.412891  -0.006
N  N96  1  0.77703248  0.75013540  0.23644310  1  -0.054726  -0.003155  2.930031  -0.003  -0.076962  0.00019  -0.048509  0.00025  3.231758  0.001  -0.075572  -0.001655  -0.045448  -0.000876  3.247085  -0.001  -0.08106  -0.04986  0.000989  3.221668  0.002
N  N97  1  0.27703339  0.74986781  0.26356513  1  -0.054868  -0.003156  2.930097  -0.003  -0.077251  0.00019  -0.048665  0.000249  3.231858  0.001  -0.075084  -0.001651  -0.045601  -0.000873  3.247178  -0.001  -0.081214  -0.050021  0.00099  3.221771  0.002
N  N98  1  0.22297554  0.24986948  0.76355897  1  -0.054867  0.003154  2.929876  0.003  -0.077199  -0.00019  -0.048639  -0.000249  3.231707  -0.001  -0.075503  0.00165  -0.045581  0.000873  3.247037  0.001  -0.081089  -0.049998  -0.000995  3.221617  -0.002
N  N99  1  0.72295963  0.25012769  0.73642992  1  -0.05497  0.003154  2.930422  0.003  -0.07701  -0.00019  -0.048789  -0.000249  3.232247  -0.001  -0.075144  0.001649  -0.045729  0.000872  3.247576  0.001  -0.081251  -0.050141  -0.000989  3.222152  -0.002
N  N100  1  0.82582775  0.67197338  0.17050615  1  -0.086279  0.071143  3.30496  0.086  -0.220642  0.07256  -0.052993  0.05174  3.637063  0.067  -0.239501  0.061929  -0.072901  0.043859  3.655093  0.059  -0.129723  -0.041578  0.056353  3.626337  0.071
N  N101  1  0.32583186  0.82803230  0.32950232  1  -0.086153  0.071137  3.304707  0.086  -0.221511  0.072554  -0.05293  0.051736  3.636865  0.067  -0.239755  0.061921  -0.072803  0.043854  3.654878  0.059  -0.129607  -0.041514  0.056345  3.62614  0.071
N  N102  1  0.17417681  0.32803072  0.82949788  1  -0.086166  -0.071144  3.304667  -0.086  -0.221319  -0.072564  -0.053016  -0.051743  3.636946  -0.067  -0.239479  -0.061924  -0.072917  -0.043855  3.654976  -0.059  -0.129747  -0.041603  -0.056347  3.626226  -0.071
N  N103  1  0.67417501  0.17196475  0.67049713  1  -0.086066  -0.071148  3.305162  -0.086  -0.221599  -0.072568  -0.052822  -0.051746  3.637292  -0.067  -0.239849  -0.061926  -0.072704  -0.043858  3.655314  -0.059  -0.129631  -0.041403  -0.056352  3.626557  -0.071
N  N104  1  0.73011988  0.59050848  0.15961068  1  -0.239646  -0.000532  2.891237  -0.001  -0.593608  0.002614  -0.227462  0.001512  3.159655  0.002  -0.608787  0.000926  -0.229952  0.000454  3.172618  0.0  -0.194079  -0.225311  0.0023  3.151001  0.003
N  N105  1  0.23011823  0.90950319  0.34039278  1  -0.239631  -0.000533  2.890879  -0.001  -0.592787  0.002621  -0.227426  0.001518  3.159364  0.002  -0.609175  0.000914  -0.229903  0.000447  3.172309  0.0  -0.194069  -0.225271  0.002309  3.150704  0.003
N  N106  1  0.26987776  0.40949953  0.84039258  1  -0.239595  0.000533  2.890928  0.001  -0.59275  -0.00262  -0.227379  -0.001518  3.159391  -0.002  -0.609035  -0.000919  -0.229862  -0.00045  3.17235  0.0  -0.194069  -0.225242  -0.002302  3.150746  -0.003
N  N107  1  0.76987825  0.09050013  0.65960351  1  -0.239764  0.000531  2.89113  0.001  -0.592944  -0.002623  -0.227575  -0.001519  3.159594  -0.002  -0.608839  -0.000919  -0.23006  -0.00045  3.172545  0.0  -0.194101  -0.225432  -0.002304  3.15094  -0.003
N  N108  1  0.39287721  0.50297607  0.25129967  1  -0.334691  0.00121  2.634096  0.001  -1.13976  0.0013  -0.316044  0.000779  2.874877  0.001  -1.17777  0.000979  -0.324676  0.000584  2.887504  0.001  -0.270951  -0.310112  0.000999  2.866596  0.001
N  N109  1  0.89287152  0.99703577  0.24870444  1  -0.334814  0.001212  2.633434  0.001  -1.139724  0.001312  -0.316136  0.000788  2.874149  0.001  -1.177673  0.000961  -0.324771  0.000572  2.886778  0.001  -0.270896  -0.310204  0.001003  2.86587  0.001
N  N110  1  0.60712043  0.49703429  0.74870466  1  -0.334756  -0.001217  2.634196  -0.001  -1.140438  -0.001309  -0.316079  -0.000786  2.874931  -0.001  -1.17791  -0.000974  -0.324714  -0.00058  2.887563  -0.001  -0.27095  -0.310153  -0.000997  2.866654  -0.001
N  N111  1  0.10711919  0.00297694  0.75129679  1  -0.334799  -0.00121  2.634201  -0.001  -1.139837  -0.001311  -0.316141  -0.000787  2.874976  -0.001  -1.177864  -0.000962  -0.324773  -0.000572  2.887603  -0.001  -0.271013  -0.31022  -0.000994  2.866702  -0.001
N  N112  1  0.57761905  0.96413499  0.35590624  1  -0.271578  0.072628  3.235894  0.089  -0.706209  0.072613  -0.246362  0.050514  3.567394  0.066  -0.748472  0.060924  -0.272738  0.042181  3.585452  0.057  -0.238982  -0.230576  0.055625  3.556786  0.07
N  N113  1  0.07761883  0.53586776  0.14409432  1  -0.271658  0.072626  3.236144  0.089  -0.70628  0.072613  -0.246447  0.050513  3.567639  0.066  -0.748754  0.060927  -0.272852  0.042183  3.585696  0.057  -0.239029  -0.230665  0.055623  3.557032  0.07
N  N114  1  0.42238666  0.03587068  0.64408696  1  -0.27162  -0.072627  3.236189  -0.089  -0.706745  -0.072613  -0.246351  -0.050514  3.567774  -0.066  -0.749294  -0.060926  -0.272727  -0.042185  3.585829  -0.057  -0.239098  -0.230575  -0.055623  3.55715  -0.07
N  N115  1  0.92237996  0.46413008  0.85590525  1  -0.271577  -0.072628  3.236007  -0.089  -0.706325  -0.072612  -0.24636  -0.050514  3.567471  -0.066  -0.748804  -0.060927  -0.272755  -0.042184  3.585534  -0.057  -0.239036  -0.230577  -0.055624  3.556859  -0.07
N  N116  1  0.63881251  0.04559895  0.41426937  1  -0.090722  -0.002788  2.937173  -0.003  -0.115979  0.000699  -0.08841  0.000653  3.261758  0.0  -0.117395  -0.000607  -0.087941  -0.000154  3.274128  -0.001  -0.090882  -0.088796  0.00122  3.25415  0.001
N  N117  1  0.13880029  0.45440320  0.08572781  1  -0.090708  -0.002788  2.937259  -0.003  -0.116033  0.000699  -0.088412  0.000653  3.261856  0.0  -0.117289  -0.0006  -0.087948  -0.00015  3.27424  -0.001  -0.090923  -0.088809  0.00122  3.254262  0.001
N  N118  1  0.36120590  0.95441064  0.58572029  1  -0.090682  0.002787  2.936913  0.003  -0.116286  -0.0007  -0.088362  -0.000653  3.261456  0.0  -0.117416  0.000599  -0.087888  0.000149  3.273806  0.001  -0.090811  -0.088741  -0.00119  3.253851  -0.001
N  N119  1  0.86119619  0.54559307  0.91427220  1  -0.090729  0.002787  2.937077  0.003  -0.116079  -0.000699  -0.088429  -0.000653  3.261653  0.0  -0.11733  0.000595  -0.087963  0.000146  3.274029  0.001  -0.090902  -0.088828  -0.001218  3.254061  -0.001
N  N120  1  0.64249672  0.12739680  0.37078469  1  -0.069241  0.011354  2.972139  0.013  -0.105772  0.008193  -0.060452  0.005413  3.28765  0.007  -0.106539  0.005115  -0.063099  0.003301  3.300577  0.004  -0.085251  -0.057282  0.007693  3.277757  0.009
N  N121  1  0.14248532  0.37260531  0.12921103  1  -0.069091  0.011354  2.972114  0.013  -0.105775  0.008195  -0.060286  0.005414  3.287593  0.007  -0.10654  0.005108  -0.062929  0.003297  3.300519  0.004  -0.085212  -0.057124  0.007699  3.277716  0.009
N  N122  1  0.35751130  0.87260889  0.62919811  1  -0.06899  -0.011347  2.971955  -0.013  -0.105483  -0.008193  -0.060204  -0.005413  3.287455  -0.007  -0.106839  -0.005103  -0.062846  -0.003294  3.30038  -0.004  -0.085128  -0.05705  -0.00769  3.277589  -0.009
N  N123  1  0.85751231  0.62739253  0.87078993  1  -0.069151  -0.01135  2.971954  -0.013  -0.105726  -0.008194  -0.060361  -0.005414  3.287457  -0.007  -0.106498  -0.005105  -0.063009  -0.003295  3.300386  -0.004  -0.085266  -0.057203  -0.007689  3.277594  -0.009
N  N124  1  0.58284571  0.10259997  0.28403704  1  -0.275962  0.003324  2.910799  0.004  -0.636315  0.002375  -0.256251  0.001589  3.186546  0.002  -0.662159  0.001694  -0.262911  0.001111  3.195612  0.001  -0.205373  -0.251361  0.00193  3.179557  0.002
N  N125  1  0.08284689  0.39740684  0.21596324  1  -0.276004  0.003324  2.910668  0.004  -0.636056  0.002371  -0.256333  0.001586  3.186383  0.002  -0.66182  0.00171  -0.262993  0.001121  3.195448  0.001  -0.205329  -0.251444  0.001923  3.179391  0.002
N  N126  1  0.41714385  0.89740337  0.71594539  1  -0.276071  -0.003326  2.910576  -0.004  -0.635506  -0.00237  -0.256303  -0.001586  3.186384  -0.002  -0.661303  -0.001713  -0.262965  -0.001123  3.195454  -0.001  -0.205476  -0.251432  -0.001919  3.1794  -0.002
N  N127  1  0.91715537  0.60259334  0.78403948  1  -0.275988  -0.003327  2.91059  -0.004  -0.635593  -0.002369  -0.256317  -0.001585  3.186318  -0.002  -0.66171  -0.001705  -0.262973  -0.001118  3.195382  -0.001  -0.205337  -0.25144  -0.001925  3.179343  -0.002
N  N128  1  0.43039632  0.89949309  0.12127445  1  -0.359483  -0.001938  2.548872  -0.002  -1.171691  -0.000922  -0.337055  -0.000585  2.766474  -0.001  -1.203626  -0.001125  -0.344549  -0.000693  2.779414  -0.001  -0.291944  -0.331831  -0.000505  2.758019  -0.001
N  N129  1  0.93040099  0.60051745  0.37873227  1  -0.359629  -0.001928  2.549091  -0.002  -1.172043  -0.000929  -0.337233  -0.00059  2.766723  -0.001  -1.204018  -0.001112  -0.344725  -0.000684  2.779659  -0.001  -0.292068  -0.332004  -0.000515  2.758262  -0.001
N  N130  1  0.56959323  0.10051181  0.87871654  1  -0.359855  0.001937  2.548609  0.002  -1.171232  0.000929  -0.337454  0.00059  2.766208  0.001  -1.203053  0.00111  -0.344945  0.000682  2.779136  0.001  -0.292123  -0.332226  0.000517  2.757757  0.001
N  N131  1  0.06960818  0.39948430  0.62126446  1  -0.359564  0.001947  2.548375  0.002  -1.171138  0.000928  -0.337166  0.000589  2.765996  0.001  -1.203575  0.001122  -0.344661  0.000691  2.778943  0.001  -0.291964  -0.331931  0.000515  2.757533  0.001
N  N132  1  0.45754828  0.71205569  0.46662221  1  -0.31343  0.09839  3.31731  0.121  -1.255388  0.097008  -0.275244  0.06527  3.618247  0.086  -1.319548  0.079942  -0.307294  0.053485  3.642093  0.074  -0.335155  -0.256425  0.072002  3.604211  0.091
N  N133  1  0.95754716  0.78794276  0.03337865  1  -0.313449  0.098371  3.317876  0.121  -1.25571  0.097007  -0.275208  0.06527  3.618858  0.086  -1.319146  0.079941  -0.307285  0.053485  3.642706  0.074  -0.33519  -0.256389  0.071995  3.604821  0.091
N  N134  1  0.54245166  0.28793903  0.53336925  1  -0.313386  -0.098386  3.318245  -0.121  -1.255111  -0.096998  -0.275129  -0.065267  3.619157  -0.086  -1.319729  -0.079937  -0.307179  -0.053483  3.642996  -0.074  -0.335118  -0.256308  -0.071994  3.605116  -0.091
N  N135  1  0.04245625  0.21205585  0.96662590  1  -0.313426  -0.098405  3.31754  -0.121  -1.254882  -0.097007  -0.275174  -0.065273  3.618495  -0.086  -1.319403  -0.079948  -0.307251  -0.053491  3.642353  -0.074  -0.33512  -0.256353  -0.071992  3.60446  -0.091
N  N136  1  0.71535852  0.81927821  0.47732780  1  -0.289375  0.100731  3.287615  0.123  -1.227392  0.097789  -0.248432  0.065698  3.583409  0.086  -1.290189  0.08056  -0.280204  0.053868  3.605615  0.074  -0.33449  -0.229795  0.072306  3.570257  0.091
N  N137  1  0.21536451  0.68072348  0.02267365  1  -0.289483  0.100731  3.287911  0.123  -1.227729  0.097788  -0.248407  0.065699  3.583604  0.086  -1.291442  0.08056  -0.280222  0.053869  3.605834  0.074  -0.334488  -0.229783  0.072303  3.570469  0.091
N  N138  1  0.28463796  0.18071886  0.52266611  1  -0.289427  -0.100727  3.288185  -0.123  -1.227767  -0.097786  -0.248363  -0.065699  3.583856  -0.086  -1.29081  -0.080561  -0.280149  -0.05387  3.606101  -0.074  -0.334517  -0.229737  -0.072314  3.570715  -0.091
N  N139  1  0.78463889  0.31927435  0.97733077  1  -0.289354  -0.100727  3.287846  -0.123  -1.227571  -0.097784  -0.24836  -0.065698  3.583557  -0.086  -1.290948  -0.080556  -0.280157  -0.053866  3.605775  -0.074  -0.33447  -0.229725  -0.072301  3.570414  -0.091
