# generated using pymatgen
data_CdH18C27(N3O2)2
_symmetry_space_group_name_H-M   'P 1'
_cell_length_a   11.33700928
_cell_length_b   13.74188063
_cell_length_c   24.79768982
_cell_angle_alpha   89.99994870
_cell_angle_beta   90.00016092
_cell_angle_gamma   114.39641251
_symmetry_Int_Tables_number   1
_chemical_formula_structural   CdH18C27(N3O2)2
_chemical_formula_sum   'Cd4 H72 C108 N24 O16'
_cell_volume   3518.32355361
_cell_formula_units_Z   4
loop_
 _symmetry_equiv_pos_site_id
 _symmetry_equiv_pos_as_xyz
  1  'x, y, z'
loop_
 _atom_site_type_symbol
 _atom_site_label
 _atom_site_symmetry_multiplicity
 _atom_site_fract_x
 _atom_site_fract_y
 _atom_site_fract_z
 _atom_site_occupancy
 _atom_site_pbe_bader_charge
 _atom_site_pbe_bader_spin_density
 _atom_site_pbe_cm5_charge
 _atom_site_pbe_ddec_charge
 _atom_site_pbe_ddec_spin_density
 _atom_site_pbe_ddec_sum_bond_order
 _atom_site_pbe_magmom
Cd  Cd0  1  0.35523235  0.17429441  0.83816496  1  1.255637  0  0.763506  0.818499  0  2.296014  0
Cd  Cd1  1  0.14476843  0.32570570  0.33816417  1  1.255674  0  0.763479  0.818455  0  2.296079  0
Cd  Cd2  1  0.64476880  0.82570623  0.16183585  1  1.255628  0  0.763478  0.81842  0  2.29608  0
Cd  Cd3  1  0.85523143  0.67429413  0.66183582  1  1.255698  0  0.763493  0.818461  0  2.296089  0
H  H4  1  0.85641900  0.88789106  0.93355624  1  0.090094  0  0.116865  0.131775  0  0.994204  0
H  H5  1  0.64357679  0.61210943  0.43355718  1  0.09008  0  0.116819  0.131674  0  0.994163  0
H  H6  1  0.14357654  0.11210716  0.06644375  1  0.090063  0  0.116836  0.131756  0  0.994189  0
H  H7  1  0.35642573  0.38789041  0.56644322  1  0.090094  0  0.116826  0.131684  0  0.99416  0
H  H8  1  0.88371817  0.66354145  0.81695755  1  0.198974  0  0.12335  0.164814  0  1.022471  0
H  H9  1  0.61628169  0.83645979  0.31695673  1  0.198938  0  0.123343  0.164844  0  1.022411  0
H  H10  1  0.11628474  0.33645920  0.18304446  1  0.198927  0  0.123341  0.164819  0  1.022419  0
H  H11  1  0.38371994  0.16354004  0.68304367  1  0.198894  0  0.123332  0.164842  0  1.022395  0
H  H12  1  0.59356116  0.55561449  0.94294292  1  0.103549  0  0.114811  0.129983  0  1.003299  0
H  H13  1  0.90643469  0.94438601  0.44294483  1  0.103576  0  0.114806  0.129981  0  1.00336  0
H  H14  1  0.40643743  0.44438454  0.05705708  1  0.103571  0  0.11481  0.130006  0  1.003308  0
H  H15  1  0.09356252  0.05561381  0.55705718  1  0.103596  0  0.114797  0.12996  0  1.003368  0
H  H16  1  0.46344380  0.69523488  0.95650253  1  0.124765  0  0.12248  0.123301  0  1.030516  0
H  H17  1  0.03655073  0.80476104  0.45650081  1  0.124831  0  0.122495  0.123296  0  1.030439  0
H  H18  1  0.53655094  0.30476174  0.04349868  1  0.12483  0  0.122481  0.123282  0  1.030477  0
H  H19  1  0.96344904  0.19524039  0.54349959  1  0.124873  0  0.122493  0.1233  0  1.030425  0
H  H20  1  0.42526460  0.76876777  0.05755625  1  0.121212  0  0.126352  0.125494  0  0.979547  0
H  H21  1  0.07473306  0.73122873  0.55755664  1  0.121234  0  0.126341  0.125504  0  0.979501  0
H  H22  1  0.57473191  0.23122886  0.94244496  1  0.121285  0  0.126351  0.125516  0  0.979535  0
H  H23  1  0.92526710  0.26877350  0.44244376  1  0.121623  0  0.126335  0.125481  0  0.979499  0
H  H24  1  0.81359226  0.81031203  0.04554771  1  0.161864  0  0.139791  0.109178  0  0.980083  0
H  H25  1  0.68640418  0.68968745  0.54554746  1  0.161806  0  0.139782  0.109147  0  0.980078  0
H  H26  1  0.18640544  0.18968699  0.95445229  1  0.161823  0  0.139803  0.109179  0  0.980065  0
H  H27  1  0.31359608  0.31031319  0.45445213  1  0.161813  0  0.139778  0.109158  0  0.980085  0
H  H28  1  0.92830980  0.83064028  0.76554025  1  0.208528  0  0.123424  0.136979  0  1.061396  0
H  H29  1  0.57168588  0.66935852  0.26553986  1  0.208622  0  0.123448  0.13702  0  1.061362  0
H  H30  1  0.07168750  0.16935795  0.23446015  1  0.208524  0  0.123444  0.137001  0  1.061358  0
H  H31  1  0.42831672  0.33063973  0.73446055  1  0.208618  0  0.123428  0.137002  0  1.061383  0
H  H32  1  0.15160541  0.01989444  0.74964694  1  0.128229  0  0.118137  0.114437  0  1.023936  0
H  H33  1  0.34839538  0.48010323  0.24964634  1  0.128146  0  0.118137  0.114459  0  1.023921  0
H  H34  1  0.84839357  0.98010539  0.25035265  1  0.128228  0  0.118127  0.114412  0  1.023961  0
H  H35  1  0.65160851  0.51989582  0.75035446  1  0.131465  0  0.118131  0.114417  0  1.023987  0
H  H36  1  0.10452042  0.95555613  0.91601258  1  0.08215  0  0.132375  0.093225  0  1.000052  0
H  H37  1  0.39547613  0.54444615  0.41601064  1  0.082222  0  0.132355  0.093191  0  0.999972  0
H  H38  1  0.89547926  0.04444689  0.08398783  1  0.082172  0  0.132343  0.093185  0  0.999944  0
H  H39  1  0.60452422  0.45555289  0.58398895  1  0.082204  0  0.132323  0.093126  0  0.999991  0
H  H40  1  0.86202555  0.48658688  0.82682987  1  0.140805  0  0.124357  0.129356  0  1.037534  0
H  H41  1  0.63798274  0.01341783  0.32682843  1  0.140929  0  0.124338  0.129347  0  1.037548  0
H  H42  1  0.13798147  0.51341139  0.17317093  1  0.139974  0  0.124349  0.129365  0  1.037515  0
H  H43  1  0.36201889  0.98658200  0.67317156  1  0.140905  0  0.124358  0.129352  0  1.037487  0
H  H44  1  0.69005489  0.27857364  0.80245658  1  0.139189  0  0.127111  0.128355  0  0.981366  0
H  H45  1  0.80995914  0.22142870  0.30245283  1  0.138869  0  0.127137  0.128398  0  0.981321  0
H  H46  1  0.30995077  0.72142542  0.19754423  1  0.139115  0  0.127146  0.128401  0  0.981405  0
H  H47  1  0.19004563  0.77857036  0.69754474  1  0.139058  0  0.127133  0.128378  0  0.981331  0
H  H48  1  0.47852435  0.43624423  0.87181649  1  0.174133  0  0.135341  0.108611  0  1.008302  0
H  H49  1  0.02147828  0.06375032  0.37181850  1  0.174289  0  0.135335  0.108563  0  1.008369  0
H  H50  1  0.52147923  0.56375243  0.12818189  1  0.17429  0  0.135346  0.10859  0  1.008361  0
H  H51  1  0.97852127  0.93624711  0.62818270  1  0.17403  0  0.135331  0.108573  0  1.008415  0
H  H52  1  0.61620611  0.08885157  0.69992243  1  0.084291  0  0.098732  0.100989  0  1.011981  0
H  H53  1  0.88378829  0.41114983  0.19992393  1  0.084372  0  0.098742  0.100987  0  1.012037  0
H  H54  1  0.38379573  0.91115226  0.30007676  1  0.084356  0  0.098738  0.101022  0  1.011991  0
H  H55  1  0.11620450  0.58884998  0.80007768  1  0.084288  0  0.098721  0.100975  0  1.011997  0
H  H56  1  0.71391390  0.97276801  0.65894345  1  0.083911  0  0.095032  0.095731  0  1.029569  0
H  H57  1  0.78608604  0.52723713  0.15894381  1  0.083936  0  0.095034  0.095754  0  1.029536  0
H  H58  1  0.28608578  0.02723501  0.34105493  1  0.083962  0  0.095054  0.095764  0  1.029557  0
H  H59  1  0.21391148  0.47276509  0.84105740  1  0.083919  0  0.095018  0.095724  0  1.029557  0
H  H60  1  0.57758163  0.66381649  0.77227860  1  0.11118  0  0.096203  0.105256  0  1.057461  0
H  H61  1  0.92242257  0.83618873  0.27227776  1  0.111066  0  0.096195  0.105218  0  1.05747  0
H  H62  1  0.42241549  0.33618493  0.22771979  1  0.11098  0  0.096198  0.105171  0  1.057495  0
H  H63  1  0.07758232  0.16381591  0.72772143  1  0.111072  0  0.096197  0.105214  0  1.057439  0
H  H64  1  0.42611166  0.59689150  0.84883928  1  0.021076  0  0.089224  0.080248  0  1.031818  0
H  H65  1  0.07389458  0.90311159  0.34883957  1  0.021042  0  0.08923  0.080252  0  1.031763  0
H  H66  1  0.57388613  0.40310594  0.15115830  1  0.021218  0  0.089211  0.080207  0  1.031861  0
H  H67  1  0.92611286  0.09689466  0.65115881  1  0.021274  0  0.089244  0.080251  0  1.031851  0
H  H68  1  0.31876277  0.70883618  0.88714799  1  0.041  0  0.09365  0.086894  0  1.002539  0
H  H69  1  0.18123899  0.79116452  0.38714889  1  0.040974  0  0.093637  0.086861  0  1.002528  0
H  H70  1  0.68123709  0.29116366  0.11284999  1  0.04087  0  0.093608  0.086815  0  1.002552  0
H  H71  1  0.81876334  0.20883852  0.61285031  1  0.040895  0  0.093606  0.086851  0  1.002512  0
H  H72  1  0.36900168  0.88829978  0.84945616  1  0.101207  0  0.099132  0.111572  0  1.030626  0
H  H73  1  0.13099768  0.61170008  0.34945668  1  0.101278  0  0.09912  0.111561  0  1.030635  0
H  H74  1  0.63099995  0.11170006  0.15054384  1  0.100825  0  0.09915  0.111568  0  1.030613  0
H  H75  1  0.86900072  0.38830214  0.65054493  1  0.100866  0  0.099187  0.111648  0  1.03057  0
C  C76  1  0.72006283  0.72355398  0.94294336  1  0.264564  0  0.100129  0.20644  0  4.051153  0
C  C77  1  0.77993045  0.77644491  0.44294318  1  0.264394  0  0.100232  0.206648  0  4.050821  0
C  C78  1  0.27993487  0.27644504  0.05705623  1  0.26446  0  0.100282  0.206645  0  4.050982  0
C  C79  1  0.22006852  0.22355492  0.55705682  1  0.264378  0  0.100166  0.20651  0  4.05091  0
C  C80  1  0.82558663  0.80614700  0.91925411  1  0.021215  0  -0.087361  -0.263612  0  3.947604  0
C  C81  1  0.67440690  0.69385268  0.41925464  1  0.021313  0  -0.087321  -0.263518  0  3.947401  0
C  C82  1  0.17440930  0.19385202  0.08074549  1  0.021341  0  -0.087392  -0.263642  0  3.947431  0
C  C83  1  0.32559473  0.30614716  0.58074536  1  0.021332  0  -0.087335  -0.263513  0  3.947325  0
C  C84  1  0.88440971  0.78323223  0.87440360  1  0.329926  0  0.110375  0.217453  0  4.018139  0
C  C85  1  0.61558481  0.71676822  0.37440404  1  0.323788  0  0.110344  0.217481  0  4.01805  0
C  C86  1  0.11559094  0.21676920  0.12559720  1  0.32996  0  0.110421  0.217465  0  4.018043  0
C  C87  1  0.38441524  0.28322842  0.62559636  1  0.323817  0  0.110369  0.217485  0  4.018055  0
C  C88  1  0.83918055  0.68024874  0.85287498  1  0.033203  0  -0.074491  -0.234304  0  3.848863  0
C  C89  1  0.66081865  0.81975252  0.35287422  1  0.033177  0  -0.074476  -0.234369  0  3.848781  0
C  C90  1  0.16082197  0.31975111  0.14712704  1  0.033191  0  -0.074473  -0.234252  0  3.848746  0
C  C91  1  0.33918081  0.18024651  0.64712658  1  0.033489  0  -0.074466  -0.234369  0  3.848898  0
C  C92  1  0.73330507  0.59921716  0.87757159  1  0.35876  0  0.10939  0.215948  0  4.013306  0
C  C93  1  0.76669213  0.90078331  0.37757213  1  0.358767  0  0.109373  0.215957  0  4.013347  0
C  C94  1  0.26669705  0.40078188  0.12242962  1  0.358776  0  0.109417  0.215861  0  4.013219  0
C  C95  1  0.23330773  0.09921653  0.62242907  1  0.358436  0  0.109329  0.215891  0  4.013309  0
C  C96  1  0.67341853  0.61966754  0.92283826  1  0.042281  0  -0.089361  -0.268312  0  3.956946  0
C  C97  1  0.82657630  0.88033294  0.42283930  1  0.042363  0  -0.089339  -0.268389  0  3.95689  0
C  C98  1  0.32658093  0.38033149  0.07716133  1  0.042274  0  -0.089442  -0.268436  0  3.956848  0
C  C99  1  0.17342170  0.11966848  0.57716191  1  0.042399  0  -0.08933  -0.268325  0  3.956856  0
C  C100  1  0.52762768  0.72839549  0.99046500  1  0.29461  0  -0.003624  -0.113477  0  3.927467  0
C  C101  1  0.97236561  0.77160103  0.49046346  1  0.294569  0  -0.003562  -0.113337  0  3.92731  0
C  C102  1  0.47236746  0.27160193  0.00953621  1  0.294535  0  -0.003573  -0.113373  0  3.927428  0
C  C103  1  0.02763416  0.22840040  0.50953694  1  0.294489  0  -0.003584  -0.113408  0  3.927384  0
C  C104  1  0.51173949  0.76691620  0.03976352  1  0.41828  0  0.001804  -0.025089  0  4.013364  0
C  C105  1  0.98825523  0.73308167  0.53976243  1  0.41871  0  0.001782  -0.025189  0  4.013369  0
C  C106  1  0.48825605  0.23308202  0.96023769  1  0.418373  0  0.001727  -0.025245  0  4.013341  0
C  C107  1  0.01174286  0.26691816  0.46023797  1  0.418302  0  0.001815  -0.025107  0  4.013344  0
C  C108  1  0.71420572  0.79382487  0.03510756  1  0.954218  0  0.143717  0.100968  0  3.91747  0
C  C109  1  0.78579074  0.70617300  0.53510743  1  0.954291  0  0.143709  0.100968  0  3.917589  0
C  C110  1  0.28579109  0.20617415  0.96489324  1  0.954286  0  0.143685  0.100961  0  3.917502  0
C  C111  1  0.21420824  0.29382683  0.46489216  1  0.954319  0  0.143717  0.100938  0  3.917658  0
C  C112  1  0.99995765  0.88451239  0.79320455  1  0.292272  0  0.00722  -0.082381  0  3.850256  0
C  C113  1  0.50003997  0.61548643  0.29320450  1  0.292195  0  0.007162  -0.082536  0  3.850356  0
C  C114  1  0.00004142  0.11548584  0.20679544  1  0.292286  0  0.007159  -0.082467  0  3.850367  0
C  C115  1  0.49996224  0.38451102  0.70679590  1  0.291732  0  0.007198  -0.082557  0  3.850384  0
C  C116  1  0.10799124  0.97795746  0.78640251  1  0.393457  0  -0.000983  -0.023743  0  3.985261  0
C  C117  1  0.39200771  0.52204237  0.28640180  1  0.393491  0  -0.000906  -0.023575  0  3.985198  0
C  C118  1  0.89200725  0.02204316  0.21359748  1  0.393442  0  -0.000946  -0.023669  0  3.985261  0
C  C119  1  0.60799441  0.47795668  0.71359860  1  0.390651  0  -0.000931  -0.023546  0  3.985169  0
C  C120  1  0.08781682  0.95060195  0.87283153  1  0.986248  0  0.134192  0.08011  0  3.94651  0
C  C121  1  0.41218043  0.54939872  0.37283002  1  0.987558  0  0.13429  0.080248  0  3.946461  0
C  C122  1  0.91218206  0.04939947  0.12716968  1  0.986098  0  0.134272  0.080198  0  3.946539  0
C  C123  1  0.58782081  0.45060032  0.62716958  1  0.987075  0  0.134285  0.080276  0  3.946427  0
C  C124  1  0.75892313  0.44428927  0.83379014  1  0.236547  0  0.00432  -0.097908  0  3.900072  0
C  C125  1  0.74108450  0.05571226  0.33378801  1  0.23677  0  0.004372  -0.097835  0  3.900076  0
C  C126  1  0.24108301  0.55570899  0.16621106  1  0.237481  0  0.004389  -0.09786  0  3.900039  0
C  C127  1  0.25891624  0.94428758  0.66621159  1  0.236517  0  0.004365  -0.097848  0  3.899951  0
C  C128  1  0.67245465  0.34254525  0.82127363  1  0.473519  0  0.00643  -0.025745  0  3.991528  0
C  C129  1  0.82755428  0.15745547  0.32127155  1  0.474072  0  0.006291  -0.026045  0  3.991437  0
C  C130  1  0.32754963  0.65745460  0.17872516  1  0.474028  0  0.006309  -0.025982  0  3.991577  0
C  C131  1  0.17244744  0.84254277  0.67872643  1  0.474101  0  0.006345  -0.025927  0  3.991395  0
C  C132  1  0.55931301  0.42063388  0.85727487  1  0.943024  0  0.14012  0.087064  0  3.913957  0
C  C133  1  0.94069241  0.07936287  0.35727580  1  0.943099  0  0.140136  0.087136  0  3.914087  0
C  C134  1  0.44069186  0.57936358  0.14272311  1  0.943117  0  0.140093  0.087002  0  3.914121  0
C  C135  1  0.05930794  0.92063617  0.64272500  1  0.943407  0  0.140123  0.087056  0  3.914096  0
C  C136  1  0.52455930  0.98054478  0.76425757  1  -0.054898  0  -0.010701  -0.05919  0  3.927817  0
C  C137  1  0.97543853  0.51945482  0.26425697  1  -0.054365  0  -0.010729  -0.059191  0  3.927752  0
C  C138  1  0.47544016  0.01945425  0.23574242  1  -0.054398  0  -0.010753  -0.059355  0  3.927928  0
C  C139  1  0.02455770  0.48054659  0.73574383  1  -0.055191  0  -0.010674  -0.059189  0  3.927898  0
C  C140  1  0.59912243  0.01177353  0.71794025  1  -0.039406  0  -0.094396  -0.111779  0  4.027253  0
C  C141  1  0.90087385  0.48822788  0.21794092  1  -0.040092  0  -0.094389  -0.111753  0  4.027401  0
C  C142  1  0.40087468  0.98822788  0.28205854  1  -0.040076  0  -0.094393  -0.111736  0  4.027308  0
C  C143  1  0.09912415  0.51177354  0.78206029  1  -0.039085  0  -0.094383  -0.111719  0  4.02738  0
C  C144  1  0.65532050  0.94743794  0.69530971  1  -0.066542  0  -0.091746  -0.098583  0  4.028578  0
C  C145  1  0.84467552  0.55256242  0.19531013  1  -0.066462  0  -0.091698  -0.098554  0  4.028559  0
C  C146  1  0.34467710  0.05256268  0.30468948  1  -0.066598  0  -0.091772  -0.098602  0  4.028564  0
C  C147  1  0.15532032  0.44743819  0.80469108  1  -0.066605  0  -0.091697  -0.098553  0  4.02857  0
C  C148  1  0.64063744  0.85165493  0.71877401  1  0.028687  0  -0.015563  -0.069421  0  3.92556  0
C  C149  1  0.85936355  0.64834626  0.21877561  1  0.028725  0  -0.015649  -0.06957  0  3.92576  0
C  C150  1  0.35936066  0.14834490  0.28122317  1  0.028764  0  -0.01557  -0.069505  0  3.92559  0
C  C151  1  0.14063710  0.35165517  0.78122640  1  0.02887  0  -0.015571  -0.069475  0  3.925608  0
C  C152  1  0.53150807  0.71235194  0.78919908  1  0.006382  0  -0.098415  -0.131678  0  3.97553  0
C  C153  1  0.96849544  0.78765170  0.28919954  1  0.006641  0  -0.098415  -0.131585  0  3.975401  0
C  C154  1  0.46849002  0.28764789  0.21079809  1  0.006553  0  -0.098431  -0.131445  0  3.975497  0
C  C155  1  0.03150808  0.21235373  0.71080005  1  0.006832  0  -0.098494  -0.131658  0  3.975551  0
C  C156  1  0.44769079  0.67593703  0.83222563  1  -0.088769  0  -0.105595  -0.095765  0  4.078284  0
C  C157  1  0.05231495  0.82406525  0.33222594  1  -0.088803  0  -0.105587  -0.095824  0  4.078336  0
C  C158  1  0.55230956  0.32406201  0.16777195  1  -0.08895  0  -0.105508  -0.095769  0  4.078402  0
C  C159  1  0.94769299  0.17594020  0.66777326  1  -0.089124  0  -0.105577  -0.095795  0  4.078413  0
C  C160  1  0.38736039  0.73896584  0.85382557  1  -0.126023  0  -0.105924  -0.103014  0  4.08572  0
C  C161  1  0.11264204  0.76103484  0.35382558  1  -0.126023  0  -0.105889  -0.102909  0  4.085736  0
C  C162  1  0.61263996  0.26103320  0.14617362  1  -0.125975  0  -0.105879  -0.102858  0  4.085822  0
C  C163  1  0.88735931  0.23896978  0.64617482  1  -0.125941  0  -0.105863  -0.102912  0  4.085813  0
C  C164  1  0.41343175  0.83843623  0.83253366  1  0.022156  0  -0.095033  -0.127509  0  3.979532  0
C  C165  1  0.08656927  0.66156363  0.33253369  1  0.021745  0  -0.095042  -0.127576  0  3.979527  0
C  C166  1  0.58656900  0.16156361  0.16746513  1  0.022133  0  -0.095119  -0.127635  0  3.979592  0
C  C167  1  0.91343090  0.33843859  0.66746631  1  0.022056  0  -0.09513  -0.127644  0  3.979711  0
C  C168  1  0.49955097  0.87894417  0.78813360  1  0.004014  0  -0.002462  0.056048  0  3.932323  0
C  C169  1  0.00044455  0.62105405  0.28813515  1  0.004333  0  -0.002449  0.056109  0  3.932143  0
C  C170  1  0.50044987  0.12105407  0.21186479  1  0.004355  0  -0.002411  0.056182  0  3.932158  0
C  C171  1  0.99955217  0.37894656  0.71186646  1  0.004394  0  -0.002499  0.055968  0  3.932294  0
C  C172  1  0.55956935  0.81383524  0.76545251  1  -0.076897  0  -0.001305  0.062921  0  3.928173  0
C  C173  1  0.94043410  0.68616678  0.26545258  1  -0.077015  0  -0.001294  0.06293  0  3.928174  0
C  C174  1  0.44043139  0.18616459  0.23454507  1  -0.076624  0  -0.001319  0.062795  0  3.928266  0
C  C175  1  0.05956872  0.31383546  0.73454822  1  -0.077094  0  -0.00126  0.063002  0  3.928159  0
C  C176  1  0.47279605  0.05612296  0.78747203  1  1.524254  0  0.187485  0.559624  0  4.234795  0
C  C177  1  0.02719752  0.44387390  0.28747144  1  1.524124  0  0.187484  0.559574  0  4.234755  0
C  C178  1  0.52720254  0.94387607  0.21252837  1  1.524029  0  0.187548  0.5597  0  4.234797  0
C  C179  1  0.97279841  0.55612512  0.71252815  1  1.524229  0  0.187503  0.559644  0  4.234804  0
C  C180  1  0.71531790  0.79454494  0.69381973  1  1.539692  0  0.187816  0.564349  0  4.22081  0
C  C181  1  0.78468116  0.70545622  0.19382080  1  1.539557  0  0.187811  0.564353  0  4.22097  0
C  C182  1  0.28468020  0.20545488  0.30617825  1  1.539504  0  0.187889  0.56452  0  4.220792  0
C  C183  1  0.21531949  0.29454521  0.80618040  1  1.539621  0  0.187829  0.564428  0  4.220793  0
N  N184  1  0.62824980  0.80669227  0.06707460  1  -1.220187  0  -0.346521  -0.27683  0  3.500521  0
N  N185  1  0.87174775  0.69330563  0.56707378  1  -1.220613  0  -0.346507  -0.276773  0  3.50054  0
N  N186  1  0.37174446  0.19330515  0.93292621  1  -1.220301  0  -0.346456  -0.276764  0  3.500443  0
N  N187  1  0.12825074  0.30669499  0.43292662  1  -1.220602  0  -0.346503  -0.276773  0  3.500624  0
N  N188  1  0.65744343  0.74665235  0.98772975  1  -1.246046  0  -0.229264  -0.000637  0  3.798671  0
N  N189  1  0.84255103  0.75334657  0.48773046  1  -1.246069  0  -0.229376  -0.000808  0  3.798787  0
N  N190  1  0.34255299  0.25334587  0.01227065  1  -1.246133  0  -0.229324  -0.000688  0  3.798739  0
N  N191  1  0.15744835  0.24665406  0.51226994  1  -1.246062  0  -0.22932  -0.000701  0  3.79881  0
N  N192  1  0.16198956  0.01770723  0.83601709  1  -1.203186  0  -0.345845  -0.273036  0  3.511765  0
N  N193  1  0.33800766  0.48229287  0.33601567  1  -1.203118  0  -0.345944  -0.273196  0  3.511934  0
N  N194  1  0.83800755  0.98229419  0.16398291  1  -1.203041  0  -0.34586  -0.273036  0  3.511921  0
N  N195  1  0.66199397  0.51770697  0.66398433  1  -1.202618  0  -0.345881  -0.273139  0  3.511842  0
N  N196  1  0.98748945  0.86787239  0.84852543  1  -1.270393  0  -0.225244  0.004364  0  3.785732  0
N  N197  1  0.51250667  0.63212805  0.34852457  1  -1.265736  0  -0.225275  0.004307  0  3.785772  0
N  N198  1  0.01250816  0.13212823  0.15147538  1  -1.270435  0  -0.225314  0.004282  0  3.785835  0
N  N199  1  0.48749368  0.36787099  0.65147542  1  -1.265739  0  -0.225286  0.004354  0  3.785725  0
N  N200  1  0.54919805  0.32945166  0.83589023  1  -1.211961  0  -0.345617  -0.273561  0  3.524271  0
N  N201  1  0.95080997  0.17054349  0.33588791  1  -1.212775  0  -0.345541  -0.273413  0  3.524181  0
N  N202  1  0.45080602  0.67054420  0.16410896  1  -1.212703  0  -0.345488  -0.273287  0  3.524178  0
N  N203  1  0.04919224  0.82945396  0.66411007  1  -1.212785  0  -0.34557  -0.273446  0  3.524251  0
N  N204  1  0.68605401  0.49371666  0.85697087  1  -1.27158  0  -0.227525  -0.002277  0  3.786595  0
N  N205  1  0.81394993  0.00628247  0.35696886  1  -1.271584  0  -0.227524  -0.002194  0  3.786605  0
N  N206  1  0.31394957  0.50628000  0.14302993  1  -1.271606  0  -0.227595  -0.002219  0  3.78663  0
N  N207  1  0.18604953  0.99371656  0.64303154  1  -1.271602  0  -0.227517  -0.002156  0  3.786518  0
O  O208  1  0.47110219  0.06582746  0.83867156  1  -1.12302  0  -0.345486  -0.560069  0  2.173886  0
O  O209  1  0.02890036  0.43417266  0.33867097  1  -1.123063  0  -0.345507  -0.560057  0  2.17391  0
O  O210  1  0.52889520  0.93416917  0.16132884  1  -1.123039  0  -0.345526  -0.560092  0  2.173975  0
O  O211  1  0.97110432  0.56582799  0.66132781  1  -1.123035  0  -0.34551  -0.560099  0  2.173863  0
O  O212  1  0.43399474  0.10845947  0.75488751  1  -1.186224  0  -0.339006  -0.578759  0  2.181044  0
O  O213  1  0.06599547  0.39153816  0.25488538  1  -1.186049  0  -0.338971  -0.578717  0  2.181038  0
O  O214  1  0.56600326  0.89154195  0.24511451  1  -1.186033  0  -0.33902  -0.578772  0  2.180993  0
O  O215  1  0.93399445  0.60845764  0.74511341  1  -1.186259  0  -0.339009  -0.578744  0  2.181064  0
O  O216  1  0.74189813  0.80657633  0.64394897  1  -1.190397  0  -0.358199  -0.599303  0  2.125362  0
O  O217  1  0.75810967  0.69342883  0.14394921  1  -1.190289  0  -0.358186  -0.599291  0  2.125465  0
O  O218  1  0.25810164  0.19342510  0.35604901  1  -1.190254  0  -0.358237  -0.599368  0  2.125395  0
O  O219  1  0.24189483  0.30657500  0.85605119  1  -1.190349  0  -0.358194  -0.599327  0  2.125398  0
O  O220  1  0.75369372  0.73850754  0.72500977  1  -1.163575  0  -0.33318  -0.553992  0  2.260379  0
O  O221  1  0.74630043  0.76149043  0.22501077  1  -1.163513  0  -0.333183  -0.553993  0  2.260454  0
O  O222  1  0.24630045  0.26149147  0.27498902  1  -1.163482  0  -0.333209  -0.554051  0  2.260369  0
O  O223  1  0.25369767  0.23850939  0.77498963  1  -1.16352  0  -0.333204  -0.554043  0  2.260356  0
