# generated using pymatgen
data_ZnH11C17N2O5
_symmetry_space_group_name_H-M   'P 1'
_cell_length_a   7.98018811
_cell_length_b   11.58646824
_cell_length_c   15.39350000
_cell_angle_alpha   90.00000000
_cell_angle_beta   99.59090546
_cell_angle_gamma   90.00000000
_symmetry_Int_Tables_number   1
_chemical_formula_structural   ZnH11C17N2O5
_chemical_formula_sum   'Zn4 H44 C68 N8 O20'
_cell_volume   1403.42239936
_cell_formula_units_Z   4
loop_
 _symmetry_equiv_pos_site_id
 _symmetry_equiv_pos_as_xyz
  1  'x, y, z'
loop_
 _atom_site_type_symbol
 _atom_site_label
 _atom_site_symmetry_multiplicity
 _atom_site_fract_x
 _atom_site_fract_y
 _atom_site_fract_z
 _atom_site_occupancy
 _atom_site_hle17_bader_spin_density
 _atom_site_hle17_ddec_charge
 _atom_site_hle17_ddec_spin_density
 _atom_site_hle17_ddec_sum_bond_order
 _atom_site_hle17_magmom
 _atom_site_hse06_10hf_bader_spin_density
 _atom_site_hse06_10hf_ddec_charge
 _atom_site_hse06_10hf_ddec_spin_density
 _atom_site_hse06_10hf_ddec_sum_bond_order
 _atom_site_hse06_10hf_magmom
 _atom_site_hse06_bader_spin_density
 _atom_site_hse06_ddec_charge
 _atom_site_hse06_ddec_spin_density
 _atom_site_hse06_ddec_sum_bond_order
 _atom_site_hse06_magmom
 _atom_site_pbe_bader_charge
 _atom_site_pbe_bader_spin_density
 _atom_site_pbe_cm5_charge
 _atom_site_pbe_ddec_charge
 _atom_site_pbe_ddec_spin_density
 _atom_site_pbe_ddec_sum_bond_order
 _atom_site_pbe_magmom
Zn  Zn0  1  0.09021502  0.58967494  0.25693505  1  0  1.063227  0  1.777335  0  0  0.875785  0  2.241161  0  0  0.925024  0  2.182854  0  1.297917  0  0.693676  0.841295  0  2.281365  0
Zn  Zn1  1  0.40978466  0.08967530  0.24306483  1  0  1.063219  0  1.777351  0  0  0.875779  0  2.24118  0  0  0.925019  0  2.182873  0  1.297926  0  0.693671  0.84129  0  2.281383  0
Zn  Zn2  1  0.90978434  0.41032435  0.74306535  1  0  1.063178  0  1.777363  0  0  0.875775  0  2.241191  0  0  0.925016  0  2.182885  0  1.297919  0  0.693668  0.841285  0  2.281396  0
Zn  Zn3  1  0.59021471  0.91032485  0.75693492  1  0  1.063238  0  1.777325  0  0  0.875794  0  2.241152  0  0  0.925032  0  2.182845  0  1.297863  0  0.693682  0.841305  0  2.281353  0
H  H4  1  0.99222547  0.81631260  0.28172735  1  0  0.434573  0  0.86276  0  0  0.400582  0  0.930802  0  0  0.412141  0  0.91418  0  0.67145  0  0.289175  0.392409  0  0.942527  0
H  H5  1  0.50777357  0.31631209  0.21827292  1  0  0.434571  0  0.862763  0  0  0.400583  0  0.930801  0  0  0.412142  0  0.914178  0  0.671451  0  0.289183  0.39241  0  0.942525  0
H  H6  1  0.00777389  0.18368755  0.71827240  1  0  0.434568  0  0.862788  0  0  0.400574  0  0.930833  0  0  0.412132  0  0.914212  0  0.671447  0  0.289183  0.392401  0  0.942558  0
H  H7  1  0.49222452  0.68368806  0.78172672  1  0  0.434583  0  0.862748  0  0  0.400585  0  0.930804  0  0  0.412144  0  0.914181  0  0.671502  0  0.289189  0.39241  0  0.942531  0
H  H8  1  0.83218394  0.72105665  0.25365637  1  0  0.418652  0  0.890074  0  0  0.386317  0  0.955647  0  0  0.398234  0  0.938437  0  0.631155  0  0.287119  0.37793  0  0.967723  0
H  H9  1  0.66781511  0.22105614  0.24634326  1  0  0.418655  0  0.890076  0  0  0.386325  0  0.955641  0  0  0.398243  0  0.938431  0  0.631158  0  0.287121  0.377937  0  0.967718  0
H  H10  1  0.16781542  0.27894264  0.74634338  1  0  0.418646  0  0.890085  0  0  0.386312  0  0.955657  0  0  0.39823  0  0.938447  0  0.631159  0  0.28712  0.377925  0  0.967735  0
H  H11  1  0.33218426  0.77894401  0.75365584  1  0  0.418642  0  0.890091  0  0  0.386308  0  0.955664  0  0  0.398225  0  0.938454  0  0.631145  0  0.287109  0.377918  0  0.967744  0
H  H12  1  0.92616454  0.35330697  0.30692342  1  0  0.088179  0  0.938555  0  0  0.096114  0  1.002745  0  0  0.098796  0  0.999846  0  0.120631  0  0.120247  0.094073  0  1.004966  0
H  H13  1  0.57383450  0.85330662  0.19307686  1  0  0.088187  0  0.938534  0  0  0.096121  0  1.002719  0  0  0.098803  0  0.999822  0  0.120634  0  0.120249  0.09408  0  1.00494  0
H  H14  1  0.07383482  0.64669318  0.69307633  1  0  0.088155  0  0.938596  0  0  0.096093  0  1.002774  0  0  0.098775  0  0.999877  0  0.120631  0  0.120237  0.094053  0  1.004995  0
H  H15  1  0.42616867  0.14669526  0.80692387  1  0  0.088176  0  0.938588  0  0  0.096108  0  1.002775  0  0  0.09879  0  0.999878  0  0.120757  0  0.120239  0.094067  0  1.004997  0
H  H16  1  0.94632685  0.23606676  0.44344583  1  0  0.102361  0  0.985646  0  0  0.110547  0  1.048605  0  0  0.112184  0  1.050659  0  0.108572  0  0.104426  0.109334  0  1.047356  0
H  H17  1  0.55367220  0.73606640  0.05655445  1  0  0.102378  0  0.985646  0  0  0.110558  0  1.048609  0  0  0.112196  0  1.050662  0  0.108574  0  0.104424  0.109345  0  1.04736  0
H  H18  1  0.05367252  0.76393339  0.55655457  1  0  0.102381  0  0.985621  0  0  0.11057  0  1.048581  0  0  0.112207  0  1.050635  0  0.108575  0  0.104428  0.109356  0  1.047333  0
H  H19  1  0.44632970  0.26393375  0.94344682  1  0  0.102355  0  0.985663  0  0  0.11055  0  1.048616  0  0  0.112188  0  1.050669  0  0.108576  0  0.104431  0.109336  0  1.047368  0
H  H20  1  0.12997028  0.30473134  0.58191237  1  0  0.114606  0  0.95011  0  0  0.126472  0  1.006952  0  0  0.129643  0  1.004437  0  0.139248  0  0.110123  0.124084  0  1.008903  0
H  H21  1  0.37003067  0.80473099  0.91808761  1  0  0.114596  0  0.950105  0  0  0.126455  0  1.006956  0  0  0.129625  0  1.004442  0  0.139241  0  0.110118  0.124067  0  1.008906  0
H  H22  1  0.87003035  0.69526881  0.41808749  1  0  0.114652  0  0.950007  0  0  0.126468  0  1.006909  0  0  0.129635  0  1.004396  0  0.139246  0  0.110141  0.124079  0  1.00886  0
H  H23  1  0.62997123  0.19526917  0.08191301  1  0  0.114698  0  0.949954  0  0  0.126472  0  1.006906  0  0  0.12964  0  1.004392  0  0.139235  0  0.110141  0.124084  0  1.008857  0
H  H24  1  0.34313532  0.45312859  0.65530527  1  0  0.117831  0  0.948121  0  0  0.125483  0  1.011909  0  0  0.128329  0  1.011527  0  0.124119  0  0.107889  0.123377  0  1.012311  0
H  H25  1  0.15686564  0.95312823  0.84469406  1  0  0.117834  0  0.948101  0  0  0.125482  0  1.011892  0  0  0.128329  0  1.011509  0  0.12411  0  0.107895  0.123378  0  1.012295  0
H  H26  1  0.65686532  0.54687243  0.34469394  1  0  0.117842  0  0.948056  0  0  0.125496  0  1.011848  0  0  0.128343  0  1.011466  0  0.124108  0  0.107893  0.12339  0  1.012252  0
H  H27  1  0.84313500  0.04687106  0.15530515  1  0  0.117849  0  0.9481  0  0  0.125507  0  1.011885  0  0  0.128354  0  1.011502  0  0.124119  0  0.107895  0.123399  0  1.012285  0
H  H28  1  0.50780662  0.63015665  0.64363908  1  0  0.112859  0  0.962549  0  0  0.124061  0  1.022308  0  0  0.127404  0  1.020169  0  0.119558  0  0.107278  0.121559  0  1.02404  0
H  H29  1  0.99219243  0.13015528  0.85636120  1  0  0.112846  0  0.962593  0  0  0.124065  0  1.022319  0  0  0.127411  0  1.020184  0  0.119571  0  0.107279  0.12156  0  1.024055  0
H  H30  1  0.49219402  0.36984350  0.35636143  1  0  0.112856  0  0.962558  0  0  0.12408  0  1.022291  0  0  0.127424  0  1.020153  0  0.11956  0  0.107292  0.121577  0  1.024026  0
H  H31  1  0.00780693  0.86984315  0.14363855  1  0  0.112871  0  0.962536  0  0  0.124077  0  1.022293  0  0  0.12742  0  1.020154  0  0.119566  0  0.107283  0.121573  0  1.024028  0
H  H32  1  0.58609201  0.79871103  0.55064645  1  0  0.11405  0  0.959379  0  0  0.122553  0  1.022235  0  0  0.12608  0  1.019626  0  0.152444  0  0.107125  0.119927  0  1.024242  0
H  H33  1  0.91390957  0.29871139  0.94935339  1  0  0.114057  0  0.959365  0  0  0.122571  0  1.022212  0  0  0.126098  0  1.019602  0  0.152453  0  0.107135  0.119945  0  1.02422  0
H  H34  1  0.41390989  0.20128826  0.44935287  1  0  0.114072  0  0.959393  0  0  0.122575  0  1.022245  0  0  0.126101  0  1.019636  0  0.15244  0  0.107142  0.119949  0  1.024252  0
H  H35  1  0.08608979  0.70128876  0.05064701  1  0  0.114075  0  0.959361  0  0  0.122581  0  1.022217  0  0  0.126107  0  1.019607  0  0.152449  0  0.107138  0.119954  0  1.024225  0
H  H36  1  0.56338671  0.88555285  0.39881166  1  0  0.116776  0  0.999447  0  0  0.121586  0  1.065218  0  0  0.125443  0  1.063793  0  0.146016  0  0.10423  0.118761  0  1.066446  0
H  H37  1  0.93661234  0.38555234  0.10118862  1  0  0.116766  0  0.999446  0  0  0.121582  0  1.065219  0  0  0.125437  0  1.063792  0  0.146017  0  0.104227  0.118754  0  1.066446  0
H  H38  1  0.43661393  0.11444730  0.60118820  1  0  0.116783  0  0.999446  0  0  0.121594  0  1.065217  0  0  0.125451  0  1.06379  0  0.146024  0  0.104235  0.118769  0  1.066443  0
H  H39  1  0.06338575  0.61444694  0.89881167  1  0  0.116784  0  0.999431  0  0  0.121599  0  1.065198  0  0  0.125456  0  1.063771  0  0.146024  0  0.10424  0.118773  0  1.066425  0
H  H40  1  0.37018953  0.79479094  0.27410484  1  0  0.077168  0  0.939089  0  0  0.085619  0  1.004763  0  0  0.087937  0  1.002302  0  0.092253  0  0.11805  0.083878  0  1.006639  0
H  H41  1  0.12980888  0.29478871  0.22589492  1  0  0.077178  0  0.939094  0  0  0.085626  0  1.004755  0  0  0.087942  0  1.002298  0  0.092095  0  0.118058  0.083885  0  1.00663  0
H  H42  1  0.62980983  0.20521007  0.72589491  1  0  0.077161  0  0.939121  0  0  0.085616  0  1.004788  0  0  0.087933  0  1.002328  0  0.092261  0  0.118054  0.083875  0  1.006663  0
H  H43  1  0.87018921  0.70520972  0.77410537  1  0  0.077162  0  0.939135  0  0  0.085615  0  1.004805  0  0  0.087931  0  1.002346  0  0.092258  0  0.118048  0.083873  0  1.00668  0
H  H44  1  0.19087276  0.47368533  0.99386909  1  0  0.10339  0  0.956724  0  0  0.113496  0  1.019829  0  0  0.116507  0  1.019039  0  0.093521  0  0.105584  0.111306  0  1.020557  0
H  H45  1  0.30912565  0.97368670  0.50613067  1  0  0.103437  0  0.956673  0  0  0.11353  0  1.019792  0  0  0.11654  0  1.019004  0  0.09355  0  0.105605  0.11134  0  1.020519  0
H  H46  1  0.80912660  0.52631396  0.00613131  1  0  0.103428  0  0.956693  0  0  0.113519  0  1.01981  0  0  0.11653  0  1.019019  0  0.093542  0  0.105598  0.111329  0  1.020537  0
H  H47  1  0.69087117  0.02631345  0.49386886  1  0  0.103404  0  0.956703  0  0  0.113494  0  1.019825  0  0  0.116504  0  1.019036  0  0.093517  0  0.10559  0.111305  0  1.020552  0
C  C48  1  0.20407961  0.51313652  0.43623046  1  0  0.127457  0  3.768534  0  0  0.123232  0  4.000578  0  0  0.127541  0  4.023098  0  0.425207  0  0.116358  0.120373  0  3.985356  0
C  C49  1  0.29592134  0.01313688  0.06376887  1  0  0.127463  0  3.768518  0  0  0.123245  0  4.000567  0  0  0.127555  0  4.023087  0  0.4252  0  0.116363  0.120385  0  3.985345  0
C  C50  1  0.79592357  0.48686708  0.56377027  1  0  0.127612  0  3.76843  0  0  0.123332  0  4.000503  0  0  0.127641  0  4.023027  0  0.42543  0  0.116418  0.120472  0  3.985282  0
C  C51  1  0.70407929  0.98686414  0.93623034  1  0  0.127543  0  3.768519  0  0  0.123278  0  4.000544  0  0  0.127586  0  4.023067  0  0.425215  0  0.116399  0.120419  0  3.98532  0
C  C52  1  0.01035121  0.37941329  0.36675304  1  0  0.154772  0  3.686085  0  0  0.118939  0  3.948265  0  0  0.128664  0  3.962991  0  0.50408  0  0.060054  0.112619  0  3.938256  0
C  C53  1  0.48964847  0.87941379  0.13324683  1  0  0.154779  0  3.686102  0  0  0.118958  0  3.948278  0  0  0.128684  0  3.963003  0  0.504087  0  0.060054  0.112637  0  3.938269  0
C  C54  1  0.98964815  0.62058686  0.63324736  1  0  0.154857  0  3.686197  0  0  0.119028  0  3.94837  0  0  0.128754  0  3.963094  0  0.50409  0  0.060079  0.112707  0  3.93836  0
C  C55  1  0.51035343  0.12058808  0.86675249  1  0  0.154753  0  3.686092  0  0  0.118929  0  3.948274  0  0  0.128655  0  3.962998  0  0.50398  0  0.060046  0.112609  0  3.938265  0
C  C56  1  0.02117773  0.31436413  0.44436079  1  0  -0.106182  0  3.725456  0  0  -0.123257  0  3.984574  0  0  -0.130628  0  4.006754  0  0.005142  0  -0.082516  -0.118581  0  3.969723  0
C  C57  1  0.47882196  0.81436377  0.05563908  1  0  -0.106302  0  3.725494  0  0  -0.123384  0  3.984621  0  0  -0.130755  0  4.006799  0  0.005149  0  -0.082566  -0.118708  0  3.969769  0
C  C58  1  0.97882164  0.68563602  0.55563961  1  0  -0.106312  0  3.725552  0  0  -0.123408  0  3.984681  0  0  -0.130779  0  4.006857  0  0.005146  0  -0.082589  -0.118732  0  3.96983  0
C  C59  1  0.52117995  0.18563724  0.94436089  1  0  -0.106216  0  3.725445  0  0  -0.123309  0  3.984546  0  0  -0.13068  0  4.006722  0  0.005151  0  -0.082539  -0.118634  0  3.969697  0
C  C60  1  0.12417894  0.35191828  0.52016942  1  0  -0.039232  0  3.66031  0  0  -0.063351  0  3.908872  0  0  -0.060318  0  3.925985  0  -0.075418  0  -0.060268  -0.06508  0  3.897214  0
C  C61  1  0.37582201  0.85191879  0.97982992  1  0  -0.039137  0  3.660276  0  0  -0.063241  0  3.908817  0  0  -0.060208  0  3.92593  0  -0.075421  0  -0.06022  -0.064969  0  3.897159  0
C  C62  1  0.87582169  0.64808101  0.47983044  1  0  -0.039198  0  3.660201  0  0  -0.063266  0  3.908752  0  0  -0.06023  0  3.92586  0  -0.075419  0  -0.060232  -0.064995  0  3.897095  0
C  C63  1  0.62418116  0.14808136  0.02017016  1  0  -0.039268  0  3.660195  0  0  -0.063311  0  3.908764  0  0  -0.060275  0  3.925873  0  -0.075413  0  -0.060257  -0.065039  0  3.897106  0
C  C64  1  0.21954098  0.45429288  0.51793556  1  0  0.020946  0  3.79974  0  0  0.036377  0  4.029587  0  0  0.033436  0  4.054562  0  0.013891  0  -0.001233  0.038169  0  4.012746  0
C  C65  1  0.28045998  0.95429339  0.98206378  1  0  0.020937  0  3.799823  0  0  0.036358  0  4.029671  0  0  0.033418  0  4.054646  0  0.013868  0  -0.001224  0.038151  0  4.01283  0
C  C66  1  0.78045966  0.54570727  0.48206430  1  0  0.020891  0  3.799712  0  0  0.036337  0  4.02955  0  0  0.033394  0  4.054523  0  0.013863  0  -0.001254  0.03813  0  4.012709  0
C  C67  1  0.71954193  0.04570677  0.01793619  1  0  0.020951  0  3.799696  0  0  0.036379  0  4.029538  0  0  0.033438  0  4.054511  0  0.013874  0  -0.001245  0.038171  0  4.012696  0
C  C68  1  0.33010512  0.49976489  0.59291303  1  0  -0.094634  0  3.709196  0  0  -0.11791  0  3.969131  0  0  -0.121059  0  3.992041  0  -0.00312  0  -0.084131  -0.115675  0  3.953687  0
C  C69  1  0.16989583  0.99976453  0.90708695  1  0  -0.094621  0  3.709236  0  0  -0.117892  0  3.969152  0  0  -0.121038  0  3.992057  0  -0.003131  0  -0.084137  -0.115653  0  3.953695  0
C  C70  1  0.66989297  0.50023613  0.40708726  1  0  -0.094644  0  3.709086  0  0  -0.11793  0  3.96903  0  0  -0.12108  0  3.991943  0  -0.00311  0  -0.084138  -0.115691  0  3.953577  0
C  C71  1  0.83010607  0.00023562  0.09291302  1  0  -0.09467  0  3.709096  0  0  -0.117952  0  3.969045  0  0  -0.121099  0  3.991952  0  -0.003142  0  -0.084133  -0.115711  0  3.953597  0
C  C72  1  0.42065184  0.59882786  0.58654805  1  0  -0.095365  0  3.713081  0  0  -0.119758  0  3.968986  0  0  -0.122816  0  3.990729  0  -0.106142  0  -0.083954  -0.117639  0  3.954377  0
C  C73  1  0.07934911  0.09882735  0.91345193  1  0  -0.09542  0  3.713108  0  0  -0.119814  0  3.968992  0  0  -0.122879  0  3.990743  0  -0.106145  0  -0.083969  -0.117696  0  3.954387  0
C  C74  1  0.57934880  0.40117229  0.41345246  1  0  -0.095359  0  3.713079  0  0  -0.119768  0  3.968987  0  0  -0.122828  0  3.990731  0  -0.106149  0  -0.083962  -0.117649  0  3.954378  0
C  C75  1  0.92065025  0.90117193  0.08654782  1  0  -0.095383  0  3.712964  0  0  -0.11978  0  3.968885  0  0  -0.122838  0  3.990629  0  -0.106138  0  -0.083966  -0.117662  0  3.954276  0
C  C76  1  0.40887853  0.65985509  0.50510629  1  0  0.024307  0  3.802276  0  0  0.040341  0  4.033618  0  0  0.037902  0  4.058454  0  0.016939  0  -0.002476  0.041831  0  4.016807  0
C  C77  1  0.09112115  0.15985544  0.99489359  1  0  0.024367  0  3.802256  0  0  0.040411  0  4.033583  0  0  0.037972  0  4.058421  0  0.016946  0  -0.002469  0.0419  0  4.016773  0
C  C78  1  0.59112211  0.34014593  0.49489357  1  0  0.024387  0  3.802309  0  0  0.040412  0  4.033628  0  0  0.037974  0  4.058463  0  0.016957  0  -0.002456  0.041901  0  4.016818  0
C  C79  1  0.90887821  0.84014471  0.00510616  1  0  0.024411  0  3.802277  0  0  0.040413  0  4.033596  0  0  0.037975  0  4.058431  0  0.016936  0  -0.002472  0.041902  0  4.016787  0
C  C80  1  0.50366867  0.76038788  0.49423239  1  0  -0.048349  0  3.669017  0  0  -0.071157  0  3.915777  0  0  -0.069325  0  3.93405  0  -0.112071  0  -0.062769  -0.072037  0  3.903243  0
C  C81  1  0.99633291  0.26038823  0.00576810  1  0  -0.048417  0  3.669039  0  0  -0.071233  0  3.915797  0  0  -0.069399  0  3.934069  0  -0.111994  0  -0.062786  -0.072112  0  3.903263  0
C  C82  1  0.49633323  0.23961141  0.50576758  1  0  -0.04843  0  3.669125  0  0  -0.071246  0  3.915887  0  0  -0.069413  0  3.934163  0  -0.111978  0  -0.0628  -0.072125  0  3.903352  0
C  C83  1  0.00366772  0.73961192  0.99423241  1  0  -0.048463  0  3.669005  0  0  -0.07129  0  3.915795  0  0  -0.069456  0  3.934067  0  -0.111989  0  -0.062814  -0.07217  0  3.903262  0
C  C84  1  0.49191443  0.80893934  0.41134362  1  0  -0.125003  0  3.707403  0  0  -0.137586  0  3.962623  0  0  -0.145501  0  3.983618  0  -0.018181  0  -0.086365  -0.132429  0  3.948511  0
C  C85  1  0.00808525  0.30893797  0.08865691  1  0  -0.124979  0  3.707414  0  0  -0.13758  0  3.96264  0  0  -0.145492  0  3.983632  0  -0.01826  0  -0.086386  -0.132421  0  3.948525  0
C  C86  1  0.50808621  0.19106081  0.58865624  1  0  -0.124998  0  3.707446  0  0  -0.137585  0  3.962668  0  0  -0.145501  0  3.983663  0  -0.018268  0  -0.086374  -0.132428  0  3.948555  0
C  C87  1  0.99191411  0.69106132  0.91134349  1  0  -0.124941  0  3.707337  0  0  -0.137525  0  3.962561  0  0  -0.145441  0  3.983555  0  -0.018262  0  -0.086351  -0.132369  0  3.948447  0
C  C88  1  0.38367597  0.75838554  0.34012501  1  0  0.175805  0  3.662456  0  0  0.14124  0  3.918273  0  0  0.150498  0  3.934014  0  0.538766  0  0.064696  0.135138  0  3.90763  0
C  C89  1  0.11632117  0.25838417  0.15987529  1  0  0.175814  0  3.662516  0  0  0.14129  0  3.918293  0  0  0.150543  0  3.934041  0  0.538942  0  0.064704  0.135187  0  3.907648  0
C  C90  1  0.61632339  0.24161461  0.65987474  1  0  0.175829  0  3.662486  0  0  0.141269  0  3.918303  0  0  0.150526  0  3.934046  0  0.538697  0  0.064699  0.135166  0  3.907659  0
C  C91  1  0.88367565  0.74161425  0.84012489  1  0  0.175784  0  3.662498  0  0  0.141216  0  3.918327  0  0  0.150473  0  3.93407  0  0.538693  0  0.064688  0.135114  0  3.907682  0
C  C92  1  0.30207996  0.61598149  0.42951795  1  0  0.125739  0  3.777484  0  0  0.119913  0  4.009851  0  0  0.123653  0  4.032653  0  0.534641  0  0.117144  0.117447  0  3.994422  0
C  C93  1  0.19792099  0.11598099  0.07048203  1  0  0.125714  0  3.77748  0  0  0.119881  0  4.009866  0  0  0.123621  0  4.032666  0  0.534668  0  0.117141  0.117415  0  3.994436  0
C  C94  1  0.69792194  0.38401952  0.57048267  1  0  0.125593  0  3.777517  0  0  0.119837  0  4.009809  0  0  0.123577  0  4.032608  0  0.534684  0  0.117128  0.117371  0  3.99438  0
C  C95  1  0.80207965  0.88401917  0.92951783  1  0  0.125531  0  3.777699  0  0  0.119833  0  4.009897  0  0  0.123573  0  4.032698  0  0.534645  0  0.117124  0.117367  0  3.994467  0
C  C96  1  0.34615236  0.51213967  0.15854829  1  0  0.672825  0  3.896959  0  0  0.614252  0  4.207435  0  0  0.648965  0  4.198325  0  1.604154  0  0.214114  0.590633  0  4.21293  0
C  C97  1  0.15384606  0.01214089  0.34145212  1  0  0.672743  0  3.897003  0  0  0.614254  0  4.207309  0  0  0.648969  0  4.198195  0  1.603879  0  0.214116  0.590633  0  4.212808  0
C  C98  1  0.65384701  0.48785876  0.84145276  1  0  0.672867  0  3.896902  0  0  0.614365  0  4.207265  0  0  0.649079  0  4.198151  0  1.603763  0  0.214137  0.590747  0  4.212758  0
C  C99  1  0.84615204  0.98786013  0.65854752  1  0  0.67279  0  3.896866  0  0  0.61425  0  4.207305  0  0  0.648965  0  4.198192  0  1.603832  0  0.214112  0.590629  0  4.212803  0
C  C100  1  0.42859095  0.51062670  0.07741146  1  0  -0.053565  0  3.715579  0  0  -0.040434  0  3.954394  0  0  -0.043535  0  3.972075  0  -0.018848  0  -0.007095  -0.03857  0  3.942704  0
C  C101  1  0.07140874  0.01062792  0.42258907  1  0  -0.053513  0  3.715682  0  0  -0.040338  0  3.95436  0  0  -0.04344  0  3.97204  0  -0.018872  0  -0.007046  -0.038475  0  3.942672  0
C  C102  1  0.57140842  0.48937087  0.92258894  1  0  -0.053552  0  3.7158  0  0  -0.040378  0  3.954495  0  0  -0.04348  0  3.972176  0  -0.01878  0  -0.007047  -0.038515  0  3.942805  0
C  C103  1  0.92858936  0.98937310  0.57741122  1  0  -0.053517  0  3.715671  0  0  -0.040442  0  3.954518  0  0  -0.043544  0  3.9722  0  -0.018876  0  -0.007106  -0.038577  0  3.942828  0
C  C104  1  0.60493134  0.52477769  0.08133855  1  0  -0.064825  0  3.714987  0  0  -0.051605  0  3.953414  0  0  -0.055123  0  3.970493  0  0.016528  0  -0.010706  -0.049456  0  3.94212  0
C  C105  1  0.89506770  0.02477891  0.41866108  1  0  -0.064911  0  3.715173  0  0  -0.051694  0  3.953561  0  0  -0.055212  0  3.970641  0  0.01653  0  -0.010703  -0.049546  0  3.942267  0
C  C106  1  0.39506929  0.47522074  0.91866131  1  0  -0.065015  0  3.7152  0  0  -0.051781  0  3.953582  0  0  -0.055299  0  3.970661  0  0.016536  0  -0.010718  -0.049632  0  3.942288  0
C  C107  1  0.10492912  0.97522211  0.58133910  1  0  -0.064978  0  3.715134  0  0  -0.051723  0  3.95353  0  0  -0.055241  0  3.970609  0  0.016558  0  -0.010694  -0.049574  0  3.942236  0
C  C108  1  0.32667505  0.48697756  0.99631703  1  0  -0.089651  0  3.7034  0  0  -0.122156  0  3.953108  0  0  -0.122228  0  3.971377  0  -0.088578  0  -0.081017  -0.122084  0  3.940943  0
C  C109  1  0.17332209  0.98697806  0.50368198  1  0  -0.089759  0  3.703465  0  0  -0.122278  0  3.953168  0  0  -0.12235  0  3.971438  0  -0.088615  0  -0.081108  -0.122206  0  3.941002  0
C  C110  1  0.67332304  0.51302087  0.00368326  1  0  -0.089808  0  3.703517  0  0  -0.122302  0  3.953201  0  0  -0.122373  0  3.97147  0  -0.088625  0  -0.081106  -0.122229  0  3.941035  0
C  C111  1  0.82667600  0.01302122  0.49631636  1  0  -0.089734  0  3.703544  0  0  -0.122212  0  3.953269  0  0  -0.122284  0  3.971541  0  -0.08858  0  -0.081077  -0.12214  0  3.941104  0
C  C112  1  0.72034003  0.56754136  0.16289810  1  0  0.656925  0  3.891082  0  0  0.60224  0  4.193056  0  0  0.636955  0  4.183637  0  1.590959  0  0.212483  0.578644  0  4.198756  0
C  C113  1  0.77965774  0.06754258  0.33710206  1  0  0.656946  0  3.891081  0  0  0.602275  0  4.193036  0  0  0.63699  0  4.183617  0  1.590965  0  0.212524  0.57868  0  4.198735  0
C  C114  1  0.27965933  0.43245706  0.83710230  1  0  0.657002  0  3.891065  0  0  0.602322  0  4.19303  0  0  0.637037  0  4.18361  0  1.590959  0  0.212512  0.578727  0  4.19873  0
C  C115  1  0.22034035  0.93245843  0.66289823  1  0  0.656977  0  3.891065  0  0  0.602325  0  4.192991  0  0  0.637039  0  4.183574  0  1.591009  0  0.212516  0.578729  0  4.19869  0
N  N116  1  0.09972111  0.47584388  0.36259648  1  0  -0.368629  0  3.296701  0  0  -0.295398  0  3.577606  0  0  -0.314502  0  3.590936  0  -1.254884  0  -0.324087  -0.282567  0  3.568543  0
N  N117  1  0.40027857  0.97584352  0.13740340  1  0  -0.368597  0  3.296727  0  0  -0.295368  0  3.577616  0  0  -0.314473  0  3.590946  0  -1.254885  0  -0.324068  -0.282537  0  3.56855  0
N  N118  1  0.90027953  0.52415627  0.63740338  1  0  -0.368704  0  3.296784  0  0  -0.295449  0  3.577672  0  0  -0.314554  0  3.591002  0  -1.255177  0  -0.324107  -0.282618  0  3.568608  0
N  N119  1  0.59972206  0.02415749  0.86259581  1  0  -0.368619  0  3.296697  0  0  -0.295378  0  3.577593  0  0  -0.314481  0  3.590923  0  -1.254916  0  -0.324085  -0.282547  0  3.56853  0
N  N120  1  0.29038545  0.66562216  0.34921010  1  0  -0.348087  0  3.277159  0  0  -0.275947  0  3.542542  0  0  -0.294181  0  3.558218  0  -1.264471  0  -0.320753  -0.263611  0  3.531846  0
N  N121  1  0.20961423  0.16562079  0.15078978  1  0  -0.348081  0  3.277192  0  0  -0.275975  0  3.542597  0  0  -0.294207  0  3.558275  0  -1.264529  0  -0.320752  -0.263637  0  3.531901  0
N  N122  1  0.70961519  0.33437799  0.65078976  1  0  -0.348059  0  3.277221  0  0  -0.275942  0  3.542574  0  0  -0.294175  0  3.558249  0  -1.264413  0  -0.320761  -0.263605  0  3.531879  0
N  N123  1  0.79038513  0.83437850  0.84920997  1  0  -0.348009  0  3.277184  0  0  -0.275905  0  3.542519  0  0  -0.294138  0  3.558195  0  -1.264446  0  -0.320747  -0.263567  0  3.531822  0
O  O124  1  0.21757876  0.58023376  0.15539754  1  0  -0.641517  0  2.038003  0  0  -0.567571  0  2.310633  0  0  -0.596597  0  2.294723  0  -1.164719  0  -0.31901  -0.547075  0  2.320701  0
O  O125  1  0.28242220  0.08023411  0.34460309  1  0  -0.641482  0  2.037996  0  0  -0.567583  0  2.310611  0  0  -0.596597  0  2.294672  0  -1.164432  0  -0.319009  -0.547087  0  2.32068  0
O  O126  1  0.78242315  0.41976553  0.84460308  1  0  -0.641413  0  2.037847  0  0  -0.56762  0  2.310582  0  0  -0.596645  0  2.29467  0  -1.164436  0  -0.319027  -0.547124  0  2.32065  0
O  O127  1  0.71757590  0.91976604  0.65539655  1  0  -0.641524  0  2.037961  0  0  -0.567583  0  2.310574  0  0  -0.596606  0  2.294655  0  -1.164426  0  -0.319021  -0.547086  0  2.320642  0
O  O128  1  0.40012734  0.44469806  0.22103083  1  0  -0.627395  0  1.976556  0  0  -0.576966  0  2.212346  0  0  -0.60187  0  2.203218  0  -1.189289  0  -0.305865  -0.559258  0  2.217875  0
O  O129  1  0.09987234  0.94469944  0.27896969  1  0  -0.62733  0  1.976539  0  0  -0.57693  0  2.212269  0  0  -0.601847  0  2.20316  0  -1.189292  0  -0.305844  -0.559224  0  2.217801  0
O  O130  1  0.59987329  0.55530036  0.77897033  1  0  -0.627445  0  1.976568  0  0  -0.576993  0  2.212282  0  0  -0.601906  0  2.203169  0  -1.189263  0  -0.305877  -0.559287  0  2.217816  0
O  O131  1  0.90012702  0.05530072  0.72103071  1  0  -0.627353  0  1.976517  0  0  -0.576927  0  2.21229  0  0  -0.601832  0  2.203159  0  -1.189257  0  -0.305845  -0.55922  0  2.217821  0
O  O132  1  0.66567497  0.64929622  0.20509367  1  0  -0.615596  0  1.957965  0  0  -0.561791  0  2.179953  0  0  -0.586218  0  2.170813  0  -1.174982  0  -0.310238  -0.54459  0  2.185651  0
O  O133  1  0.83432535  0.14929830  0.29490541  1  0  -0.615614  0  1.957883  0  0  -0.561835  0  2.179885  0  0  -0.586262  0  2.170743  0  -1.175011  0  -0.310286  -0.544633  0  2.185587  0
O  O134  1  0.33432440  0.35070307  0.79490608  1  0  -0.6156  0  1.957938  0  0  -0.561811  0  2.179937  0  0  -0.586239  0  2.170798  0  -1.175001  0  -0.310256  -0.544608  0  2.185631  0
O  O135  1  0.16567401  0.85070185  0.70509369  1  0  -0.615605  0  1.957897  0  0  -0.56182  0  2.179878  0  0  -0.586246  0  2.170737  0  -1.175012  0  -0.310257  -0.54462  0  2.185586  0
O  O136  1  0.86914329  0.52275464  0.17976875  1  0  -0.647936  0  2.042732  0  0  -0.573962  0  2.301993  0  0  -0.602007  0  2.287769  0  -1.185098  0  -0.319321  -0.554246  0  2.311103  0
O  O137  1  0.63085830  0.02275586  0.32023109  1  0  -0.64793  0  2.04279  0  0  -0.573961  0  2.302041  0  0  -0.602005  0  2.287816  0  -1.185093  0  -0.319327  -0.554245  0  2.311154  0
O  O138  1  0.13085735  0.47724465  0.82023176  1  0  -0.647956  0  2.042735  0  0  -0.57399  0  2.301987  0  0  -0.602033  0  2.287761  0  -1.185084  0  -0.319335  -0.554274  0  2.311099  0
O  O139  1  0.36913979  0.97724516  0.67976855  1  0  -0.64792  0  2.042707  0  0  -0.573972  0  2.301956  0  0  -0.602016  0  2.287732  0  -1.185028  0  -0.319332  -0.554257  0  2.311069  0
O  O140  1  0.95264432  0.73458623  0.28367448  1  0  -0.856387  0  1.939628  0  0  -0.786215  0  2.152796  0  0  -0.80934  0  2.114762  0  -1.291355  0  -0.577941  -0.769799  0  2.179077  0
O  O141  1  0.54735472  0.23458572  0.21632515  1  0  -0.856383  0  1.939628  0  0  -0.786203  0  2.152784  0  0  -0.80933  0  2.114749  0  -1.291363  0  -0.577946  -0.769791  0  2.179079  0
O  O142  1  0.04735504  0.26541306  0.71632527  1  0  -0.856366  0  1.939646  0  0  -0.7862  0  2.152815  0  0  -0.809327  0  2.114782  0  -1.29136  0  -0.577946  -0.769782  0  2.179099  0
O  O143  1  0.45264464  0.76541443  0.78367460  1  0  -0.856381  0  1.939606  0  0  -0.786217  0  2.152781  0  0  -0.809344  0  2.114746  0  -1.291395  0  -0.577958  -0.769805  0  2.179083  0
