# generated using pymatgen
data_U2H8C8O11
_symmetry_space_group_name_H-M   'P 1'
_cell_length_a   6.66313808
_cell_length_b   14.74382366
_cell_length_c   15.02859193
_cell_angle_alpha   101.35169512
_cell_angle_beta   89.99913024
_cell_angle_gamma   89.99982132
_symmetry_Int_Tables_number   1
_chemical_formula_structural   U2H8C8O11
_chemical_formula_sum   'U8 H32 C32 O44'
_cell_volume   1447.52853109
_cell_formula_units_Z   4
loop_
 _symmetry_equiv_pos_site_id
 _symmetry_equiv_pos_as_xyz
  1  'x, y, z'
loop_
 _atom_site_type_symbol
 _atom_site_label
 _atom_site_symmetry_multiplicity
 _atom_site_fract_x
 _atom_site_fract_y
 _atom_site_fract_z
 _atom_site_occupancy
 _atom_site_hle17_bader_spin_density
 _atom_site_hle17_ddec_charge
 _atom_site_hle17_ddec_spin_density
 _atom_site_hle17_ddec_sum_bond_order
 _atom_site_hle17_magmom
 _atom_site_hse06_10hf_bader_spin_density
 _atom_site_hse06_10hf_ddec_charge
 _atom_site_hse06_10hf_ddec_spin_density
 _atom_site_hse06_10hf_ddec_sum_bond_order
 _atom_site_hse06_10hf_magmom
 _atom_site_hse06_bader_spin_density
 _atom_site_hse06_ddec_charge
 _atom_site_hse06_ddec_spin_density
 _atom_site_hse06_ddec_sum_bond_order
 _atom_site_hse06_magmom
 _atom_site_pbe_bader_spin_density
 _atom_site_pbe_cm5_charge
 _atom_site_pbe_ddec_charge
 _atom_site_pbe_ddec_spin_density
 _atom_site_pbe_ddec_sum_bond_order
 _atom_site_pbe_magmom
U  U0  1  0.26508798  0.94750252  0.61747043  1  0  2.567403  0  4.06095  0  0  2.640603  0  4.689358  0  0  2.745153  0  4.655483  0  0  2.20341  2.567556  0  4.711886  0
U  U1  1  0.26509889  0.05249807  0.88253166  1  0  2.567245  0  4.060887  0  0  2.640574  0  4.689229  0  0  2.745161  0  4.655317  0  0  2.203278  2.567478  0  4.711825  0
U  U2  1  0.73490540  0.05249617  0.38253019  1  0  2.567166  0  4.061045  0  0  2.640473  0  4.689549  0  0  2.745137  0  4.655528  0  0  2.203331  2.567444  0  4.712049  0
U  U3  1  0.73490949  0.94749986  0.11746482  1  0  2.567262  0  4.06116  0  0  2.640659  0  4.689481  0  0  2.745276  0  4.655524  0  0  2.203504  2.567637  0  4.711961  0
U  U4  1  0.30729031  0.77459114  0.83618057  1  0  2.504341  0  4.106132  0  0  2.577089  0  4.744513  0  0  2.685304  0  4.711503  0  0  2.200318  2.500866  0  4.767982  0
U  U5  1  0.30728473  0.22540934  0.66382187  1  0  2.504246  0  4.106142  0  0  2.577139  0  4.744452  0  0  2.685323  0  4.711454  0  0  2.200411  2.500848  0  4.768005  0
U  U6  1  0.69270757  0.22540686  0.16381992  1  0  2.504315  0  4.105898  0  0  2.57725  0  4.744188  0  0  2.68539  0  4.711253  0  0  2.200348  2.500963  0  4.767736  0
U  U7  1  0.69271615  0.77458998  0.33617553  1  0  2.504076  0  4.106138  0  0  2.576966  0  4.744438  0  0  2.685185  0  4.711401  0  0  2.200311  2.500718  0  4.767944  0
H  H8  1  0.51008284  0.91157673  0.76385114  1  0  0.436428  0  0.829464  0  0  0.430652  0  0.862357  0  0  0.441286  0  0.847305  0  0  0.336019  0.423241  0  0.872826  0
H  H9  1  0.51007436  0.08842729  0.73614786  1  0  0.436383  0  0.82953  0  0  0.430594  0  0.862436  0  0  0.441235  0  0.847384  0  0  0.335993  0.423155  0  0.872931  0
H  H10  1  0.48991804  0.08842127  0.23614935  1  0  0.436452  0  0.829397  0  0  0.430681  0  0.862309  0  0  0.441313  0  0.847261  0  0  0.336034  0.423268  0  0.872781  0
H  H11  1  0.48992952  0.91157274  0.26385033  1  0  0.436395  0  0.82953  0  0  0.430581  0  0.86245  0  0  0.441243  0  0.847375  0  0  0.336007  0.423137  0  0.872948  0
H  H12  1  0.29279090  0.92009024  0.99775022  1  0  0.450757  0  0.841962  0  0  0.432974  0  0.887577  0  0  0.445447  0  0.869402  0  0  0.311823  0.424193  0  0.900351  0
H  H13  1  0.29279329  0.07991027  0.50225166  1  0  0.450735  0  0.84199  0  0  0.432963  0  0.887586  0  0  0.445438  0  0.869411  0  0  0.311852  0.424186  0  0.90036  0
H  H14  1  0.70720698  0.07990910  0.00224851  1  0  0.45086  0  0.841819  0  0  0.433055  0  0.887463  0  0  0.445534  0  0.869294  0  0  0.311848  0.424273  0  0.90024  0
H  H15  1  0.70721959  0.92008908  0.49774707  1  0  0.450785  0  0.841921  0  0  0.433016  0  0.887514  0  0  0.445488  0  0.869342  0  0  0.311914  0.424239  0  0.900287  0
H  H16  1  0.01560337  0.90296920  0.45108401  1  0  0.451744  0  0.849305  0  0  0.425631  0  0.90674  0  0  0.438538  0  0.888283  0  0  0.311922  0.416552  0  0.919652  0
H  H17  1  0.01558307  0.09702943  0.04891113  1  0  0.45163  0  0.849471  0  0  0.425525  0  0.906889  0  0  0.438435  0  0.88843  0  0  0.311889  0.416444  0  0.919803  0
H  H18  1  0.98441252  0.09702875  0.54891381  1  0  0.451609  0  0.849487  0  0  0.425504  0  0.906905  0  0  0.438412  0  0.88845  0  0  0.311877  0.416425  0  0.919819  0
H  H19  1  0.98441931  0.90297050  0.95108172  1  0  0.451592  0  0.849502  0  0  0.425484  0  0.90693  0  0  0.438393  0  0.888473  0  0  0.31185  0.416403  0  0.919845  0
H  H20  1  0.24035400  0.85891065  0.42072061  1  0  0.465747  0  0.817716  0  0  0.446953  0  0.861391  0  0  0.45897  0  0.84378  0  0  0.323501  0.438436  0  0.873891  0
H  H21  1  0.24033986  0.14108534  0.07927583  1  0  0.465847  0  0.817561  0  0  0.447052  0  0.861239  0  0  0.459068  0  0.843632  0  0  0.323565  0.438536  0  0.873737  0
H  H22  1  0.75965589  0.14108590  0.57927630  1  0  0.465814  0  0.817602  0  0  0.447019  0  0.861278  0  0  0.459036  0  0.843669  0  0  0.323555  0.438502  0  0.873779  0
H  H23  1  0.75965802  0.85891329  0.92072144  1  0  0.465772  0  0.817656  0  0  0.446979  0  0.861333  0  0  0.458996  0  0.843724  0  0  0.323537  0.438465  0  0.873828  0
H  H24  1  0.21725130  0.67874479  0.42932425  1  0  0.117331  0  0.941774  0  0  0.124616  0  1.005099  0  0  0.127519  0  1.002372  0  0  0.120934  0.122644  0  1.007023  0
H  H25  1  0.21723761  0.32126522  0.07068148  1  0  0.11729  0  0.941961  0  0  0.124648  0  1.005155  0  0  0.127546  0  1.002439  0  0  0.120939  0.122678  0  1.007074  0
H  H26  1  0.78275108  0.32125929  0.57066933  1  0  0.117275  0  0.941852  0  0  0.124595  0  1.005119  0  0  0.127494  0  1.0024  0  0  0.120911  0.122624  0  1.007046  0
H  H27  1  0.78276027  0.67873626  0.92932096  1  0  0.11714  0  0.941817  0  0  0.124482  0  1.005056  0  0  0.127379  0  1.002342  0  0  0.120891  0.122513  0  1.006976  0
H  H28  1  0.17354591  0.52452407  0.32927848  1  0  0.097873  0  0.935889  0  0  0.111627  0  0.986531  0  0  0.114485  0  0.985952  0  0  0.111789  0.109605  0  0.987103  0
H  H29  1  0.17354424  0.47548257  0.17072563  1  0  0.097801  0  0.93593  0  0  0.111566  0  0.986567  0  0  0.114396  0  0.986018  0  0  0.111795  0.109546  0  0.987133  0
H  H30  1  0.82645647  0.47547794  0.67071540  1  0  0.09795  0  0.935933  0  0  0.111676  0  0.986576  0  0  0.11455  0  0.98598  0  0  0.111805  0.109655  0  0.987149  0
H  H31  1  0.82645514  0.52451064  0.82927734  1  0  0.097881  0  0.935843  0  0  0.111648  0  0.986478  0  0  0.11449  0  0.985928  0  0  0.1118  0.109628  0  0.987049  0
H  H32  1  0.20326711  0.38075157  0.39322017  1  0  0.116157  0  0.912743  0  0  0.127571  0  0.966175  0  0  0.130737  0  0.963887  0  0  0.119334  0.125299  0  0.967824  0
H  H33  1  0.20327100  0.61925917  0.10678646  1  0  0.116126  0  0.912851  0  0  0.127571  0  0.96624  0  0  0.130737  0  0.963953  0  0  0.119315  0.125287  0  0.967905  0
H  H34  1  0.79671276  0.61925325  0.60677621  1  0  0.116153  0  0.912785  0  0  0.127591  0  0.96621  0  0  0.130756  0  0.96392  0  0  0.119376  0.125347  0  0.967825  0
H  H35  1  0.79672388  0.38074183  0.89322787  1  0  0.116114  0  0.912878  0  0  0.127578  0  0.966255  0  0  0.130744  0  0.963967  0  0  0.119375  0.125328  0  0.967883  0
H  H36  1  0.32774098  0.54674775  0.65635517  1  0  0.126748  0  0.935908  0  0  0.135255  0  0.996386  0  0  0.139842  0  0.992034  0  0  0.120756  0.131928  0  0.999518  0
H  H37  1  0.32773820  0.45325472  0.84364616  1  0  0.12672  0  0.935827  0  0  0.135197  0  0.996352  0  0  0.139785  0  0.991999  0  0  0.120735  0.13187  0  0.999484  0
H  H38  1  0.67225540  0.45324940  0.34363653  1  0  0.126686  0  0.935785  0  0  0.135151  0  0.996318  0  0  0.139738  0  0.991967  0  0  0.120718  0.131821  0  0.999448  0
H  H39  1  0.67227168  0.54675166  0.15636047  1  0  0.126692  0  0.93586  0  0  0.135221  0  0.996326  0  0  0.13981  0  0.991968  0  0  0.120763  0.131891  0  0.999459  0
C  C40  1  0.27722481  0.37315840  0.57163492  1  0  0.620457  0  3.900405  0  0  0.582715  0  4.20779  0  0  0.619201  0  4.203945  0  0  0.202859  0.55772  0  4.209468  0
C  C41  1  0.27723141  0.62684689  0.92836193  1  0  0.620305  0  3.90071  0  0  0.582566  0  4.208114  0  0  0.619062  0  4.204279  0  0  0.202748  0.557565  0  4.209802  0
C  C42  1  0.72277007  0.62684216  0.42835471  1  0  0.620563  0  3.900388  0  0  0.58284  0  4.207798  0  0  0.619347  0  4.203952  0  0  0.20289  0.557834  0  4.209495  0
C  C43  1  0.72276497  0.37315610  0.07164810  1  0  0.62039  0  3.900679  0  0  0.58274  0  4.20812  0  0  0.619244  0  4.204272  0  0  0.202794  0.557723  0  4.209794  0
C  C44  1  0.27681754  0.62231159  0.54896895  1  0  -0.092253  0  3.758085  0  0  -0.071595  0  3.993014  0  0  -0.085342  0  4.017425  0  0  -0.012401  -0.062737  0  3.976766  0
C  C45  1  0.27682675  0.37769386  0.95103725  1  0  -0.092172  0  3.758152  0  0  -0.071576  0  3.99311  0  0  -0.085317  0  4.017519  0  0  -0.012392  -0.06271  0  3.976847  0
C  C46  1  0.72318184  0.37768977  0.45102681  1  0  -0.092236  0  3.758189  0  0  -0.071664  0  3.993199  0  0  -0.085413  0  4.0176  0  0  -0.012358  -0.062792  0  3.976927  0
C  C47  1  0.72319965  0.62230977  0.04897023  1  0  -0.092272  0  3.757906  0  0  -0.071715  0  3.993022  0  0  -0.085464  0  4.017428  0  0  -0.012397  -0.062835  0  3.976738  0
C  C48  1  0.23085277  0.61598520  0.45681240  1  0  -0.023223  0  3.658106  0  0  -0.057737  0  3.919152  0  0  -0.052913  0  3.937473  0  0  -0.058329  -0.0605  0  3.906509  0
C  C49  1  0.23084853  0.38402209  0.04319741  1  0  -0.023373  0  3.658221  0  0  -0.057957  0  3.919345  0  0  -0.053133  0  3.937654  0  0  -0.058368  -0.060726  0  3.906702  0
C  C50  1  0.76914060  0.38402037  0.54318743  1  0  -0.023269  0  3.658296  0  0  -0.057786  0  3.919345  0  0  -0.05296  0  3.937665  0  0  -0.058367  -0.060559  0  3.906709  0
C  C51  1  0.76915985  0.61597538  0.95681230  1  0  -0.023009  0  3.658077  0  0  -0.05752  0  3.919161  0  0  -0.052694  0  3.937476  0  0  -0.058238  -0.060293  0  3.90652  0
C  C52  1  0.20661770  0.52918056  0.40100950  1  0  -0.068421  0  3.722945  0  0  -0.08178  0  3.987641  0  0  -0.088416  0  4.00959  0  0  -0.077686  -0.077591  0  3.972639  0
C  C53  1  0.20661395  0.47083360  0.09899571  1  0  -0.06817  0  3.722926  0  0  -0.081515  0  3.987629  0  0  -0.088123  0  4.009574  0  0  -0.077681  -0.077322  0  3.972621  0
C  C54  1  0.79337268  0.47082562  0.59898578  1  0  -0.068329  0  3.723044  0  0  -0.081631  0  3.987683  0  0  -0.088282  0  4.00963  0  0  -0.07759  -0.077446  0  3.972702  0
C  C55  1  0.79338092  0.52916867  0.90101286  1  0  -0.068349  0  3.722799  0  0  -0.081708  0  3.987472  0  0  -0.088334  0  4.009434  0  0  -0.07763  -0.07752  0  3.972492  0
C  C56  1  0.22267591  0.44876130  0.43648914  1  0  -0.020074  0  3.66103  0  0  -0.052536  0  3.916189  0  0  -0.048091  0  3.93452  0  0  -0.058128  -0.054946  0  3.903382  0
C  C57  1  0.22267725  0.55124731  0.06351697  1  0  -0.020239  0  3.661166  0  0  -0.052729  0  3.916367  0  0  -0.048273  0  3.934699  0  0  -0.058195  -0.055132  0  3.903565  0
C  C58  1  0.77731297  0.55124215  0.56350765  1  0  -0.020255  0  3.66109  0  0  -0.052736  0  3.916338  0  0  -0.048268  0  3.934681  0  0  -0.058216  -0.055169  0  3.903539  0
C  C59  1  0.77732363  0.44875298  0.93649657  1  0  -0.020271  0  3.66116  0  0  -0.052669  0  3.916466  0  0  -0.048201  0  3.934804  0  0  -0.05828  -0.055121  0  3.903649  0
C  C60  1  0.26417880  0.45549548  0.52908909  1  0  -0.083713  0  3.784443  0  0  -0.05096  0  4.005919  0  0  -0.062918  0  4.031385  0  0  -0.013176  -0.043423  0  3.98904  0
C  C61  1  0.26418460  0.54451341  0.97091448  1  0  -0.083452  0  3.784023  0  0  -0.050722  0  4.005532  0  0  -0.062706  0  4.031022  0  0  -0.013028  -0.043189  0  3.988676  0
C  C62  1  0.73581007  0.54450652  0.47090413  1  0  -0.083393  0  3.78416  0  0  -0.050752  0  4.005784  0  0  -0.062774  0  4.031337  0  0  -0.013064  -0.043219  0  3.98893  0
C  C63  1  0.73581928  0.45549243  0.02910071  1  0  -0.08332  0  3.784348  0  0  -0.05095  0  4.00634  0  0  -0.062977  0  4.031899  0  0  -0.013091  -0.043341  0  3.989376  0
C  C64  1  0.29363814  0.54207858  0.58476366  1  0  -0.045527  0  3.673361  0  0  -0.083362  0  3.915904  0  0  -0.078588  0  3.934286  0  0  -0.060528  -0.086083  0  3.903369  0
C  C65  1  0.29363894  0.45791922  0.91524107  1  0  -0.045471  0  3.673438  0  0  -0.083256  0  3.915997  0  0  -0.078479  0  3.934397  0  0  -0.06046  -0.085975  0  3.903454  0
C  C66  1  0.70635823  0.45792071  0.41523174  1  0  -0.045572  0  3.67331  0  0  -0.083314  0  3.915929  0  0  -0.078519  0  3.934324  0  0  -0.060567  -0.08603  0  3.903376  0
C  C67  1  0.70637244  0.54207755  0.08476852  1  0  -0.045555  0  3.67319  0  0  -0.08328  0  3.915916  0  0  -0.078483  0  3.934312  0  0  -0.060533  -0.086028  0  3.903352  0
C  C68  1  0.30956051  0.71268751  0.61046911  1  0  0.722887  0  3.805499  0  0  0.695457  0  4.089009  0  0  0.738282  0  4.074243  0  0  0.264774  0.665778  0  4.09825  0
C  C69  1  0.30956644  0.28731234  0.88953720  1  0  0.72284  0  3.805419  0  0  0.695546  0  4.088754  0  0  0.738369  0  4.073989  0  0  0.264884  0.665867  0  4.097989  0
C  C70  1  0.69042537  0.28731183  0.38952962  1  0  0.723019  0  3.80523  0  0  0.695651  0  4.088698  0  0  0.738486  0  4.073917  0  0  0.264906  0.66597  0  4.097934  0
C  C71  1  0.69044345  0.71268846  0.11046578  1  0  0.722927  0  3.80544  0  0  0.695505  0  4.088993  0  0  0.738344  0  4.074222  0  0  0.264856  0.665827  0  4.098227  0
O  O72  1  0.00659205  0.95513593  0.65218840  1  0  -0.651907  0  1.495397  0  0  -0.658842  0  1.750779  0  0  -0.67914  0  1.737552  0  0  -0.731323  -0.646759  0  1.760516  0
O  O73  1  0.00658918  0.04486746  0.84781665  1  0  -0.651808  0  1.49521  0  0  -0.65882  0  1.750594  0  0  -0.679116  0  1.737353  0  0  -0.731182  -0.646726  0  1.760344  0
O  O74  1  0.99341033  0.04486069  0.34781252  1  0  -0.651798  0  1.495232  0  0  -0.658798  0  1.750628  0  0  -0.679121  0  1.737383  0  0  -0.731255  -0.646719  0  1.76036  0
O  O75  1  0.99340120  0.95514290  0.15218137  1  0  -0.651805  0  1.495516  0  0  -0.658834  0  1.750915  0  0  -0.679143  0  1.737674  0  0  -0.731374  -0.646758  0  1.760647  0
O  O76  1  0.52873758  0.94131460  0.58525850  1  0  -0.729275  0  1.583129  0  0  -0.730555  0  1.856042  0  0  -0.752233  0  1.839693  0  0  -0.732515  -0.717572  0  1.867833  0
O  O77  1  0.52873988  0.05868258  0.91474649  1  0  -0.729275  0  1.583189  0  0  -0.730522  0  1.85605  0  0  -0.752211  0  1.839694  0  0  -0.732509  -0.717538  0  1.867869  0
O  O78  1  0.47126630  0.05867177  0.41474726  1  0  -0.729221  0  1.583262  0  0  -0.730538  0  1.856207  0  0  -0.752242  0  1.839831  0  0  -0.732506  -0.717549  0  1.867964  0
O  O79  1  0.47126401  0.94131468  0.08525121  1  0  -0.729297  0  1.583215  0  0  -0.730591  0  1.856069  0  0  -0.75228  0  1.839701  0  0  -0.732515  -0.717625  0  1.867882  0
O  O80  1  0.04533472  0.76698572  0.80424847  1  0  -0.686437  0  1.475646  0  0  -0.690183  0  1.727576  0  0  -0.709919  0  1.714526  0  0  -0.746968  -0.678132  0  1.737307  0
O  O81  1  0.04532351  0.23301176  0.69573996  1  0  -0.686405  0  1.475756  0  0  -0.690202  0  1.727675  0  0  -0.709933  0  1.714625  0  0  -0.747061  -0.678142  0  1.737421  0
O  O82  1  0.95466766  0.23300396  0.19574922  1  0  -0.686404  0  1.475529  0  0  -0.690216  0  1.727441  0  0  -0.709931  0  1.714397  0  0  -0.746972  -0.678155  0  1.737181  0
O  O83  1  0.95467587  0.76699020  0.30425125  1  0  -0.686343  0  1.475625  0  0  -0.69015  0  1.727554  0  0  -0.709882  0  1.714493  0  0  -0.746979  -0.678096  0  1.737289  0
O  O84  1  0.57294836  0.79031408  0.86639153  1  0  -0.75392  0  1.598657  0  0  -0.753922  0  1.875328  0  0  -0.77668  0  1.858591  0  0  -0.739111  -0.739498  0  1.887434  0
O  O85  1  0.57294540  0.20968785  0.63361598  1  0  -0.753863  0  1.598638  0  0  -0.753901  0  1.875312  0  0  -0.776643  0  1.858577  0  0  -0.739104  -0.739463  0  1.887437  0
O  O86  1  0.42704802  0.20968729  0.13360490  1  0  -0.753944  0  1.598578  0  0  -0.753995  0  1.875218  0  0  -0.776727  0  1.858488  0  0  -0.739118  -0.739557  0  1.887337  0
O  O87  1  0.42705998  0.79031093  0.36638997  1  0  -0.753808  0  1.598664  0  0  -0.753856  0  1.875353  0  0  -0.776602  0  1.858612  0  0  -0.73909  -0.739425  0  1.887467  0
O  O88  1  0.36323459  0.91206469  0.76526751  1  0  -1.074439  0  1.858839  0  0  -1.102474  0  2.124429  0  0  -1.143855  0  2.108869  0  0  -0.671901  -1.072009  0  2.133865  0
O  O89  1  0.36322767  0.08793565  0.73473519  1  0  -1.074348  0  1.858791  0  0  -1.102411  0  2.12449  0  0  -1.14383  0  2.108926  0  0  -0.671876  -1.071889  0  2.133998  0
O  O90  1  0.63676629  0.08793047  0.23472849  1  0  -1.074465  0  1.858786  0  0  -1.102515  0  2.124407  0  0  -1.143908  0  2.108842  0  0  -0.671925  -1.072061  0  2.13384  0
O  O91  1  0.63677622  0.91206374  0.26526622  1  0  -1.074315  0  1.858764  0  0  -1.102313  0  2.124445  0  0  -1.143779  0  2.108819  0  0  -0.671889  -1.071798  0  2.133979  0
O  O92  1  0.22130758  0.91145132  0.93855853  1  0  -1.025034  0  1.816645  0  0  -1.028406  0  2.060635  0  0  -1.069937  0  2.04137  0  0  -0.672726  -0.997727  0  2.072553  0
O  O93  1  0.22131094  0.08854804  0.56144564  1  0  -1.025001  0  1.816602  0  0  -1.028406  0  2.060675  0  0  -1.069879  0  2.041297  0  0  -0.672787  -0.997692  0  2.072489  0
O  O94  1  0.77869480  0.08854732  0.06143941  1  0  -1.025142  0  1.816519  0  0  -1.028526  0  2.060559  0  0  -1.070057  0  2.041235  0  0  -0.672758  -0.997819  0  2.072401  0
O  O95  1  0.77870345  0.91145134  0.43855509  1  0  -1.025113  0  1.816621  0  0  -1.028476  0  2.060594  0  0  -1.07002  0  2.041327  0  0  -0.672853  -0.997798  0  2.072466  0
O  O96  1  0.16440088  0.90514840  0.46516169  1  0  -0.878259  0  1.887495  0  0  -0.856139  0  2.081338  0  0  -0.883578  0  2.048562  0  0  -0.619012  -0.83599  0  2.103567  0
O  O97  1  0.16438407  0.09484917  0.03483489  1  0  -0.878244  0  1.887549  0  0  -0.856133  0  2.081363  0  0  -0.883577  0  2.048586  0  0  -0.61907  -0.835972  0  2.103596  0
O  O98  1  0.83561350  0.09484952  0.53483479  1  0  -0.878206  0  1.887616  0  0  -0.856072  0  2.081429  0  0  -0.883532  0  2.048649  0  0  -0.619029  -0.835929  0  2.103661  0
O  O99  1  0.83561531  0.90515421  0.96515790  1  0  -0.878117  0  1.887623  0  0  -0.85603  0  2.081451  0  0  -0.883476  0  2.048673  0  0  -0.618997  -0.835881  0  2.10368  0
O  O100  1  0.38927090  0.71306458  0.68822008  1  0  -0.65952  0  2.052232  0  0  -0.648225  0  2.315122  0  0  -0.684877  0  2.306374  0  0  -0.375439  -0.621543  0  2.319772  0
O  O101  1  0.38926742  0.28693494  0.81177963  1  0  -0.659516  0  2.05217  0  0  -0.648269  0  2.31499  0  0  -0.684916  0  2.30624  0  0  -0.375478  -0.621583  0  2.319646  0
O  O102  1  0.61070597  0.28693615  0.31177890  1  0  -0.65956  0  2.051928  0  0  -0.648321  0  2.314806  0  0  -0.684963  0  2.306049  0  0  -0.375489  -0.621635  0  2.31946  0
O  O103  1  0.61072595  0.71306506  0.18821722  1  0  -0.659517  0  2.052156  0  0  -0.648224  0  2.315046  0  0  -0.684881  0  2.306291  0  0  -0.375448  -0.621545  0  2.319701  0
O  O104  1  0.25815694  0.78683837  0.58549383  1  0  -0.653618  0  2.074879  0  0  -0.649222  0  2.346582  0  0  -0.686512  0  2.338328  0  0  -0.357632  -0.622074  0  2.350673  0
O  O105  1  0.25816109  0.21316714  0.91451250  1  0  -0.653556  0  2.074984  0  0  -0.649235  0  2.346659  0  0  -0.686513  0  2.338381  0  0  -0.357668  -0.622083  0  2.350753  0
O  O106  1  0.74182893  0.21316379  0.41450806  1  0  -0.653666  0  2.074809  0  0  -0.649296  0  2.346508  0  0  -0.686595  0  2.338224  0  0  -0.3577  -0.622161  0  2.350615  0
O  O107  1  0.74184279  0.78683363  0.08548848  1  0  -0.653597  0  2.074952  0  0  -0.649225  0  2.346678  0  0  -0.686513  0  2.338394  0  0  -0.357683  -0.622083  0  2.350766  0
O  O108  1  0.25164032  0.29064121  0.52669097  1  0  -0.601606  0  1.888243  0  0  -0.593982  0  2.129884  0  0  -0.626538  0  2.126324  0  0  -0.336815  -0.57037  0  2.131155  0
O  O109  1  0.25163131  0.70936415  0.97330607  1  0  -0.60162  0  1.888284  0  0  -0.593971  0  2.129922  0  0  -0.626526  0  2.126358  0  0  -0.336841  -0.570359  0  2.131197  0
O  O110  1  0.74836056  0.70936007  0.47330012  1  0  -0.601646  0  1.888209  0  0  -0.594017  0  2.129847  0  0  -0.62657  0  2.126273  0  0  -0.336858  -0.570409  0  2.13113  0
O  O111  1  0.74836057  0.29064092  0.02670432  1  0  -0.601601  0  1.888423  0  0  -0.593973  0  2.13005  0  0  -0.626516  0  2.126477  0  0  -0.336856  -0.570368  0  2.131336  0
O  O112  1  0.31453308  0.38508693  0.65747598  1  0  -0.630658  0  1.953322  0  0  -0.621266  0  2.207463  0  0  -0.655296  0  2.203877  0  0  -0.363749  -0.596896  0  2.20888  0
O  O113  1  0.31455765  0.61491000  0.84252179  1  0  -0.630621  0  1.953372  0  0  -0.621234  0  2.207553  0  0  -0.655247  0  2.203927  0  0  -0.363711  -0.596874  0  2.208979  0
O  O114  1  0.68545580  0.61490882  0.34251480  1  0  -0.630787  0  1.953362  0  0  -0.621384  0  2.207511  0  0  -0.655408  0  2.203899  0  0  -0.363809  -0.597016  0  2.208936  0
O  O115  1  0.68544474  0.38508747  0.15748792  1  0  -0.630727  0  1.953382  0  0  -0.621309  0  2.207469  0  0  -0.655333  0  2.203881  0  0  -0.363759  -0.596943  0  2.208896  0
