# generated using pymatgen
data_Hf3H17C45O16
_symmetry_space_group_name_H-M   'P 1'
_cell_length_a   17.40239268
_cell_length_b   17.40777156
_cell_length_c   17.41324988
_cell_angle_alpha   93.60212357
_cell_angle_beta   93.54543564
_cell_angle_gamma   93.62568695
_symmetry_Int_Tables_number   1
_chemical_formula_structural   Hf3H17C45O16
_chemical_formula_sum   'Hf6 H34 C90 O32'
_cell_volume   5242.67425899
_cell_formula_units_Z   2
loop_
 _symmetry_equiv_pos_site_id
 _symmetry_equiv_pos_as_xyz
  1  'x, y, z'
loop_
 _atom_site_type_symbol
 _atom_site_label
 _atom_site_symmetry_multiplicity
 _atom_site_fract_x
 _atom_site_fract_y
 _atom_site_fract_z
 _atom_site_occupancy
 _atom_site_pbe_bader_charge
 _atom_site_pbe_bader_spin_density
 _atom_site_pbe_cm5_charge
 _atom_site_pbe_ddec_charge
 _atom_site_pbe_ddec_spin_density
 _atom_site_pbe_ddec_sum_bond_order
 _atom_site_pbe_magmom
Hf  Hf0  1  0.01784719  0.19533526  0.14377545  1  2.625514  0  1.501506  2.144503  0  3.31744  0
Hf  Hf1  1  0.13143904  0.23584969  0.98987619  1  2.625005  0  1.501427  2.143742  0  3.321482  0
Hf  Hf2  1  0.98094869  0.00469585  0.06635209  1  2.628084  0  1.502804  2.143861  0  3.323949  0
Hf  Hf3  1  0.17173600  0.08177385  0.10295526  1  2.624311  0  1.501905  2.144048  0  3.319329  0
Hf  Hf4  1  0.94063147  0.15886014  0.95319230  1  2.626941  0  1.503488  2.144172  0  3.32362  0
Hf  Hf5  1  0.09429797  0.04527487  0.91240884  1  2.626998  0  1.503802  2.143015  0  3.327064  0
H  H6  1  0.71122899  0.07939457  0.38879199  1  0.097636  0  0.110784  0.116165  0  0.992072  0
H  H7  1  0.74064089  0.08570598  0.63688446  1  0.109585  0  0.112799  0.119939  0  0.989117  0
H  H8  1  0.93342936  0.04291985  0.49971512  1  0.097638  0  0.115086  0.125236  0  0.979941  0
H  H9  1  0.17884304  0.18719425  0.56043463  1  0.112752  0  0.114795  0.124585  0  0.98096  0
H  H10  1  0.36620850  0.13983655  0.41734911  1  0.090055  0  0.112828  0.119926  0  0.98917  0
H  H11  1  0.40410219  0.15227112  0.66507081  1  0.086792  0  0.111256  0.116772  0  0.992553  0
H  H12  1  0.41673952  0.77488171  0.98674735  1  0.085518  0  0.110808  0.116122  0  0.992339  0
H  H13  1  0.66497086  0.80516609  0.99300260  1  0.090449  0  0.112558  0.119518  0  0.989646  0
H  H14  1  0.52728650  0.99742702  0.95035904  1  0.100563  0  0.115384  0.125414  0  0.979693  0
H  H15  1  0.58894462  0.24345598  0.09553641  1  0.078025  0  0.115206  0.12548  0  0.980554  0
H  H16  1  0.44567781  0.43024991  0.04733168  1  0.087344  0  0.112769  0.119418  0  0.989921  0
H  H17  1  0.69356014  0.46872512  0.06005455  1  0.08455  0  0.111236  0.116452  0  0.992938  0
H  H18  1  0.01947839  0.48175132  0.68279286  1  0.101787  0  0.110417  0.115444  0  0.99312  0
H  H19  1  0.03011059  0.72995717  0.71498563  1  0.083056  0  0.113159  0.120188  0  0.988636  0
H  H20  1  0.97985643  0.59140944  0.90477566  1  0.093664  0  0.115616  0.126065  0  0.979505  0
H  H21  1  0.09777222  0.75852819  0.37739325  1  0.089156  0  0.111319  0.116828  0  0.992485  0
H  H22  1  0.08128518  0.51057856  0.34037853  1  0.095311  0  0.11292  0.11997  0  0.988461  0
H  H23  1  0.12482544  0.65206779  0.15097598  1  0.082685  0  0.115018  0.125319  0  0.980364  0
H  H24  1  0.17681103  0.24038386  0.14852134  1  0.600358  0  0.340768  0.421581  0  0.85083  0
H  H25  1  0.87578034  0.11797007  0.09177875  1  0.598419  0  0.339749  0.418819  0  0.854782  0
H  H26  1  0.11945945  0.93991817  0.02532341  1  0.62285  0  0.339539  0.41834  0  0.855632  0
H  H27  1  0.05374250  0.18400291  0.84790808  1  0.611435  0  0.340135  0.418823  0  0.855422  0
H  H28  1  0.97373202  0.71106273  0.59244794  1  0.088639  0  0.105749  0.104982  0  0.996512  0
H  H29  1  0.11558754  0.51707587  0.60165438  1  0.059246  0  0.104878  0.104572  0  0.99644  0
H  H30  1  0.14225297  0.52885801  0.46529815  1  0.039884  0  0.105464  0.105327  0  0.995473  0
H  H31  1  0.00059182  0.72296764  0.45630846  1  0.080644  0  0.105169  0.10475  0  0.996108  0
H  H32  1  0.65968716  0.58407040  0.11294804  1  0.053784  0  0.105104  0.104436  0  0.997263  0
H  H33  1  0.46041866  0.51925412  0.95734964  1  0.081181  0  0.106168  0.106304  0  0.995335  0
H  H34  1  0.44864177  0.65569667  0.93158586  1  0.04208  0  0.104769  0.104762  0  0.996664  0
H  H35  1  0.64807800  0.72037287  0.08691670  1  0.068249  0  0.106239  0.106691  0  0.994405  0
H  H36  1  0.59180973  0.02424746  0.42036976  1  0.085153  0  0.10452  0.104016  0  0.99696  0
H  H37  1  0.65596421  0.17957060  0.61996332  1  0.077145  0  0.106404  0.106733  0  0.994737  0
H  H38  1  0.51957338  0.20545641  0.63144069  1  0.057292  0  0.104794  0.104096  0  0.997891  0
H  H39  1  0.45527847  0.04988735  0.43202409  1  0.084735  0  0.106606  0.107159  0  0.994277  0
C  C40  1  0.82524145  0.05913321  0.43606692  1  0.113549  0  0.003622  0.133296  0  4.134982  0
C  C41  1  0.74698694  0.07357061  0.44149166  1  -0.118414  0  -0.071931  -0.162921  0  3.875627  0
C  C42  1  0.71571431  0.08360047  0.51344796  1  0.050717  0  -0.001725  0.079792  0  4.040004  0
C  C43  1  0.76372790  0.07883939  0.58025991  1  -0.023496  0  -0.070406  -0.160405  0  3.873613  0
C  C44  1  0.84196461  0.06382171  0.57588745  1  0.066076  0  0.002365  0.132296  0  4.143468  0
C  C45  1  0.87276046  0.05360339  0.50353832  1  0.015565  0  -0.067248  -0.163036  0  3.856022  0
C  C46  1  0.28891827  0.17194994  0.62108824  1  0.051258  0  0.004319  0.133066  0  4.135601  0
C  C47  1  0.23915031  0.17590005  0.55487493  1  0.000263  0  -0.068154  -0.163453  0  3.857769  0
C  C48  1  0.26733609  0.16364856  0.48151226  1  0.037153  0  0.002482  0.132691  0  4.141127  0
C  C49  1  0.34521861  0.14813392  0.47479033  1  0.019048  0  -0.070087  -0.159278  0  3.872498  0
C  C50  1  0.39546624  0.14504136  0.54030961  1  -0.009546  0  -0.002733  0.076411  0  4.04079  0
C  C51  1  0.36664270  0.15686775  0.61325803  1  0.008119  0  -0.071389  -0.160577  0  3.874597  0
C  C52  1  0.46378973  0.88905108  0.96657104  1  0.113123  0  0.0041  0.133256  0  4.132776  0
C  C53  1  0.46940737  0.81083333  0.98094702  1  -0.071366  0  -0.071502  -0.161834  0  3.876326  0
C  C54  1  0.54149220  0.77981911  0.99095660  1  -0.028666  0  -0.002868  0.076081  0  4.044816  0
C  C55  1  0.60824884  0.82804918  0.98618046  1  0.008354  0  -0.070059  -0.1588  0  3.875639  0
C  C56  1  0.60368134  0.90624290  0.97118304  1  0.085429  0  0.00281  0.131429  0  4.143298  0
C  C57  1  0.53122225  0.93679349  0.96105335  1  0.014509  0  -0.067116  -0.161654  0  3.854563  0
C  C58  1  0.64958024  0.35353594  0.07993428  1  0.045701  0  0.003958  0.132732  0  4.13539  0
C  C59  1  0.58333981  0.30366803  0.08398073  1  0.04563  0  -0.067465  -0.163381  0  3.855794  0
C  C60  1  0.50990861  0.33161410  0.07153678  1  0.034122  0  0.003196  0.133254  0  4.138966  0
C  C61  1  0.50315813  0.40939941  0.05576036  1  0.020364  0  -0.070837  -0.158985  0  3.87251  0
C  C62  1  0.56870183  0.45977188  0.05265441  1  -0.026533  0  -0.002102  0.07587  0  4.041338  0
C  C63  1  0.64172552  0.43117458  0.06465816  1  0.005626  0  -0.07107  -0.159945  0  3.876461  0
C  C64  1  0.99954394  0.52842786  0.79714545  1  -0.001505  0  0.003879  0.132033  0  4.136682  0
C  C65  1  0.01562239  0.53435199  0.71938573  1  0.011782  0  -0.071507  -0.160617  0  3.873927  0
C  C66  1  0.02578860  0.60654033  0.68861384  1  -0.020075  0  -0.002026  0.077398  0  4.041006  0
C  C67  1  0.01991775  0.67309755  0.73677280  1  0.012367  0  -0.070447  -0.159189  0  3.87441  0
C  C68  1  0.00281165  0.66818219  0.81437438  1  0.079782  0  0.002208  0.130577  0  4.145072  0
C  C69  1  0.99230679  0.59561170  0.84461112  1  0.060547  0  -0.066257  -0.160889  0  3.855665  0
C  C70  1  0.11175936  0.71362557  0.26108684  1  0.078751  0  0.005147  0.134281  0  4.13513  0
C  C71  1  0.09912971  0.70645661  0.33943967  1  -0.029076  0  -0.071831  -0.161591  0  3.876881  0
C  C72  1  0.08876375  0.63374144  0.36901773  1  0.029935  0  -0.002255  0.077164  0  4.04203  0
C  C73  1  0.09155355  0.56774411  0.31928170  1  -0.043551  0  -0.070978  -0.16003  0  3.872657  0
C  C74  1  0.10507162  0.57383209  0.24085559  1  0.149896  0  0.002746  0.131684  0  4.138593  0
C  C75  1  0.11537961  0.64700065  0.21174124  1  -0.029128  0  -0.068112  -0.163087  0  3.855047  0
C  C76  1  0.92003695  0.06868552  0.22923311  1  1.676183  0  0.252563  0.712918  0  4.148457  0
C  C77  1  0.09579760  0.36353913  0.12501385  1  1.648884  0  0.249017  0.710129  0  4.151794  0
C  C78  1  0.15240094  0.15871495  0.27134665  1  1.671717  0  0.248387  0.708913  0  4.154009  0
C  C79  1  0.85884797  0.26341363  0.07738224  1  1.636651  0  0.248775  0.707908  0  4.15551  0
C  C80  1  0.19897956  0.16929582  0.83049339  1  1.680628  0  0.249306  0.708286  0  4.155514  0
C  C81  1  0.00851856  0.87935591  0.92730752  1  1.69265  0  0.246692  0.707089  0  4.157109  0
C  C82  1  0.29973303  0.21629185  0.06663875  1  1.661042  0  0.248606  0.709176  0  4.15277  0
C  C83  1  0.00550376  0.32164304  0.89213026  1  1.637964  0  0.251164  0.712547  0  4.150029  0
C  C84  1  0.81505489  0.01973797  0.98056442  1  1.64126  0  0.248895  0.709332  0  4.152882  0
C  C85  1  0.10535796  0.92255968  0.17043755  1  1.692878  0  0.249016  0.708335  0  4.153817  0
C  C86  1  0.25707728  0.98399864  0.97629067  1  1.679968  0  0.25258  0.712931  0  4.149259  0
C  C87  1  0.95511037  0.07307960  0.78721265  1  1.631015  0  0.24704  0.706847  0  4.154839  0
C  C88  1  0.11750412  0.78799014  0.23204160  1  -0.182138  0  -0.014905  -0.01382  0  4.061788  0
C  C89  1  0.11781837  0.85192489  0.20729045  1  -0.104554  0  -0.040629  -0.198726  0  3.93449  0
C  C90  1  0.10330815  0.44173381  0.15810683  1  0.262891  0  -0.042609  -0.200504  0  3.951741  0
C  C91  1  0.10558374  0.50472321  0.19320771  1  -0.547668  0  -0.017523  -0.020106  0  4.068991  0
C  C92  1  0.99913723  0.80153929  0.89357946  1  -0.113283  0  -0.04326  -0.202019  0  3.958035  0
C  C93  1  0.99903732  0.73793953  0.86011314  1  -0.212944  0  -0.017418  -0.019057  0  4.075005  0
C  C94  1  0.99269506  0.39235237  0.85566840  1  -0.222561  0  -0.039326  -0.196852  0  3.932908  0
C  C95  1  0.99349415  0.45497501  0.82810185  1  -0.012494  0  -0.013996  -0.012764  0  4.060759  0
C  C96  1  0.01175507  0.67166959  0.56511563  1  -0.038382  0  -0.087786  -0.122523  0  3.991501  0
C  C97  1  0.04251316  0.61311786  0.60710046  1  -0.048293  0  -0.008044  0.063277  0  4.011285  0
C  C98  1  0.08920011  0.56162371  0.56963226  1  -0.045627  0  -0.088738  -0.124909  0  3.993444  0
C  C99  1  0.10438365  0.56835062  0.49276358  1  -0.065462  0  -0.088568  -0.124867  0  3.991719  0
C  C100  1  0.07348698  0.62684888  0.45082542  1  0.040678  0  -0.007269  0.065239  0  4.010513  0
C  C101  1  0.02697410  0.67844415  0.48834847  1  -0.062085  0  -0.088269  -0.124382  0  3.992832  0
C  C102  1  0.72422049  0.32525371  0.08724039  1  -0.302422  0  -0.013693  -0.011757  0  4.059091  0
C  C103  1  0.78827518  0.30068624  0.08921510  1  0.063261  0  -0.040678  -0.198764  0  3.931764  0
C  C104  1  0.44106469  0.28386251  0.07371361  1  -0.225452  0  -0.018421  -0.021768  0  4.072328  0
C  C105  1  0.37810606  0.24884541  0.07279807  1  -0.028598  0  -0.042406  -0.199515  0  3.95446  0
C  C106  1  0.67365782  0.95206436  0.96864045  1  -0.385192  0  -0.017192  -0.018401  0  4.073475  0
C  C107  1  0.73733445  0.98569756  0.97020978  1  0.112548  0  -0.043704  -0.203116  0  3.95828  0
C  C108  1  0.32778576  0.94780650  0.96258795  1  -0.090424  0  -0.03961  -0.196687  0  3.933957  0
C  C109  1  0.39043136  0.92037792  0.96206662  1  -0.170222  0  -0.013537  -0.012448  0  4.059271  0
C  C110  1  0.61402283  0.59937332  0.07204729  1  -0.03808  0  -0.088817  -0.124594  0  3.996163  0
C  C111  1  0.56116962  0.54142920  0.03690457  1  0.018151  0  -0.007454  0.065042  0  4.010695  0
C  C112  1  0.50114360  0.56328161  0.98684518  1  -0.009441  0  -0.088465  -0.12435  0  3.990592  0
C  C113  1  0.49444988  0.64029987  0.97228364  1  -0.097053  0  -0.08896  -0.126145  0  3.995167  0
C  C114  1  0.54760406  0.69810952  0.00710095  1  0.018765  0  -0.006861  0.066059  0  4.011342  0
C  C115  1  0.60740359  0.67631511  0.05742808  1  -0.059571  0  -0.088831  -0.125472  0  3.993064  0
C  C116  1  0.26053102  0.17916764  0.69570063  1  -0.547274  0  -0.014953  -0.013607  0  4.060256  0
C  C117  1  0.23606753  0.18110978  0.75979855  1  0.265278  0  -0.04125  -0.199166  0  3.933381  0
C  C118  1  0.18489484  0.16483676  0.34969547  1  -0.011962  0  -0.0426  -0.200014  0  3.955005  0
C  C119  1  0.21974379  0.16578107  0.41265735  1  -0.246289  0  -0.018702  -0.022023  0  4.074479  0
C  C120  1  0.92101170  0.06274461  0.70958292  1  0.131606  0  -0.042473  -0.200084  0  3.955961  0
C  C121  1  0.88757529  0.06126896  0.64590097  1  -0.389839  0  -0.018303  -0.0214  0  4.073659  0
C  C122  1  0.85670290  0.05455990  0.36276295  1  -0.532363  0  -0.013986  -0.01338  0  4.061569  0
C  C123  1  0.88403533  0.05502411  0.30006619  1  0.277147  0  -0.039441  -0.196665  0  3.934919  0
C  C124  1  0.57628390  0.06494898  0.46616313  1  -0.044057  0  -0.088336  -0.125166  0  3.994582  0
C  C125  1  0.63396987  0.09976051  0.51942075  1  -0.023876  0  -0.007828  0.064855  0  4.012199  0
C  C126  1  0.61200575  0.15004968  0.57921773  1  -0.088332  0  -0.087666  -0.124001  0  3.993169  0
C  C127  1  0.53501649  0.16461174  0.58574704  1  -0.04467  0  -0.089034  -0.1252  0  3.997157  0
C  C128  1  0.47719147  0.12943353  0.53282781  1  0.00931  0  -0.006697  0.065349  0  4.009965  0
C  C129  1  0.49921038  0.07945073  0.47277718  1  -0.080972  0  -0.088355  -0.124582  0  3.988955  0
O  O130  1  0.92196673  0.01326549  0.17824018  1  -1.166294  0  -0.322616  -0.566887  0  2.222655  0
O  O131  1  0.12957271  0.34668772  0.06392205  1  -1.162511  0  -0.324146  -0.568255  0  2.2286  0
O  O132  1  0.09156008  0.19285862  0.25456131  1  -1.161896  0  -0.324414  -0.568389  0  2.228866  0
O  O133  1  0.90846235  0.25981421  0.13362519  1  -1.149433  0  -0.318248  -0.562862  0  2.215769  0
O  O134  1  0.86290354  0.23480110  0.00827824  1  -1.154716  0  -0.338883  -0.571529  0  2.268045  0
O  O135  1  0.19054807  0.11865652  0.22442705  1  -1.163048  0  -0.343403  -0.578261  0  2.256556  0
O  O136  1  0.05509103  0.31681426  0.16281136  1  -1.150106  0  -0.343916  -0.57943  0  2.252793  0
O  O137  1  0.94679922  0.13840165  0.22501272  1  -1.154583  0  -0.338286  -0.571916  0  2.263535  0
O  O138  1  0.02344333  0.21576328  0.02934475  1  -1.200267  0  -0.76126  -1.062959  0  2.22977  0
O  O139  1  0.05716294  0.08735504  0.12341374  1  -1.200299  0  -0.76134  -1.06414  0  2.231382  0
O  O140  1  0.14231258  0.20614750  0.11413605  1  -1.223359  0  -0.658256  -0.998173  0  2.41925  0
O  O141  1  0.92709122  0.11901554  0.07300564  1  -1.223278  0  -0.658993  -0.999509  0  2.429484  0
O  O142  1  0.19573357  0.22556736  0.88019741  1  -1.160603  0  -0.319116  -0.563671  0  2.215556  0
O  O143  1  0.97664589  0.89600216  0.98962229  1  -1.156958  0  -0.325904  -0.56772  0  2.234263  0
O  O144  1  0.28276859  0.15545037  0.10074291  1  -1.161568  0  -0.323874  -0.568031  0  2.22775  0
O  O145  1  0.94981331  0.27094692  0.89414315  1  -1.158008  0  -0.321215  -0.565681  0  2.221049  0
O  O146  1  0.83181448  0.08222362  0.94903186  1  -1.158995  0  -0.326743  -0.56847  0  2.232791  0
O  O147  1  0.16151756  0.97245323  0.16704363  1  -1.16673  0  -0.319967  -0.56371  0  2.21791  0
O  O148  1  0.20606504  0.98602646  0.92096632  1  -1.164758  0  -0.321833  -0.566024  0  2.222952  0
O  O149  1  0.01748704  0.04132354  0.80379970  1  -1.159269  0  -0.325434  -0.567162  0  2.233832  0
O  O150  1  0.25294340  0.01081497  0.04597474  1  -1.157382  0  -0.339006  -0.573226  0  2.264121  0
O  O151  1  0.91856278  0.11594844  0.83305247  1  -1.150091  0  -0.340668  -0.576006  0  2.251447  0
O  O152  1  0.25288901  0.25444915  0.02655829  1  -1.160549  0  -0.344337  -0.579405  0  2.257359  0
O  O153  1  0.03616045  0.92648461  0.14204507  1  -1.146195  0  -0.33765  -0.571398  0  2.263548  0
O  O154  1  0.86078119  0.98297068  0.02326278  1  -1.152743  0  -0.341304  -0.576727  0  2.252191  0
O  O155  1  0.07509623  0.31729556  0.91921372  1  -1.152836  0  -0.33868  -0.573198  0  2.267956  0
O  O156  1  0.17019364  0.10022457  0.83449495  1  -1.147973  0  -0.33862  -0.570866  0  2.268154  0
O  O157  1  0.05092976  0.92534589  0.89042766  1  -1.160437  0  -0.340197  -0.574976  0  2.253695  0
O  O158  1  0.99283664  0.05727134  0.96497670  1  -1.197247  0  -0.762478  -1.061954  0  2.233611  0
O  O159  1  0.15155828  0.12128926  0.99513198  1  -1.199603  0  -0.761224  -1.063304  0  2.231033  0
O  O160  1  0.10075290  0.99122148  0.02651902  1  -1.249453  0  -0.659189  -0.998755  0  2.431091  0
O  O161  1  0.05483626  0.16524216  0.89917456  1  -1.238532  0  -0.659915  -1.00002  0  2.431862  0
