# generated using pymatgen
data_K2Pr2H2C8O17
_symmetry_space_group_name_H-M   'P 1'
_cell_length_a   8.51997766
_cell_length_b   12.20641012
_cell_length_c   15.77600000
_cell_angle_alpha   93.19615823
_cell_angle_beta   90.00000000
_cell_angle_gamma   90.00000000
_symmetry_Int_Tables_number   1
_chemical_formula_structural   K2Pr2H2C8O17
_chemical_formula_sum   'K8 Pr8 H8 C32 O68'
_cell_volume   1638.12576910
_cell_formula_units_Z   4
loop_
 _symmetry_equiv_pos_site_id
 _symmetry_equiv_pos_as_xyz
  1  'x, y, z'
loop_
 _atom_site_type_symbol
 _atom_site_label
 _atom_site_symmetry_multiplicity
 _atom_site_fract_x
 _atom_site_fract_y
 _atom_site_fract_z
 _atom_site_occupancy
 _atom_site_hle17_bader_spin_density
 _atom_site_hle17_ddec_charge
 _atom_site_hle17_ddec_spin_density
 _atom_site_hle17_ddec_sum_bond_order
 _atom_site_hle17_magmom
 _atom_site_hse06_10hf_bader_spin_density
 _atom_site_hse06_10hf_ddec_charge
 _atom_site_hse06_10hf_ddec_spin_density
 _atom_site_hse06_10hf_ddec_sum_bond_order
 _atom_site_hse06_10hf_magmom
 _atom_site_hse06_bader_spin_density
 _atom_site_hse06_ddec_charge
 _atom_site_hse06_ddec_spin_density
 _atom_site_hse06_ddec_sum_bond_order
 _atom_site_hse06_magmom
 _atom_site_pbe_bader_charge
 _atom_site_pbe_bader_spin_density
 _atom_site_pbe_cm5_charge
 _atom_site_pbe_ddec_charge
 _atom_site_pbe_ddec_spin_density
 _atom_site_pbe_ddec_sum_bond_order
 _atom_site_pbe_magmom
K  K0  1  0.15344172  0.24866618  0.14589712  1  0  0.956794  0  0.414251  0  0  0.913396  0  0.572894  0  0  0.930037  0  0.551293  0  0.88554  0  0.817933  0.901322  0  0.588683  0
K  K1  1  0.65344185  0.25133205  0.35410543  1  0  0.956785  0  0.414258  0  0  0.913395  0  0.572879  0  0  0.930016  0  0.551314  0  0.885551  0  0.817936  0.901317  0  0.588672  0
K  K2  1  0.84655973  0.75133520  0.85410249  1  0  0.956793  0  0.414268  0  0  0.913397  0  0.572899  0  0  0.930032  0  0.551311  0  0.885531  0  0.817936  0.901317  0  0.588694  0
K  K3  1  0.34656194  0.74866852  0.64589478  1  0  0.956779  0  0.414259  0  0  0.913404  0  0.572864  0  0  0.930019  0  0.551309  0  0.885551  0  0.81794  0.901318  0  0.588666  0
K  K4  1  0.25331287  0.25604921  0.73514184  1  0  0.948085  0  0.513886  0  0  0.910109  0  0.69012  0  0  0.923759  0  0.669435  0  0.876639  0  0.924923  0.899893  0  0.70586  0
K  K5  1  0.75331066  0.24395149  0.76486019  1  0  0.948059  0  0.513902  0  0  0.910061  0  0.690168  0  0  0.923709  0  0.669484  0  0.876609  0  0.924905  0.899843  0  0.705909  0
K  K6  1  0.74668623  0.74395054  0.26485707  1  0  0.948071  0  0.513922  0  0  0.910117  0  0.690132  0  0  0.923761  0  0.669453  0  0.876633  0  0.924934  0.899899  0  0.705878  0
K  K7  1  0.24668844  0.75604826  0.23513999  1  0  0.948077  0  0.513912  0  0  0.910078  0  0.690175  0  0  0.92373  0  0.669487  0  0.876593  0  0.924915  0.899861  0  0.705914  0
Pr  Pr8  1  0.32545156  0.54721166  0.90848707  1  0  2.267432  0  1.600319  0  0  2.094496  0  2.069451  0  0  2.19578  0  1.917497  0  2.254557  0  1.486849  2.06264  0  2.10203  0
Pr  Pr9  1  0.82545404  0.95278796  0.59151320  1  0  2.267368  0  1.600413  0  0  2.094373  0  2.069644  0  0  2.195709  0  1.917608  0  2.254588  0  1.486813  2.062544  0  2.102181  0
Pr  Pr10  1  0.67454637  0.45278809  0.09151248  1  0  2.267402  0  1.600377  0  0  2.094442  0  2.069549  0  0  2.195744  0  1.917567  0  2.254609  0  1.48685  2.062631  0  2.102056  0
Pr  Pr11  1  0.17454858  0.04721179  0.40848761  1  0  2.267387  0  1.600385  0  0  2.094385  0  2.069631  0  0  2.195736  0  1.917569  0  2.25456  0  1.486815  2.062544  0  2.102185  0
Pr  Pr12  1  0.83151861  0.48244161  0.60088754  1  0  2.290431  0  1.58743  0  0  2.11812  0  2.052174  0  0  2.21838  0  1.902786  0  2.262035  0  1.481442  2.085799  0  2.084664  0
Pr  Pr13  1  0.33152082  0.01755991  0.89911325  1  0  2.290408  0  1.587419  0  0  2.118065  0  2.052216  0  0  2.218355  0  1.902778  0  2.262049  0  1.481455  2.085747  0  2.084702  0
Pr  Pr14  1  0.16848049  0.51755896  0.39911267  1  0  2.290453  0  1.58743  0  0  2.118137  0  2.052179  0  0  2.218401  0  1.902785  0  2.262037  0  1.481456  2.085801  0  2.084696  0
Pr  Pr15  1  0.66847945  0.98243902  0.10088753  1  0  2.290411  0  1.587425  0  0  2.118083  0  2.052199  0  0  2.218359  0  1.902786  0  2.262052  0  1.481452  2.085818  0  2.084597  0
H  H16  1  0.40719708  0.23591451  0.53546112  1  0  0.430037  0  0.864006  0  0  0.404646  0  0.919138  0  0  0.41374  0  0.905913  0  0.637862  0  0.303673  0.398236  0  0.928502  0
H  H17  1  0.90719721  0.26408536  0.96453897  1  0  0.430017  0  0.864033  0  0  0.404623  0  0.91917  0  0  0.413718  0  0.905943  0  0.637864  0  0.303672  0.398214  0  0.928533  0
H  H18  1  0.59280202  0.76408605  0.46453846  1  0  0.430024  0  0.864029  0  0  0.404626  0  0.919174  0  0  0.413723  0  0.905945  0  0.637861  0  0.303673  0.398216  0  0.928537  0
H  H19  1  0.09280189  0.73591357  0.03545991  1  0  0.430026  0  0.864015  0  0  0.404631  0  0.919157  0  0  0.413727  0  0.905927  0  0.637849  0  0.303667  0.398221  0  0.92852  0
H  H20  1  0.48038389  0.31021324  0.60978826  1  0  0.417532  0  0.881389  0  0  0.39039  0  0.940137  0  0  0.400843  0  0.924449  0  0.639466  0  0.296677  0.383018  0  0.951213  0
H  H21  1  0.98038637  0.18978745  0.89021186  1  0  0.417482  0  0.881435  0  0  0.390341  0  0.940185  0  0  0.400795  0  0.924496  0  0.63948  0  0.296655  0.38297  0  0.951259  0
H  H22  1  0.51961404  0.68978651  0.39021128  1  0  0.417528  0  0.881396  0  0  0.390391  0  0.940136  0  0  0.400845  0  0.924447  0  0.639451  0  0.296669  0.383019  0  0.95121  0
H  H23  1  0.01961625  0.81021311  0.10978772  1  0  0.417495  0  0.881401  0  0  0.39035  0  0.940154  0  0  0.400803  0  0.924465  0  0.639491  0  0.296661  0.38298  0  0.951225  0
C  C24  1  0.63336199  0.56130487  0.77614816  1  0  0.56463  0  3.947397  0  0  0.523302  0  4.244206  0  0  0.553859  0  4.237811  0  1.606382  0  0.210289  0.502492  0  4.25121  0
C  C25  1  0.13336889  0.93869720  0.72385729  1  0  0.564659  0  3.947347  0  0  0.523324  0  4.244149  0  0  0.553879  0  4.237756  0  1.606239  0  0.210267  0.502513  0  4.251153  0
C  C26  1  0.36663594  0.43869651  0.22385336  1  0  0.564811  0  3.947211  0  0  0.52344  0  4.244058  0  0  0.553998  0  4.237663  0  1.606243  0  0.210337  0.502629  0  4.251065  0
C  C27  1  0.86663255  0.06130172  0.27614349  1  0  0.56465  0  3.947287  0  0  0.523313  0  4.244098  0  0  0.553869  0  4.237703  0  1.606358  0  0.210301  0.502503  0  4.251103  0
C  C28  1  0.54807655  0.45560082  0.74336429  1  0  0.57153  0  3.918171  0  0  0.527339  0  4.213891  0  0  0.557744  0  4.207474  0  1.579907  0  0.208949  0.506554  0  4.220839  0
C  C29  1  0.04808346  0.04440069  0.75664221  1  0  0.571197  0  3.91854  0  0  0.527049  0  4.214185  0  0  0.557456  0  4.207773  0  1.579926  0  0.208747  0.506263  0  4.221132  0
C  C30  1  0.45192255  0.54439892  0.25663652  1  0  0.57134  0  3.918434  0  0  0.52721  0  4.214077  0  0  0.557611  0  4.207667  0  1.579893  0  0.208892  0.506426  0  4.221024  0
C  C31  1  0.95191799  0.95559905  0.24335924  1  0  0.571311  0  3.918365  0  0  0.527156  0  4.214036  0  0  0.557565  0  4.20762  0  1.579837  0  0.208811  0.50637  0  4.220985  0
C  C32  1  0.46367962  0.28295809  0.95465903  1  0  0.58195  0  3.89256  0  0  0.54088  0  4.187862  0  0  0.571334  0  4.182246  0  1.591556  0  0.241698  0.52021  0  4.195106  0
C  C33  1  0.96367741  0.21704096  0.54534356  1  0  0.581995  0  3.892517  0  0  0.54088  0  4.187896  0  0  0.571331  0  4.182283  0  1.59164  0  0.241727  0.520228  0  4.195113  0
C  C34  1  0.53631948  0.71704083  0.04534112  1  0  0.582058  0  3.892333  0  0  0.540979  0  4.187664  0  0  0.571432  0  4.182047  0  1.591562  0  0.241764  0.520311  0  4.194907  0
C  C35  1  0.03632169  0.78295797  0.45465785  1  0  0.581912  0  3.892653  0  0  0.540829  0  4.187977  0  0  0.571281  0  4.182362  0  1.591627  0  0.241682  0.520172  0  4.195199  0
C  C36  1  0.56810478  0.20773546  0.00701680  1  0  0.589849  0  3.890647  0  0  0.54552  0  4.18435  0  0  0.57569  0  4.181511  0  1.616277  0  0.2417  0.524575  0  4.191696  0
C  C37  1  0.06810346  0.29226441  0.49298392  1  0  0.589998  0  3.890524  0  0  0.545666  0  4.184259  0  0  0.57584  0  4.181416  0  1.616173  0  0.241738  0.524713  0  4.191605  0
C  C38  1  0.43189433  0.79226346  0.99298334  1  0  0.589973  0  3.890534  0  0  0.545613  0  4.18429  0  0  0.575785  0  4.181448  0  1.61618  0  0.241761  0.524667  0  4.191636  0
C  C39  1  0.93189681  0.70773452  0.50701622  1  0  0.589938  0  3.890702  0  0  0.545614  0  4.184399  0  0  0.575789  0  4.181554  0  1.616277  0  0.241734  0.52467  0  4.191735  0
C  C40  1  0.03800479  0.44954868  0.01960295  1  0  0.570458  0  3.928288  0  0  0.52695  0  4.224726  0  0  0.556443  0  4.22043  0  1.557325  0  0.214169  0.506521  0  4.231113  0
C  C41  1  0.53800963  0.05045119  0.48039587  1  0  0.570592  0  3.928052  0  0  0.527023  0  4.224566  0  0  0.556516  0  4.220272  0  1.582322  0  0.214272  0.506596  0  4.230953  0
C  C42  1  0.96198961  0.55045106  0.98039532  1  0  0.570557  0  3.928119  0  0  0.526975  0  4.224654  0  0  0.556468  0  4.220358  0  1.582136  0  0.214254  0.506548  0  4.231041  0
C  C43  1  0.46199652  0.94954855  0.51960368  1  0  0.570394  0  3.928355  0  0  0.526858  0  4.224834  0  0  0.556351  0  4.220541  0  1.557294  0  0.214127  0.506431  0  4.23122  0
C  C44  1  0.05992269  0.45793274  0.76788046  1  0  0.553442  0  3.950136  0  0  0.511138  0  4.24929  0  0  0.541431  0  4.243153  0  1.581193  0  0.189006  0.490402  0  4.256304  0
C  C45  1  0.55992048  0.04206796  0.73212094  1  0  0.553399  0  3.949892  0  0  0.511068  0  4.24909  0  0  0.541363  0  4.242954  0  1.581127  0  0.189003  0.490305  0  4.25614  0
C  C46  1  0.94007876  0.54207029  0.23211860  1  0  0.553329  0  3.950143  0  0  0.511023  0  4.249324  0  0  0.541317  0  4.243187  0  1.581023  0  0.188994  0.490286  0  4.256341  0
C  C47  1  0.44007979  0.95793097  0.26787857  1  0  0.553384  0  3.949862  0  0  0.511015  0  4.249113  0  0  0.54131  0  4.242981  0  1.581192  0  0.188977  0.490257  0  4.256157  0
C  C48  1  0.11767519  0.56651598  0.73155932  1  0  0.555871  0  3.950423  0  0  0.514896  0  4.248354  0  0  0.544826  0  4.243238  0  1.6045  0  0.211059  0.494452  0  4.254641  0
C  C49  1  0.61767181  0.93348609  0.76844232  1  0  0.555938  0  3.950603  0  0  0.514923  0  4.248615  0  0  0.544854  0  4.243503  0  1.604571  0  0.211079  0.494486  0  4.254905  0
C  C50  1  0.88232508  0.43348458  0.26844026  1  0  0.55594  0  3.950467  0  0  0.514924  0  4.248468  0  0  0.544855  0  4.243354  0  1.604573  0  0.211041  0.494481  0  4.254756  0
C  C51  1  0.38232847  0.06651283  0.23155782  1  0  0.555876  0  3.95066  0  0  0.51491  0  4.248604  0  0  0.544835  0  4.243505  0  1.604543  0  0.211089  0.494471  0  4.254897  0
C  C52  1  0.52484879  0.45018787  0.47081080  1  0  0.569653  0  3.94145  0  0  0.528379  0  4.237107  0  0  0.558514  0  4.231295  0  1.605128  0  0.205276  0.507698  0  4.244063  0
C  C53  1  0.02484866  0.04981201  0.02918992  1  0  0.569708  0  3.94131  0  0  0.528433  0  4.23696  0  0  0.558569  0  4.23115  0  1.605136  0  0.205306  0.507753  0  4.243919  0
C  C54  1  0.47515148  0.54981188  0.52918938  1  0  0.569643  0  3.941378  0  0  0.528365  0  4.237041  0  0  0.5585  0  4.231229  0  1.576908  0  0.205266  0.507684  0  4.243997  0
C  C55  1  0.97515162  0.95018774  0.97081089  1  0  0.569638  0  3.941429  0  0  0.528362  0  4.237089  0  0  0.558497  0  4.231279  0  1.576905  0  0.20527  0.507681  0  4.244048  0
O  O56  1  0.42487435  0.42978897  0.78168537  1  0  -0.69081  0  2.125638  0  0  -0.640177  0  2.373129  0  0  -0.669489  0  2.363984  0  -1.195291  0  -0.433009  -0.623789  0  2.377933  0
O  O57  1  0.92487214  0.07021337  0.71831546  1  0  -0.690612  0  2.125502  0  0  -0.639987  0  2.372957  0  0  -0.669311  0  2.363819  0  -1.195206  0  -0.43288  -0.623599  0  2.377755  0
O  O58  1  0.57512357  0.57021078  0.21831480  1  0  -0.690723  0  2.125726  0  0  -0.640107  0  2.373177  0  0  -0.669419  0  2.364034  0  -1.19525  0  -0.432972  -0.623725  0  2.377978  0
O  O59  1  0.07513048  0.92978638  0.28168599  1  0  -0.69074  0  2.12548  0  0  -0.640108  0  2.372935  0  0  -0.669434  0  2.363794  0  -1.195147  0  -0.432954  -0.623718  0  2.377733  0
O  O60  1  0.57315995  0.61349884  0.83954264  1  0  -0.670842  0  2.03666  0  0  -0.627012  0  2.281418  0  0  -0.655636  0  2.269818  0  -1.181684  0  -0.390319  -0.611513  0  2.287443  0
O  O61  1  0.07315630  0.88649995  0.66045823  1  0  -0.670828  0  2.036275  0  0  -0.627014  0  2.281081  0  0  -0.655644  0  2.26948  0  -1.181525  0  -0.390316  -0.611516  0  2.287106  0
O  O62  1  0.42683915  0.38650008  0.16045687  1  0  -0.6709  0  2.036553  0  0  -0.62707  0  2.281365  0  0  -0.655696  0  2.269759  0  -1.181653  0  -0.390352  -0.611576  0  2.28739  0
O  O63  1  0.92684398  0.11350143  0.33954202  1  0  -0.670881  0  2.036282  0  0  -0.627054  0  2.281066  0  0  -0.655689  0  2.269467  0  -1.181553  0  -0.390353  -0.611555  0  2.287092  0
O  O64  1  0.61092883  0.39880375  0.68221356  1  0  -0.720554  0  2.141684  0  0  -0.662186  0  2.384459  0  0  -0.692258  0  2.373031  0  -1.201698  0  -0.442064  -0.645223  0  2.390834  0
O  O65  1  0.11092869  0.10119531  0.81778523  1  0  -0.720461  0  2.142071  0  0  -0.662093  0  2.384799  0  0  -0.692166  0  2.373369  0  -1.201858  0  -0.442012  -0.645132  0  2.391171  0
O  O66  1  0.38907027  0.60119600  0.31778726  1  0  -0.720526  0  2.141863  0  0  -0.662166  0  2.384581  0  0  -0.692237  0  2.373156  0  -1.201725  0  -0.442052  -0.645202  0  2.390956  0
O  O67  1  0.88907158  0.89880280  0.18221425  1  0  -0.72044  0  2.141947  0  0  -0.662085  0  2.384705  0  0  -0.692156  0  2.373274  0  -1.201833  0  -0.442013  -0.645129  0  2.391075  0
O  O68  1  0.75856537  0.58573662  0.73837416  1  0  -0.68011  0  2.068236  0  0  -0.631836  0  2.308965  0  0  -0.661157  0  2.298128  0  -1.179548  0  -0.413749  -0.615388  0  2.314571  0
O  O69  1  0.25856288  0.91426382  0.76162742  1  0  -0.680068  0  2.068544  0  0  -0.6318  0  2.309297  0  0  -0.661119  0  2.298459  0  -1.179509  0  -0.413713  -0.615353  0  2.314904  0
O  O70  1  0.24143256  0.41426313  0.26162729  1  0  -0.680198  0  2.068213  0  0  -0.631921  0  2.308983  0  0  -0.661241  0  2.298143  0  -1.17945  0  -0.413774  -0.615471  0  2.314591  0
O  O71  1  0.74143739  0.08573511  0.23837336  1  0  -0.680044  0  2.068473  0  0  -0.631767  0  2.309211  0  0  -0.661086  0  2.298375  0  -1.17957  0  -0.413712  -0.615327  0  2.314815  0
O  O72  1  0.49665154  0.38594295  0.96210373  1  0  -0.760709  0  2.056552  0  0  -0.704377  0  2.310276  0  0  -0.741404  0  2.297361  0  -1.211331  0  -0.38493  -0.687805  0  2.317601  0
O  O73  1  0.99665167  0.11405857  0.53789770  1  0  -0.760722  0  2.05653  0  0  -0.704365  0  2.310285  0  0  -0.741404  0  2.297369  0  -1.211409  0  -0.384921  -0.687798  0  2.317602  0
O  O74  1  0.50334756  0.61405680  0.03789645  1  0  -0.760724  0  2.056514  0  0  -0.704399  0  2.310268  0  0  -0.741427  0  2.297352  0  -1.211375  0  -0.384939  -0.687827  0  2.317591  0
O  O75  1  0.00335095  0.88594200  0.46210315  1  0  -0.760664  0  2.056579  0  0  -0.704326  0  2.310326  0  0  -0.741364  0  2.29741  0  -1.211399  0  -0.384906  -0.687758  0  2.317645  0
O  O76  1  0.18568006  0.44375583  0.01999771  1  0  -0.647226  0  2.02088  0  0  -0.603313  0  2.263423  0  0  -0.63153  0  2.253732  0  -1.150363  0  -0.363362  -0.588124  0  2.268948  0
O  O77  1  0.68568724  0.05624405  0.47999985  1  0  -0.647232  0  2.020716  0  0  -0.603291  0  2.263289  0  0  -0.631513  0  2.253596  0  -1.150454  0  -0.363376  -0.588106  0  2.268813  0
O  O78  1  0.81431317  0.55624392  0.97999994  1  0  -0.647215  0  2.02073  0  0  -0.60328  0  2.263312  0  0  -0.631499  0  2.25362  0  -1.150468  0  -0.363373  -0.588098  0  2.268835  0
O  O79  1  0.31431890  0.94375652  0.51999846  1  0  -0.647193  0  2.020827  0  0  -0.603262  0  2.263383  0  0  -0.631485  0  2.25369  0  -1.150319  0  -0.363369  -0.588075  0  2.268908  0
O  O80  1  0.11431016  0.43161872  0.83827927  1  0  -0.663865  0  2.094489  0  0  -0.617258  0  2.342291  0  0  -0.645067  0  2.330495  0  -1.18773  0  -0.396926  -0.601868  0  2.348689  0
O  O81  1  0.61431734  0.06838361  0.66171649  1  0  -0.663788  0  2.094147  0  0  -0.617148  0  2.34193  0  0  -0.644965  0  2.330135  0  -1.187741  0  -0.396891  -0.601751  0  2.348338  0
O  O82  1  0.88568894  0.56838266  0.16171845  1  0  -0.66377  0  2.094459  0  0  -0.617143  0  2.34223  0  0  -0.644962  0  2.330456  0  -1.187781  0  -0.396864  -0.601755  0  2.348626  0
O  O83  1  0.38568411  0.93161531  0.33828429  1  0  -0.663802  0  2.094159  0  0  -0.617151  0  2.341959  0  0  -0.644972  0  2.330171  0  -1.187761  0  -0.396885  -0.601753  0  2.348364  0
O  O84  1  0.21665080  0.62230875  0.77602943  1  0  -0.681526  0  2.024618  0  0  -0.634731  0  2.264502  0  0  -0.66385  0  2.2532  0  -1.191056  0  -0.403729  -0.618743  0  2.270156  0
O  O85  1  0.71665329  0.87768923  0.72396696  1  0  -0.681661  0  2.024414  0  0  -0.634834  0  2.264317  0  0  -0.663964  0  2.253011  0  -1.191046  0  -0.403781  -0.618847  0  2.269968  0
O  O86  1  0.78335065  0.37769346  0.22397085  1  0  -0.681589  0  2.024647  0  0  -0.634769  0  2.264543  0  0  -0.66389  0  2.25324  0  -1.191056  0  -0.403756  -0.618787  0  2.270195  0
O  O87  1  0.28334581  0.12230887  0.27603251  1  0  -0.681605  0  2.024412  0  0  -0.634798  0  2.264299  0  0  -0.663928  0  2.252997  0  -1.191041  0  -0.403785  -0.618811  0  2.269952  0
O  O88  1  0.96803540  0.39815226  0.72163208  1  0  -0.745606  0  2.133115  0  0  -0.696962  0  2.385778  0  0  -0.726678  0  2.375581  0  -1.203613  0  -0.465702  -0.680269  0  2.391159  0
O  O89  1  0.46803996  0.10185008  0.77836495  1  0  -0.74563  0  2.133193  0  0  -0.696961  0  2.38586  0  0  -0.726678  0  2.375656  0  -1.20362  0  -0.465747  -0.680258  0  2.391248  0
O  O90  1  0.03196487  0.60184913  0.27836563  1  0  -0.745591  0  2.133234  0  0  -0.696944  0  2.385899  0  0  -0.726658  0  2.3757  0  -1.203468  0  -0.465736  -0.68025  0  2.391285  0
O  O91  1  0.53195914  0.89814803  0.22163516  1  0  -0.745588  0  2.13318  0  0  -0.696919  0  2.385873  0  0  -0.726633  0  2.375673  0  -1.203653  0  -0.465729  -0.680225  0  2.391259  0
O  O92  1  0.06555651  0.58960454  0.65983792  1  0  -0.64721  0  2.033285  0  0  -0.604419  0  2.277427  0  0  -0.632121  0  2.267069  0  -1.175  0  -0.362823  -0.589179  0  2.283119  0
O  O93  1  0.56555665  0.91039836  0.84015615  1  0  -0.647159  0  2.033762  0  0  -0.604353  0  2.277941  0  0  -0.632056  0  2.267583  0  -1.175004  0  -0.362811  -0.589115  0  2.283632  0
O  O94  1  0.93444259  0.41039849  0.34015986  1  0  -0.647219  0  2.033386  0  0  -0.604421  0  2.277563  0  0  -0.632123  0  2.267205  0  -1.175025  0  -0.362829  -0.589182  0  2.283261  0
O  O95  1  0.43444480  0.08959974  0.15984332  1  0  -0.647158  0  2.033793  0  0  -0.604364  0  2.277948  0  0  -0.632064  0  2.267593  0  -1.175013  0  -0.362827  -0.589133  0  2.28364  0
O  O96  1  0.35708896  0.23793873  0.91044132  1  0  -0.617228  0  2.013361  0  0  -0.578885  0  2.258266  0  0  -0.604393  0  2.248061  0  -1.165502  0  -0.332639  -0.565054  0  2.26496  0
O  O97  1  0.85709028  0.26205950  0.58955870  1  0  -0.617258  0  2.013477  0  0  -0.578899  0  2.258404  0  0  -0.604396  0  2.248184  0  -1.165563  0  -0.332651  -0.565075  0  2.265089  0
O  O98  1  0.64291014  0.76206019  0.08955882  1  0  -0.617327  0  2.013262  0  0  -0.578974  0  2.258153  0  0  -0.604473  0  2.247935  0  -1.165492  0  -0.332693  -0.565149  0  2.264847  0
O  O99  1  0.14291000  0.73793942  0.41044081  1  0  -0.617246  0  2.013477  0  0  -0.578891  0  2.258358  0  0  -0.604394  0  2.248153  0  -1.165539  0  -0.332641  -0.565063  0  2.265047  0
O  O100  1  0.65652050  0.25062066  0.06305484  1  0  -0.613501  0  2.036731  0  0  -0.56711  0  2.281912  0  0  -0.596117  0  2.272551  0  -1.16307  0  -0.328341  -0.55296  0  2.289037  0
O  O101  1  0.15652036  0.24937757  0.43694581  1  0  -0.613595  0  2.036668  0  0  -0.567198  0  2.281863  0  0  -0.596214  0  2.272499  0  -1.16294  0  -0.328388  -0.553041  0  2.288989  0
O  O102  1  0.34347860  0.74937827  0.93694467  1  0  -0.613567  0  2.036681  0  0  -0.567157  0  2.281867  0  0  -0.596162  0  2.272506  0  -1.162989  0  -0.328388  -0.552999  0  2.288991  0
O  O103  1  0.84347991  0.75062135  0.56305496  1  0  -0.613561  0  2.036748  0  0  -0.567171  0  2.281939  0  0  -0.596186  0  2.272577  0  -1.16304  0  -0.328357  -0.553018  0  2.289061  0
O  O104  1  0.55423267  0.10434938  0.99008344  1  0  -0.755116  0  2.115485  0  0  -0.698655  0  2.378521  0  0  -0.735159  0  2.366305  0  -1.211337  0  -0.404206  -0.682173  0  2.386013  0
O  O105  1  0.05423136  0.39564968  0.50991725  1  0  -0.755234  0  2.115601  0  0  -0.698736  0  2.378561  0  0  -0.735236  0  2.366342  0  -1.211285  0  -0.404239  -0.682243  0  2.386053  0
O  O106  1  0.44576760  0.89565037  0.00991674  1  0  -0.755205  0  2.115527  0  0  -0.698729  0  2.378573  0  0  -0.735236  0  2.366357  0  -1.21129  0  -0.404237  -0.682247  0  2.386064  0
O  O107  1  0.94576891  0.60435007  0.49008293  1  0  -0.755175  0  2.115609  0  0  -0.698702  0  2.378599  0  0  -0.735202  0  2.366381  0  -1.211334  0  -0.404245  -0.682204  0  2.38607  0
O  O108  1  0.94471140  0.37921470  0.04901810  1  0  -0.716601  0  2.084139  0  0  -0.660339  0  2.320155  0  0  -0.690179  0  2.309942  0  -1.202032  0  -0.400929  -0.643743  0  2.326018  0
O  O109  1  0.44471830  0.12078599  0.45098076  1  0  -0.716721  0  2.08409  0  0  -0.660443  0  2.320152  0  0  -0.690285  0  2.309934  0  -1.201957  0  -0.401018  -0.643841  0  2.326012  0
O  O110  1  0.05528184  0.62078587  0.95098022  1  0  -0.716696  0  2.084153  0  0  -0.660422  0  2.320223  0  0  -0.69026  0  2.310006  0  -1.201764  0  -0.400993  -0.643818  0  2.326083  0
O  O111  1  0.55528784  0.87921539  0.54901822  1  0  -0.716559  0  2.084194  0  0  -0.660284  0  2.320228  0  0  -0.690125  0  2.310014  0  -1.202037  0  -0.400903  -0.643685  0  2.32609  0
O  O112  1  0.65999586  0.40988812  0.48352210  1  0  -0.711491  0  2.045372  0  0  -0.662884  0  2.291769  0  0  -0.69245  0  2.279801  0  -1.195945  0  -0.441122  -0.646882  0  2.298075  0
O  O113  1  0.15999572  0.09011093  0.01647922  1  0  -0.711495  0  2.04536  0  0  -0.662881  0  2.291756  0  0  -0.692453  0  2.279788  0  -1.195932  0  -0.441124  -0.646879  0  2.298061  0
O  O114  1  0.34000441  0.59011162  0.51647871  1  0  -0.711462  0  2.04536  0  0  -0.662852  0  2.291749  0  0  -0.692416  0  2.279781  0  -1.195941  0  -0.441104  -0.646846  0  2.298054  0
O  O115  1  0.84000455  0.90988882  0.98352159  1  0  -0.711494  0  2.045367  0  0  -0.662874  0  2.291745  0  0  -0.692443  0  2.279776  0  -1.195938  0  -0.441125  -0.646879  0  2.298048  0
O  O116  1  0.42871474  0.41568837  0.41449113  1  0  -0.674807  0  2.055602  0  0  -0.628129  0  2.296721  0  0  -0.656767  0  2.286326  0  -1.18437  0  -0.388327  -0.612125  0  2.302258  0
O  O117  1  0.92871488  0.08431069  0.08551082  1  0  -0.674848  0  2.055522  0  0  -0.628166  0  2.296645  0  0  -0.656808  0  2.286251  0  -1.184396  0  -0.388326  -0.61217  0  2.302181  0
O  O118  1  0.57128554  0.58431220  0.58550971  1  0  -0.67482  0  2.055536  0  0  -0.628142  0  2.296662  0  0  -0.656779  0  2.286267  0  -1.18439  0  -0.388339  -0.612139  0  2.3022  0
O  O119  1  0.07128422  0.91568906  0.91449126  1  0  -0.674799  0  2.05565  0  0  -0.628109  0  2.296757  0  0  -0.656752  0  2.286364  0  -1.184362  0  -0.388313  -0.612105  0  2.302291  0
O  O120  1  0.38068879  0.28148034  0.58660783  1  0  -0.870407  0  1.753304  0  0  -0.831187  0  1.90706  0  0  -0.848029  0  1.877829  0  -1.297202  0  -0.681413  -0.818895  0  1.927253  0
O  O121  1  0.88068893  0.21852117  0.91339170  1  0  -0.870346  0  1.753356  0  0  -0.831119  0  1.907109  0  0  -0.847962  0  1.877876  0  -1.297187  0  -0.681392  -0.818827  0  1.9273  0
O  O122  1  0.61931031  0.71852269  0.41338932  1  0  -0.870392  0  1.753324  0  0  -0.831175  0  1.907075  0  0  -0.848017  0  1.877841  0  -1.297173  0  -0.681407  -0.818883  0  1.927266  0
O  O123  1  0.11931252  0.78148021  0.08660792  1  0  -0.870361  0  1.753317  0  0  -0.83113  0  1.907092  0  0  -0.847973  0  1.877859  0  -1.297179  0  -0.681388  -0.81884  0  1.927281  0
