# generated using pymatgen
data_CuH6C6S4I(NO)2
_symmetry_space_group_name_H-M   'P 1'
_cell_length_a   4.16015211
_cell_length_b   16.82696346
_cell_length_c   17.37568188
_cell_angle_alpha   90.00075331
_cell_angle_beta   90.00000316
_cell_angle_gamma   95.29137489
_symmetry_Int_Tables_number   1
_chemical_formula_structural   CuH6C6S4I(NO)2
_chemical_formula_sum   'Cu4 H24 C24 S16 I4 N8 O8'
_cell_volume   1211.16178242
_cell_formula_units_Z   4
loop_
 _symmetry_equiv_pos_site_id
 _symmetry_equiv_pos_as_xyz
  1  'x, y, z'
loop_
 _atom_site_type_symbol
 _atom_site_label
 _atom_site_symmetry_multiplicity
 _atom_site_fract_x
 _atom_site_fract_y
 _atom_site_fract_z
 _atom_site_occupancy
 _atom_site_hle17_bader_spin_density
 _atom_site_hle17_ddec_charge
 _atom_site_hle17_ddec_spin_density
 _atom_site_hle17_ddec_sum_bond_order
 _atom_site_hle17_magmom
 _atom_site_hse06_10hf_bader_spin_density
 _atom_site_hse06_10hf_ddec_charge
 _atom_site_hse06_10hf_ddec_spin_density
 _atom_site_hse06_10hf_ddec_sum_bond_order
 _atom_site_hse06_10hf_magmom
 _atom_site_hse06_bader_spin_density
 _atom_site_hse06_ddec_charge
 _atom_site_hse06_ddec_spin_density
 _atom_site_hse06_ddec_sum_bond_order
 _atom_site_hse06_magmom
 _atom_site_pbe_bader_spin_density
 _atom_site_pbe_cm5_charge
 _atom_site_pbe_ddec_charge
 _atom_site_pbe_ddec_spin_density
 _atom_site_pbe_ddec_sum_bond_order
 _atom_site_pbe_magmom
Cu  Cu0  1  0.13402514  0.87835326  0.91699061  1  0  0.270164  0  2.216308  0  0  0.204837  0  2.702882  0  0  0.210953  0  2.657039  0  0  0.243612  0.202775  0  2.733263  0
Cu  Cu1  1  0.86598808  0.62164799  0.41699536  1  0  0.270184  0  2.216342  0  0  0.204894  0  2.702934  0  0  0.211022  0  2.657086  0  0  0.243612  0.202808  0  2.733206  0
Cu  Cu2  1  0.86598528  0.12164520  0.08300874  1  0  0.270273  0  2.216218  0  0  0.204962  0  2.702786  0  0  0.211093  0  2.656941  0  0  0.243645  0.202905  0  2.73315  0
Cu  Cu3  1  0.13402211  0.37834988  0.58300514  1  0  0.270136  0  2.216331  0  0  0.20482  0  2.702938  0  0  0.210946  0  2.657085  0  0  0.243597  0.202736  0  2.733289  0
H  H4  1  0.71383115  0.73181350  0.94019050  1  0  0.2949  0  0.927507  0  0  0.275372  0  0.998694  0  0  0.284816  0  0.990795  0  0  0.280807  0.268764  0  1.004186  0
H  H5  1  0.28618700  0.76818806  0.44020229  1  0  0.294735  0  0.927578  0  0  0.275196  0  0.998837  0  0  0.284635  0  0.990944  0  0  0.280721  0.268592  0  1.004317  0
H  H6  1  0.28617352  0.26818856  0.05980368  1  0  0.29482  0  0.927598  0  0  0.27528  0  0.998794  0  0  0.284719  0  0.990902  0  0  0.280757  0.268676  0  1.004279  0
H  H7  1  0.71381887  0.23181101  0.55980339  1  0  0.294801  0  0.927597  0  0  0.275293  0  0.998803  0  0  0.284731  0  0.990903  0  0  0.280773  0.268688  0  1.004287  0
H  H8  1  0.89982627  0.95458971  0.78955898  1  0  0.294735  0  0.931909  0  0  0.273281  0  1.006696  0  0  0.28304  0  0.998532  0  0  0.2768  0.266403  0  1.012476  0
H  H9  1  0.10019708  0.54541275  0.28955412  1  0  0.294712  0  0.931979  0  0  0.273275  0  1.006769  0  0  0.283034  0  0.998604  0  0  0.276763  0.266393  0  1.012549  0
H  H10  1  0.10020915  0.04541109  0.21044728  1  0  0.294711  0  0.932007  0  0  0.273273  0  1.006779  0  0  0.283032  0  0.998613  0  0  0.276751  0.266391  0  1.012564  0
H  H11  1  0.89982152  0.45458808  0.71043717  1  0  0.294755  0  0.931958  0  0  0.273294  0  1.006767  0  0  0.283054  0  0.998599  0  0  0.276789  0.26641  0  1.012555  0
H  H12  1  0.56104910  0.57063343  0.11821137  1  0  0.154347  0  0.964169  0  0  0.160367  0  1.032939  0  0  0.164317  0  1.029847  0  0  0.108725  0.157504  0  1.035193  0
H  H13  1  0.43890080  0.92937161  0.61821187  1  0  0.154328  0  0.964224  0  0  0.160354  0  1.033005  0  0  0.164302  0  1.029909  0  0  0.108754  0.157498  0  1.035261  0
H  H14  1  0.43891210  0.42936811  0.88178683  1  0  0.154392  0  0.964164  0  0  0.160441  0  1.032915  0  0  0.164391  0  1.029824  0  0  0.108789  0.157586  0  1.03517  0
H  H15  1  0.56107840  0.07062692  0.38179266  1  0  0.154326  0  0.964232  0  0  0.160351  0  1.033021  0  0  0.164301  0  1.029924  0  0  0.108746  0.157492  0  1.035277  0
H  H16  1  0.89422815  0.54392633  0.06284934  1  0  0.168034  0  0.912091  0  0  0.177457  0  0.972566  0  0  0.180706  0  0.970585  0  0  0.121182  0.17506  0  0.974144  0
H  H17  1  0.10574906  0.95607491  0.56284961  1  0  0.167993  0  0.912365  0  0  0.177519  0  0.972724  0  0  0.180769  0  0.970737  0  0  0.121195  0.175121  0  0.974298  0
H  H18  1  0.10575658  0.45607398  0.93714771  1  0  0.168048  0  0.912286  0  0  0.177517  0  0.97273  0  0  0.180767  0  0.970748  0  0  0.121196  0.175121  0  0.974312  0
H  H19  1  0.89424720  0.04392417  0.43715493  1  0  0.168003  0  0.912398  0  0  0.177533  0  0.972729  0  0  0.180785  0  0.970742  0  0  0.121222  0.175137  0  0.974303  0
H  H20  1  0.98510745  0.17912841  0.70120701  1  0  0.133754  0  0.958516  0  0  0.141902  0  1.028354  0  0  0.145142  0  1.027112  0  0  0.092702  0.139385  0  1.029559  0
H  H21  1  0.01488379  0.32087429  0.20120796  1  0  0.1338  0  0.958474  0  0  0.141975  0  1.028317  0  0  0.145213  0  1.027077  0  0  0.092749  0.139462  0  1.029525  0
H  H22  1  0.01488473  0.82087248  0.29879752  1  0  0.133823  0  0.95845  0  0  0.141972  0  1.028272  0  0  0.145211  0  1.02703  0  0  0.092738  0.139458  0  1.029478  0
H  H23  1  0.98509926  0.67912781  0.79878737  1  0  0.133727  0  0.958564  0  0  0.14187  0  1.028462  0  0  0.145108  0  1.027221  0  0  0.092684  0.139359  0  1.029667  0
H  H24  1  0.30979251  0.13181968  0.65899023  1  0  0.156589  0  0.93654  0  0  0.163344  0  1.003222  0  0  0.167496  0  1.000412  0  0  0.109281  0.160263  0  1.005343  0
H  H25  1  0.69022563  0.36817821  0.15899409  1  0  0.156727  0  0.936457  0  0  0.163441  0  1.003186  0  0  0.167593  0  1.000377  0  0  0.109329  0.160365  0  1.005311  0
H  H26  1  0.69022296  0.86817937  0.34100970  1  0  0.156631  0  0.936527  0  0  0.163323  0  1.003258  0  0  0.167476  0  1.000449  0  0  0.109302  0.160248  0  1.00538  0
H  H27  1  0.30976006  0.63181851  0.84100526  1  0  0.156746  0  0.936461  0  0  0.163449  0  1.003209  0  0  0.167609  0  1.000398  0  0  0.109353  0.160373  0  1.005335  0
C  C28  1  0.98022151  0.73521026  0.04134349  1  0  0.222871  0  3.817343  0  0  0.201476  0  4.125463  0  0  0.224332  0  4.137372  0  0  0.12493  0.186371  0  4.116604  0
C  C29  1  0.01978273  0.76479242  0.54134707  1  0  0.222865  0  3.817258  0  0  0.201565  0  4.125331  0  0  0.224426  0  4.13722  0  0  0.125027  0.18647  0  4.11644  0
C  C30  1  0.01975793  0.26478886  0.95865298  1  0  0.222906  0  3.81719  0  0  0.20151  0  4.125277  0  0  0.224364  0  4.137192  0  0  0.12503  0.186416  0  4.116403  0
C  C31  1  0.98020344  0.23520549  0.45865803  1  0  0.222689  0  3.817347  0  0  0.201354  0  4.125477  0  0  0.224209  0  4.137378  0  0  0.124913  0.186263  0  4.116597  0
C  C32  1  0.75201073  0.59350075  0.07839898  1  0  -0.325545  0  3.598398  0  0  -0.36254  0  3.854469  0  0  -0.36771  0  3.859119  0  0  -0.146829  -0.358818  0  3.851324  0
C  C33  1  0.24796009  0.90650250  0.57839861  1  0  -0.325491  0  3.598812  0  0  -0.362704  0  3.854866  0  0  -0.36791  0  3.859613  0  0  -0.146929  -0.358989  0  3.85172  0
C  C34  1  0.24795719  0.40649958  0.92159750  1  0  -0.325517  0  3.598599  0  0  -0.362742  0  3.854896  0  0  -0.367871  0  3.859452  0  0  -0.146883  -0.359032  0  3.851755  0
C  C35  1  0.75204098  0.09349657  0.42160132  1  0  -0.325565  0  3.598931  0  0  -0.362776  0  3.855043  0  0  -0.367974  0  3.859765  0  0  -0.14694  -0.35906  0  3.851895  0
C  C36  1  0.61142544  0.62635313  0.00606073  1  0  0.629247  0  3.734264  0  0  0.584234  0  4.029104  0  0  0.613913  0  4.026708  0  0  0.255253  0.563988  0  4.030448  0
C  C37  1  0.38859663  0.87365202  0.50606800  1  0  0.628929  0  3.735169  0  0  0.584336  0  4.029479  0  0  0.614013  0  4.027062  0  0  0.255233  0.564088  0  4.030826  0
C  C38  1  0.38855594  0.37365077  0.99393690  1  0  0.628982  0  3.734835  0  0  0.58416  0  4.02942  0  0  0.613828  0  4.027042  0  0  0.255108  0.563919  0  4.030757  0
C  C39  1  0.61142004  0.12634404  0.49393595  1  0  0.629101  0  3.734711  0  0  0.584431  0  4.029154  0  0  0.61411  0  4.026733  0  0  0.255285  0.564185  0  4.03049  0
C  C40  1  0.21261925  0.04860616  0.83121891  1  0  0.223532  0  3.783285  0  0  0.20238  0  4.088887  0  0  0.224988  0  4.101446  0  0  0.124507  0.187526  0  4.079506  0
C  C41  1  0.78738684  0.45139173  0.33121693  1  0  0.223495  0  3.78316  0  0  0.202327  0  4.088863  0  0  0.224934  0  4.101424  0  0  0.124519  0.187468  0  4.079472  0
C  C42  1  0.78738805  0.95139052  0.16878332  1  0  0.22348  0  3.783266  0  0  0.202332  0  4.088918  0  0  0.224942  0  4.101478  0  0  0.124498  0.187475  0  4.079539  0
C  C43  1  0.21260604  0.54860497  0.66878242  1  0  0.223543  0  3.783391  0  0  0.202336  0  4.089093  0  0  0.224943  0  4.101651  0  0  0.124497  0.187482  0  4.079709  0
C  C44  1  0.14452236  0.13100329  0.70853015  1  0  -0.320342  0  3.624212  0  0  -0.354128  0  3.875073  0  0  -0.359761  0  3.879636  0  0  -0.153805  -0.350103  0  3.87214  0
C  C45  1  0.85549318  0.36900006  0.20853115  1  0  -0.320509  0  3.624313  0  0  -0.354366  0  3.8752  0  0  -0.359981  0  3.879781  0  0  -0.153929  -0.350353  0  3.872298  0
C  C46  1  0.85550538  0.86900230  0.29147496  1  0  -0.320419  0  3.62432  0  0  -0.354203  0  3.875195  0  0  -0.359821  0  3.879775  0  0  -0.15387  -0.350195  0  3.872286  0
C  C47  1  0.14451823  0.63100676  0.79146188  1  0  -0.320443  0  3.624115  0  0  -0.354254  0  3.875047  0  0  -0.359898  0  3.879616  0  0  -0.153839  -0.350242  0  3.872138  0
C  C48  1  0.95047592  0.05076861  0.71086164  1  0  0.625348  0  3.753714  0  0  0.58299  0  4.043843  0  0  0.612781  0  4.041519  0  0  0.251521  0.562649  0  4.045136  0
C  C49  1  0.04954514  0.44923058  0.21086250  1  0  0.625361  0  3.754019  0  0  0.583158  0  4.044025  0  0  0.612883  0  4.041796  0  0  0.251557  0.56282  0  4.04533  0
C  C50  1  0.04954292  0.94923282  0.28914174  1  0  0.62554  0  3.753834  0  0  0.583269  0  4.043869  0  0  0.613001  0  4.041622  0  0  0.25163  0.562934  0  4.045171  0
C  C51  1  0.95045353  0.55077448  0.78912937  1  0  0.625451  0  3.75362  0  0  0.583074  0  4.043843  0  0  0.612865  0  4.041516  0  0  0.251592  0.562739  0  4.045142  0
S  S52  1  0.17927570  0.82513551  0.03399471  1  0  -0.260536  0  2.529809  0  0  -0.25377  0  2.959589  0  0  -0.265974  0  2.949674  0  0  -0.168492  -0.246118  0  2.965775  0
S  S53  1  0.82072873  0.67486169  0.53399773  1  0  -0.260632  0  2.529784  0  0  -0.253899  0  2.959567  0  0  -0.26611  0  2.949653  0  0  -0.168543  -0.246243  0  2.965676  0
S  S54  1  0.82072801  0.17486415  0.96600292  1  0  -0.260596  0  2.529912  0  0  -0.253856  0  2.959722  0  0  -0.266053  0  2.949779  0  0  -0.168537  -0.246223  0  2.965915  0
S  S55  1  0.17927450  0.32513678  0.46600335  1  0  -0.260581  0  2.529672  0  0  -0.253816  0  2.959457  0  0  -0.266015  0  2.949529  0  0  -0.168527  -0.246166  0  2.965627  0
S  S56  1  0.01073765  0.67420505  0.12111321  1  0  0.103673  0  2.40874  0  0  0.098208  0  2.758259  0  0  0.095148  0  2.759347  0  0  0.063953  0.099802  0  2.757642  0
S  S57  1  0.98923677  0.82580118  0.62111527  1  0  0.103665  0  2.408555  0  0  0.09819  0  2.758115  0  0  0.095141  0  2.759215  0  0  0.06395  0.099784  0  2.757477  0
S  S58  1  0.98923003  0.32579469  0.87888500  1  0  0.103683  0  2.408674  0  0  0.098253  0  2.758265  0  0  0.095182  0  2.759346  0  0  0.063937  0.099846  0  2.757645  0
S  S59  1  0.01074532  0.17419853  0.37888638  1  0  0.103792  0  2.408625  0  0  0.098328  0  2.758219  0  0  0.095286  0  2.759313  0  0  0.063994  0.099918  0  2.757594  0
S  S60  1  0.29533924  0.00990667  0.91598944  1  0  -0.210088  0  2.449775  0  0  -0.191705  0  2.865476  0  0  -0.201134  0  2.85034  0  0  -0.149331  -0.186359  0  2.875616  0
S  S61  1  0.70468750  0.49009472  0.41598737  1  0  -0.21003  0  2.44981  0  0  -0.191644  0  2.865534  0  0  -0.201068  0  2.850403  0  0  -0.149309  -0.186287  0  2.875623  0
S  S62  1  0.70468273  0.99009654  0.08401452  1  0  -0.210013  0  2.449883  0  0  -0.191631  0  2.865603  0  0  -0.20106  0  2.850475  0  0  -0.149318  -0.186293  0  2.875757  0
S  S63  1  0.29535585  0.50990785  0.58401658  1  0  -0.210032  0  2.449872  0  0  -0.191627  0  2.865591  0  0  -0.201054  0  2.850465  0  0  -0.149286  -0.186269  0  2.875694  0
S  S64  1  0.36132945  0.14316600  0.79889618  1  0  0.095101  0  2.45615  0  0  0.09227  0  2.806702  0  0  0.088306  0  2.811082  0  0  0.059495  0.094558  0  2.803651  0
S  S65  1  0.63868104  0.35683084  0.29889356  1  0  0.095088  0  2.456146  0  0  0.09231  0  2.806717  0  0  0.088349  0  2.811093  0  0  0.059463  0.094599  0  2.803676  0
S  S66  1  0.63868722  0.85683006  0.20111296  1  0  0.095051  0  2.456021  0  0  0.09222  0  2.806596  0  0  0.088261  0  2.810971  0  0  0.059447  0.094511  0  2.803554  0
S  S67  1  0.36132818  0.64316464  0.70110061  1  0  0.095109  0  2.456325  0  0  0.092356  0  2.806874  0  0  0.088398  0  2.811256  0  0  0.059502  0.09464  0  2.803832  0
I  I68  1  0.62653909  0.82367910  0.83059480  1  0  -0.44175  0  1.512768  0  0  -0.395858  0  1.927362  0  0  -0.413435  0  1.892825  0  0  -0.191312  -0.383165  0  1.952113  0
I  I69  1  0.37345973  0.67632219  0.33059910  1  0  -0.441755  0  1.512666  0  0  -0.395852  0  1.927256  0  0  -0.413437  0  1.892724  0  0  -0.191341  -0.38316  0  1.951952  0
I  I70  1  0.37346006  0.17632118  0.16940225  1  0  -0.441802  0  1.512735  0  0  -0.395916  0  1.927317  0  0  -0.4135  0  1.892781  0  0  -0.191338  -0.383224  0  1.952064  0
I  I71  1  0.62655933  0.32367386  0.66940140  1  0  -0.441753  0  1.512688  0  0  -0.395873  0  1.927293  0  0  -0.413451  0  1.892758  0  0  -0.191339  -0.383176  0  1.952028  0
N  N72  1  0.77174343  0.70016416  0.98842034  1  0  -0.413945  0  3.379782  0  0  -0.350975  0  3.607666  0  0  -0.374702  0  3.614543  0  0  -0.387412  -0.334981  0  3.602609  0
N  N73  1  0.22824495  0.79983513  0.48842851  1  0  -0.413634  0  3.379652  0  0  -0.350894  0  3.607547  0  0  -0.374623  0  3.614446  0  0  -0.387469  -0.334909  0  3.602469  0
N  N74  1  0.22825404  0.29983791  0.01157671  1  0  -0.413882  0  3.379781  0  0  -0.350887  0  3.607538  0  0  -0.374613  0  3.614417  0  0  -0.387391  -0.334897  0  3.602465  0
N  N75  1  0.77175131  0.20016396  0.51157660  1  0  -0.413592  0  3.379536  0  0  -0.350831  0  3.607451  0  0  -0.374585  0  3.614413  0  0  -0.387429  -0.334847  0  3.602384  0
N  N76  1  0.01440385  0.01047815  0.77756725  1  0  -0.418934  0  3.390512  0  0  -0.357663  0  3.621367  0  0  -0.381553  0  3.627823  0  0  -0.388816  -0.341572  0  3.616643  0
N  N77  1  0.98560894  0.48952437  0.27756460  1  0  -0.418886  0  3.390483  0  0  -0.35772  0  3.621385  0  0  -0.381591  0  3.627868  0  0  -0.388729  -0.341622  0  3.616654  0
N  N78  1  0.98561980  0.98952327  0.22243440  1  0  -0.418947  0  3.390432  0  0  -0.357758  0  3.621338  0  0  -0.381633  0  3.627816  0  0  -0.388732  -0.34166  0  3.616614  0
N  N79  1  0.01439021  0.51047591  0.72243360  1  0  -0.418985  0  3.390537  0  0  -0.357699  0  3.621422  0  0  -0.381588  0  3.627879  0  0  -0.388743  -0.341604  0  3.616697  0
O  O80  1  0.39016312  0.59421101  0.96737992  1  0  -0.487186  0  1.917362  0  0  -0.442736  0  2.12844  0  0  -0.46314  0  2.12403  0  0  -0.259719  -0.428724  0  2.131218  0
O  O81  1  0.60979322  0.90579224  0.46738713  1  0  -0.48687  0  1.918254  0  0  -0.442603  0  2.129146  0  0  -0.462989  0  2.12473  0  0  -0.259541  -0.428594  0  2.13192  0
O  O82  1  0.60980265  0.40578993  0.03261425  1  0  -0.486995  0  1.91771  0  0  -0.442656  0  2.128718  0  0  -0.463065  0  2.124321  0  0  -0.259608  -0.428646  0  2.131491  0
O  O83  1  0.39019392  0.09420806  0.53261970  1  0  -0.487049  0  1.917933  0  0  -0.44277  0  2.128918  0  0  -0.463152  0  2.124498  0  0  -0.25964  -0.428761  0  2.131689  0
O  O84  1  0.76444580  0.02352821  0.66066084  1  0  -0.494015  0  1.924109  0  0  -0.448736  0  2.132271  0  0  -0.468513  0  2.127175  0  0  -0.26705  -0.435193  0  2.135556  0
O  O85  1  0.23557259  0.47647030  0.16065860  1  0  -0.494073  0  1.924217  0  0  -0.44885  0  2.132345  0  0  -0.468606  0  2.127277  0  0  -0.26709  -0.435302  0  2.13563  0
O  O86  1  0.23557062  0.97646725  0.33934541  1  0  -0.494177  0  1.924186  0  0  -0.4489  0  2.132299  0  0  -0.468663  0  2.127242  0  0  -0.26714  -0.435356  0  2.135586  0
O  O87  1  0.76441142  0.52352822  0.83932637  1  0  -0.494129  0  1.923961  0  0  -0.448821  0  2.132123  0  0  -0.46863  0  2.127071  0  0  -0.267208  -0.43528  0  2.135413  0
