# generated using pymatgen
data_Zn4H40C99I12N16O15
_symmetry_space_group_name_H-M   'P 1'
_cell_length_a   19.22987701
_cell_length_b   19.34561229
_cell_length_c   20.53693974
_cell_angle_alpha   104.88595429
_cell_angle_beta   108.57842910
_cell_angle_gamma   114.31957501
_symmetry_Int_Tables_number   1
_chemical_formula_structural   Zn4H40C99I12N16O15
_chemical_formula_sum   'Zn4 H40 C99 I12 N16 O15'
_cell_volume   5895.61691874
_cell_formula_units_Z   1
loop_
 _symmetry_equiv_pos_site_id
 _symmetry_equiv_pos_as_xyz
  1  'x, y, z'
loop_
 _atom_site_type_symbol
 _atom_site_label
 _atom_site_symmetry_multiplicity
 _atom_site_fract_x
 _atom_site_fract_y
 _atom_site_fract_z
 _atom_site_occupancy
 _atom_site_pbe_bader_charge
 _atom_site_pbe_bader_spin_density
 _atom_site_pbe_cm5_charge
 _atom_site_pbe_ddec_charge
 _atom_site_pbe_ddec_spin_density
 _atom_site_pbe_ddec_sum_bond_order
 _atom_site_pbe_magmom
Zn  Zn0  1  0.88543053  0.88027540  0.50069096  1  1.234598  0  0.709211  0.650246  0  2.309332  0
Zn  Zn1  1  0.12315526  0.10839341  0.50079575  1  1.22565  0  0.732199  0.607319  0  2.520764  0
Zn  Zn2  1  0.12849336  0.01687408  0.63041840  1  1.248277  0  0.745187  0.64178  0  2.410531  0
Zn  Zn3  1  0.90735519  0.99796627  0.40627783  1  1.197776  0  0.742957  0.611156  0  2.504534  0
H  H4  1  0.15703514  0.27842565  0.47715650  1  0.145075  0  0.127616  0.127962  0  0.973725  0
H  H5  1  0.12575507  0.15422005  0.75310823  1  0.081404  0  0.112317  0.104824  0  1.013645  0
H  H6  1  0.84454831  0.11358071  0.48488929  1  0.108004  0  0.112164  0.107281  0  1.032314  0
H  H7  1  0.07590935  0.23642029  0.57539856  1  0.150541  0  0.116037  0.11278  0  1.048539  0
H  H8  1  0.85417760  0.98209438  0.62644895  1  0.120598  0  0.114887  0.117122  0  1.006693  0
H  H9  1  0.87642586  0.84684616  0.26926079  1  0.136786  0  0.116434  0.10903  0  1.003974  0
H  H10  1  0.15757394  0.97795349  0.39846341  1  0.093209  0  0.106847  0.093298  0  1.045378  0
H  H11  1  0.71269880  0.88393820  0.25429722  1  0.07321  0  0.113208  0.099097  0  1.026342  0
H  H12  1  0.33685113  0.07403117  0.69480763  1  0.136683  0  0.128712  0.134843  0  0.978813  0
H  H13  1  0.54941236  0.88730048  0.56945628  1  0.113934  0  0.094167  0.110898  0  1.046541  0
H  H14  1  0.04291727  0.70826569  0.56063264  1  0.077637  0  0.10094  0.106015  0  1.014572  0
H  H15  1  0.07236201  0.62196659  0.62202982  1  0.09543  0  0.104537  0.112149  0  1.011346  0
H  H16  1  0.00006614  0.52764885  0.25620362  1  0.105449  0  0.08958  0.106603  0  1.050774  0
H  H17  1  0.54393466  0.60054488  0.21280429  1  0.093398  0  0.102654  0.116394  0  1.021925  0
H  H18  1  0.42235207  0.73820606  0.07965613  1  0.15417  0  0.10424  0.119793  0  1.052896  0
H  H19  1  0.14607165  0.41874485  0.91169409  1  0.093948  0  0.105803  0.117427  0  0.993576  0
H  H20  1  0.56108165  0.82609289  0.20184810  1  0.08521  0  0.100042  0.100447  0  1.001724  0
H  H21  1  0.30804555  0.49385884  0.99004295  1  0.069319  0  0.10028  0.088017  0  1.017965  0
H  H22  1  0.40600558  0.51298137  0.09113823  1  0.063559  0  0.102682  0.09887  0  0.996128  0
H  H23  1  0.28433219  0.52129560  0.79716517  1  0.093004  0  0.110204  0.114193  0  0.998774  0
H  H24  1  0.89638605  0.72912422  0.19538952  1  0.08723  0  0.094597  0.097391  0  1.024945  0
H  H25  1  0.87263342  0.66382430  0.06337592  1  0.057409  0  0.101157  0.105529  0  0.998957  0
H  H26  1  0.98504897  0.86659312  0.02062953  1  0.082709  0  0.107965  0.115531  0  1.007507  0
H  H27  1  0.02317523  0.74844430  0.87977411  1  0.100521  0  0.102765  0.124178  0  1.012853  0
H  H28  1  0.11120165  0.88678549  0.12221704  1  0.111397  0  0.109837  0.117049  0  0.995302  0
H  H29  1  0.79046740  0.76668190  0.62292235  1  0.126303  0  0.127957  0.081428  0  0.935152  0
H  H30  1  0.36220341  0.19938434  0.50204854  1  0.088415  0  0.116791  0.06617  0  0.937759  0
H  H31  1  0.19937245  0.84085404  0.58487827  1  0.069372  0  0.098262  0.046946  0  0.996792  0
H  H32  1  0.57174886  0.32409495  0.65173115  1  0.072055  0  0.091961  0.036875  0  0.990266  0
H  H33  1  0.88632103  0.29440035  0.77122770  1  0.081222  0  0.090407  0.02111  0  1.03237  0
H  H34  1  0.91116569  0.21484570  0.62502241  1  0.107449  0  0.101324  0.047899  0  1.028249  0
H  H35  1  0.11102739  0.45273644  0.63066786  1  0.073502  0  0.102454  0.045287  0  1.003498  0
H  H36  1  0.96215142  0.36326748  0.55374730  1  0.068337  0  0.10502  0.043871  0  0.992258  0
H  H37  1  0.24292056  0.32735675  0.67321069  1  0.062375  0  0.103312  0.044432  0  0.970272  0
H  H38  1  0.25885783  0.62226147  0.86126348  1  0.063066  0  0.099182  0.0387  0  0.977487  0
H  H39  1  0.14409714  0.01951975  0.30364908  1  0.077885  0  0.100834  0.044024  0  0.991895  0
H  H40  1  0.86961414  0.86655272  0.96032271  1  0.08813  0  0.112964  0.057955  0  0.95912  0
H  H41  1  0.93056980  0.99863532  0.85094356  1  0.061455  0  0.107523  0.04659  0  0.959591  0
H  H42  1  0.15817768  0.98180960  0.85185175  1  0.050139  0  0.102878  0.04517  0  0.95666  0
H  H43  1  0.72441423  0.70734319  0.41871606  1  0.079638  0  0.088273  0.029379  0  1.053266  0
C  C44  1  0.92334868  0.85906586  0.64951826  1  0.425251  0  0.072783  0.025635  0  4.063918  0
C  C45  1  0.08791762  0.22983212  0.44558865  1  0.403325  0  0.017745  -0.032637  0  3.955023  0
C  C46  1  0.11181554  0.16260186  0.70116674  1  0.435689  0  0.008109  -0.040122  0  3.962191  0
C  C47  1  0.85321457  0.07561895  0.51370965  1  0.450786  0  0.014131  -0.031121  0  3.939616  0
C  C48  1  0.08946823  0.20593043  0.61099525  1  0.390611  0  0.009364  -0.047194  0  3.969721  0
C  C49  1  0.85857671  0.00837514  0.58604186  1  0.393371  0  0.001356  -0.049087  0  3.990262  0
C  C50  1  0.94500117  0.15415500  0.37739028  1  0.289662  0  0.040097  0.079158  0  3.996654  0
C  C51  1  0.06352182  0.94321038  0.73503359  1  0.402114  0  0.073439  0.020236  0  4.031104  0
C  C52  1  0.98309569  0.88189587  0.72442882  1  0.022273  0  -0.011984  -0.056924  0  4.025298  0
C  C53  1  0.01738030  0.23629591  0.40850861  1  0.063873  0  -0.050186  -0.079259  0  4.117818  0
C  C54  1  0.10838599  0.22955818  0.68819995  1  0.026809  0  -0.045776  -0.051889  0  4.088759  0
C  C55  1  0.83032069  0.06130217  0.56973375  1  -0.017337  0  -0.050012  -0.070227  0  4.102778  0
C  C56  1  0.69758743  0.76486833  0.34449489  1  0.34388  0  0.066763  0.036037  0  4.010367  0
C  C57  1  0.30360871  0.14570702  0.56695655  1  0.397036  0  0.068928  0.025413  0  4.06968  0
C  C58  1  0.08993412  0.85238078  0.52821619  1  0.428882  0  0.065743  0.034962  0  4.068169  0
C  C59  1  0.94514612  0.88686530  0.31131032  1  0.395293  0  0.008263  -0.043559  0  3.964338  0
C  C60  1  0.08891274  0.95511143  0.37634782  1  0.429204  0  0.007554  -0.045598  0  3.973816  0
C  C61  1  0.95571240  0.77588444  0.43236023  1  0.22813  0  0.039609  0.066611  0  3.936855  0
C  C62  1  0.71658450  0.85176494  0.29031952  1  0.424688  0  0.007572  -0.063216  0  3.995519  0
C  C63  1  0.31747070  0.09616875  0.65301937  1  0.423428  0  0.013451  -0.051802  0  3.928099  0
C  C64  1  0.65289521  0.77438542  0.28057726  1  0.062769  0  -0.017849  -0.038236  0  4.001002  0
C  C65  1  0.36082600  0.13073181  0.61549510  1  0.031306  0  -0.021769  -0.024372  0  4.031556  0
C  C66  1  0.02934965  0.77181644  0.46425938  1  0.034271  0  -0.034905  -0.085547  0  4.059355  0
C  C67  1  0.01702629  0.89042068  0.30436266  1  -0.019416  0  -0.042399  -0.060549  0  4.093384  0
C  C68  1  0.42457513  0.04746132  0.58807354  1  -0.248128  0  -0.03997  -0.030162  0  3.824128  0
C  C69  1  0.43760774  0.12849311  0.61923602  1  0.056448  0  0.002068  0.049506  0  3.9761  0
C  C70  1  0.52219578  0.20131816  0.65520794  1  0.032689  0  -0.013198  -0.048205  0  3.919098  0
C  C71  1  0.59431376  0.19319494  0.66319954  1  0.058572  0  -0.004809  0.014948  0  3.987237  0
C  C72  1  0.57969655  0.11011055  0.63255553  1  -0.023239  0  0.010676  0.033164  0  3.884235  0
C  C73  1  0.49459184  0.03599775  0.60155795  1  0.0414  0  -0.011817  0.021553  0  4.002917  0
C  C74  1  0.68433119  0.26317763  0.70703079  1  -0.24336  0  -0.03122  -0.007635  0  3.807466  0
C  C75  1  0.75106104  0.25471339  0.70307026  1  0.060924  0  -0.01969  -0.052195  0  3.946554  0
C  C76  1  0.73078373  0.17289999  0.65329265  1  -0.002718  0  0.010556  0.045585  0  3.934472  0
C  C77  1  0.64806349  0.10058329  0.62771933  1  0.020725  0  0.002912  0.004718  0  3.928703  0
C  C78  1  0.63057161  0.01720389  0.59188500  1  -0.00926  0  -0.005524  0.074156  0  4.021887  0
C  C79  1  0.55360538  0.94741612  0.58034633  1  -0.000688  0  -0.097629  -0.15647  0  3.993971  0
C  C80  1  0.48948398  0.95655121  0.58757452  1  -0.221346  0  -0.046007  0.032164  0  3.879122  0
C  C81  1  0.79030085  0.16054949  0.63222377  1  -0.014783  0  -0.018604  -0.084254  0  3.930892  0
C  C82  1  0.77159162  0.07747762  0.59328299  1  0.03069  0  0.008636  0.063711  0  3.969125  0
C  C83  1  0.69128004  0.00694164  0.57328501  1  -0.177647  0  -0.039326  -0.041196  0  3.802331  0
C  C84  1  0.03409162  0.64865311  0.38596896  1  -0.235378  0  -0.03879  -0.032363  0  3.819844  0
C  C85  1  0.03539106  0.69659609  0.45129284  1  0.013021  0  -0.017169  0.05513  0  4.075924  0
C  C86  1  0.04103125  0.67083834  0.50951376  1  -0.010038  0  -0.077402  -0.15078  0  3.917879  0
C  C87  1  0.04257862  0.59792117  0.50379582  1  0.056161  0  -0.008646  0.073511  0  4.078711  0
C  C88  1  0.03414067  0.54549224  0.43496447  1  -0.028708  0  0.006282  0.013084  0  3.907318  0
C  C89  1  0.02962018  0.57111836  0.37523836  1  0.013599  0  -0.010329  0.060524  0  4.015719  0
C  C90  1  0.05598366  0.57745095  0.56626810  1  -0.076022  0  -0.061153  -0.102754  0  3.913647  0
C  C91  1  0.05469116  0.50454581  0.56010868  1  -0.00116  0  -0.0187  -0.037031  0  3.991448  0
C  C92  1  0.03302758  0.44421110  0.48710309  1  -0.031024  0  0.007117  0.025879  0  3.972091  0
C  C93  1  0.02994793  0.46807379  0.42628119  1  0.026083  0  0.00943  0.020403  0  3.89069  0
C  C94  1  0.02079200  0.41354640  0.35694103  1  0.029232  0  -0.006339  0.031643  0  3.95583  0
C  C95  1  0.00449852  0.43639639  0.29456921  1  -0.252914  0  -0.043127  0.032413  0  3.848702  0
C  C96  1  0.01274240  0.51293436  0.30485152  1  0.059475  0  -0.097038  -0.147072  0  3.970934  0
C  C97  1  0.01452953  0.36162990  0.47399335  1  -0.002691  0  -0.016577  -0.073028  0  3.940885  0
C  C98  1  0.01932633  0.31406389  0.41203792  1  0.028119  0  0.003665  0.070846  0  3.973916  0
C  C99  1  0.02835474  0.34346784  0.35764139  1  -0.191159  0  -0.044667  -0.036021  0  3.822392  0
C  C100  1  0.56530799  0.71998878  0.21451378  1  -0.083499  0  0.002029  0.10385  0  4.009046  0
C  C101  1  0.51844418  0.63087939  0.18332842  1  0.06509  0  -0.092131  -0.129025  0  3.981793  0
C  C102  1  0.44033224  0.58207070  0.11535650  1  -0.081284  0  -0.082768  -0.115142  0  3.972  0
C  C103  1  0.40487264  0.61883381  0.07465134  1  0.015598  0  -0.013277  0.097561  0  4.035935  0
C  C104  1  0.44957396  0.70840701  0.10849985  1  0.007958  0  -0.083455  -0.108417  0  3.933603  0
C  C105  1  0.52780963  0.75708528  0.17667631  1  -0.120671  0  -0.092219  -0.134088  0  3.979767  0
C  C106  1  0.16103301  0.40959892  0.86441443  1  0.007601  0  -0.089816  -0.158125  0  3.966297  0
C  C107  1  0.11821396  0.32848677  0.80492617  1  -0.212783  0  -0.044862  0.024966  0  3.880456  0
C  C108  1  0.19761187  0.38623368  0.74288412  1  -0.061701  0  -0.016024  -0.013235  0  3.957464  0
C  C109  1  0.23694435  0.46814248  0.80023255  1  -0.0241  0  -0.076026  -0.146898  0  3.93694  0
C  C110  1  0.22443895  0.48032523  0.86466637  1  0.004991  0  -0.004763  0.087511  0  4.026205  0
C  C111  1  0.32950783  0.55930052  0.99973641  1  -0.109196  0  -0.055893  -0.095768  0  3.884603  0
C  C112  1  0.28513236  0.56335840  0.93482072  1  -0.017251  0  -0.024555  -0.047712  0  3.949069  0
C  C113  1  0.13879097  0.31314640  0.74485364  1  -0.015201  0  -0.001906  0.034154  0  3.989173  0
C  C114  1  0.96789237  0.85256454  0.78072504  1  0.090784  0  -0.004284  0.016149  0  3.996385  0
C  C115  1  0.99839290  0.80227013  0.80206518  1  -0.238737  0  -0.032811  0.031681  0  3.886462  0
C  C116  1  0.99505658  0.78361513  0.86255648  1  0.028873  0  -0.089276  -0.159229  0  3.941426  0
C  C117  1  0.95965322  0.81361008  0.90414650  1  0.007464  0  0.007429  0.134173  0  3.989388  0
C  C118  1  0.92220911  0.85802391  0.87930758  1  -0.03679  0  -0.017332  -0.075172  0  3.961736  0
C  C119  1  0.92779113  0.87861620  0.81925083  1  -0.061027  0  0.003374  -0.010051  0  3.891828  0
C  C120  1  0.93012985  0.72682956  0.10494458  1  0.016301  0  -0.081282  -0.095007  0  3.950449  0
C  C121  1  0.94323461  0.76388528  0.17892447  1  -0.098831  0  -0.098644  -0.134348  0  3.983157  0
C  C122  1  0.07675170  0.88947790  0.21168397  1  -0.049401  0  -0.02303  -0.032562  0  3.964459  0
C  C123  1  0.06322712  0.85105318  0.13723923  1  -0.001539  0  -0.0748  -0.126503  0  3.916814  0
C  C124  1  0.98775396  0.77246502  0.08171672  1  0.01087  0  -0.022099  0.063757  0  4.058504  0
C  C125  1  0.96946004  0.80894544  0.97604844  1  0.041213  0  -0.103598  -0.202555  0  4.006973  0
C  C126  1  0.96530462  0.74919306  0.00037537  1  -0.286483  0  -0.039464  0.02499  0  3.886036  0
C  C127  1  0.01402233  0.84736397  0.23286283  1  -0.047653  0  0.002948  0.074953  0  3.987171  0
C  C128  1  0.83020917  0.80437388  0.60192224  1  0.86721  0  0.111853  0.2732  0  3.914764  0
C  C129  1  0.30408014  0.17707092  0.51041599  1  0.89936  0  0.100901  0.255713  0  3.962024  0
C  C130  1  0.17143062  0.88044497  0.59222418  1  0.887664  0  0.083429  0.23056  0  4.019839  0
C  C131  1  0.52807489  0.28405392  0.66944112  1  0.909646  0  0.06707  0.232267  0  4.074061  0
C  C132  1  0.84471858  0.32077093  0.75961679  1  0.948554  0  0.08665  0.293761  0  3.979526  0
C  C133  1  0.86691317  0.23126017  0.63838867  1  0.892376  0  0.083826  0.244944  0  3.983752  0
C  C134  1  0.08999693  0.49871850  0.63321986  1  0.936816  0  0.095221  0.260798  0  3.975024  0
C  C135  1  0.98234577  0.32621122  0.52174013  1  0.920038  0  0.092117  0.253771  0  3.992014  0
C  C136  1  0.23011185  0.37906006  0.68625505  1  0.929624  0  0.097232  0.277016  0  3.978103  0
C  C137  1  0.29667235  0.63823106  0.92269071  1  0.931424  0  0.088284  0.260685  0  3.996914  0
C  C138  1  0.15139891  0.97903386  0.26028139  1  0.930368  0  0.090001  0.267604  0  3.972538  0
C  C139  1  0.87250091  0.88066085  0.91177602  1  0.878931  0  0.098202  0.258853  0  3.965578  0
C  C140  1  0.89795871  0.93570182  0.80150175  1  1.004041  0  0.101923  0.285177  0  3.9726  0
C  C141  1  0.15052733  0.99617884  0.80175160  1  0.967266  0  0.0942  0.251202  0  4.009865  0
C  C142  1  0.67055952  0.69785221  0.36863219  1  0.950084  0  0.071919  0.231824  0  4.052356  0
I  I143  1  0.83768192  0.67819184  0.33704421  1  0.178223  0  0.127337  0.023136  0  1.557282  0
I  I144  1  0.29690228  0.94573915  0.50124148  1  0.141307  0  0.11364  -0.003198  0  1.729858  0
I  I145  1  0.71229641  0.37476844  0.79229289  1  0.214795  0  0.145134  0.049019  0  1.642489  0
I  I146  1  0.64962443  0.88222005  0.50026383  1  0.158465  0  0.124885  0.036845  0  1.537655  0
I  I147  1  0.40000224  0.85816914  0.59981876  1  0.123796  0  0.070297  -0.019864  0  1.432423  0
I  I148  1  0.04226302  0.69666553  0.30594159  1  0.152306  0  0.116192  0.013527  0  1.614078  0
I  I149  1  0.06864093  0.28773728  0.28729818  1  0.151879  0  0.085351  0.000747  0  1.544326  0
I  I150  1  0.94333485  0.35002065  0.17736881  1  0.123288  0  0.059313  -0.031014  0  1.445306  0
I  I151  1  0.01806911  0.22803375  0.80678497  1  0.07874  0  0.077033  -0.043124  0  1.443147  0
I  I152  1  0.05354095  0.75422037  0.74436184  1  0.145517  0  0.110834  0.010752  0  1.39816  0
I  I153  1  0.92211082  0.62418581  0.92843379  1  0.14344  0  0.099368  0.00572  0  1.43288  0
I  I154  1  0.81433049  0.10908925  0.31406695  1  0.135957  0  0.095045  -0.010228  0  1.394608  0
N  N155  1  0.96667333  0.90282221  0.61856248  1  -0.675186  0  -0.212441  -0.151978  0  3.443166  0
N  N156  1  0.05927950  0.15032795  0.43741420  1  -0.76321  0  -0.261139  -0.140611  0  3.505686  0
N  N157  1  0.09843653  0.10600082  0.63723336  1  -0.79899  0  -0.275487  -0.173352  0  3.601831  0
N  N158  1  0.89068454  0.03310154  0.49765746  1  -0.774837  0  -0.276774  -0.157873  0  3.591416  0
N  N159  1  0.08452211  0.13235893  0.58143432  1  -0.794963  0  -0.282077  -0.19754  0  3.587088  0
N  N160  1  0.89402323  0.99149453  0.54198237  1  -0.797413  0  -0.280727  -0.182709  0  3.576237  0
N  N161  1  0.97008631  0.10307001  0.39551787  1  -0.794523  0  -0.283261  -0.21747  0  3.557751  0
N  N162  1  0.05013020  0.95325798  0.66968016  1  -0.671332  0  -0.215422  -0.114209  0  3.519209  0
N  N163  1  0.78160633  0.83350742  0.38803280  1  -0.7151  0  -0.241538  -0.215226  0  3.470776  0
N  N164  1  0.23172741  0.12027493  0.57607204  1  -0.723607  0  -0.248393  -0.174227  0  3.531821  0
N  N165  1  0.05454210  0.90017086  0.53183745  1  -0.690188  0  -0.237883  -0.163085  0  3.485268  0
N  N166  1  0.97317874  0.94653827  0.38069009  1  -0.773753  0  -0.276619  -0.17464  0  3.608501  0
N  N167  1  0.06151820  0.98823231  0.42084996  1  -0.804913  0  -0.279254  -0.169232  0  3.58233  0
N  N168  1  0.97145864  0.85302891  0.47464605  1  -0.707853  0  -0.234779  -0.168411  0  3.487854  0
N  N169  1  0.79203949  0.88534360  0.35378309  1  -0.790644  0  -0.259685  -0.142398  0  3.612089  0
N  N170  1  0.23971556  0.08960385  0.62768309  1  -0.718822  0  -0.237435  -0.113094  0  3.522905  0
O  O171  1  0.79446095  0.80019665  0.53724484  1  -1.102711  0  -0.246928  -0.349567  0  2.324396  0
O  O172  1  0.24075076  0.17856389  0.47118485  1  -1.090788  0  -0.260696  -0.357618  0  2.174592  0
O  O173  1  0.20659907  0.94325078  0.65427463  1  -1.089298  0  -0.250285  -0.347852  0  2.253158  0
O  O174  1  0.48075485  0.30227360  0.68752963  1  -1.073363  0  -0.271622  -0.350408  0  2.150912  0
O  O175  1  0.87432824  0.39598634  0.79720678  1  -1.085432  0  -0.270671  -0.347872  0  2.18961  0
O  O176  1  0.88077322  0.30308278  0.65298446  1  -1.054871  0  -0.248872  -0.327329  0  2.13376  0
O  O177  1  0.10214695  0.54515394  0.69442394  1  -1.072319  0  -0.264964  -0.352163  0  2.11061  0
O  O178  1  0.97074193  0.26026084  0.52535745  1  -1.089202  0  -0.245943  -0.340414  0  2.245936  0
O  O179  1  0.24599931  0.42817138  0.65750963  1  -1.087702  0  -0.282337  -0.380392  0  2.097459  0
O  O180  1  0.34051509  0.71268175  0.97201273  1  -1.087517  0  -0.27201  -0.3635  0  2.135703  0
O  O181  1  0.21631015  0.00945923  0.25231351  1  -1.075959  0  -0.279727  -0.367917  0  2.082527  0
O  O182  1  0.83350237  0.91270441  0.88625041  1  -1.035558  0  -0.23751  -0.322094  0  2.112925  0
O  O183  1  0.84899548  0.91953048  0.73666117  1  -1.090161  0  -0.261  -0.365281  0  2.16265  0
O  O184  1  0.21202713  0.05400417  0.80360662  1  -1.072385  0  -0.259248  -0.339631  0  2.094139  0
O  O185  1  0.59643831  0.63530780  0.33863742  1  -1.077359  0  -0.276  -0.355051  0  2.115939  0
