# generated using pymatgen
data_Zn2H25C36S2N7O10
_symmetry_space_group_name_H-M   'P 1'
_cell_length_a   12.86318128
_cell_length_b   16.37622939
_cell_length_c   17.61644324
_cell_angle_alpha   96.06567788
_cell_angle_beta   90.16091691
_cell_angle_gamma   92.95209731
_symmetry_Int_Tables_number   1
_chemical_formula_structural   Zn2H25C36S2N7O10
_chemical_formula_sum   'Zn2 H25 C36 S2 N7 O10'
_cell_volume   3685.11090769
_cell_formula_units_Z   1
loop_
 _symmetry_equiv_pos_site_id
 _symmetry_equiv_pos_as_xyz
  1  'x, y, z'
loop_
 _atom_site_type_symbol
 _atom_site_label
 _atom_site_symmetry_multiplicity
 _atom_site_fract_x
 _atom_site_fract_y
 _atom_site_fract_z
 _atom_site_occupancy
 _atom_site_pbe_bader_charge
 _atom_site_pbe_bader_spin_density
 _atom_site_pbe_cm5_charge
 _atom_site_pbe_ddec_charge
 _atom_site_pbe_ddec_spin_density
 _atom_site_pbe_ddec_sum_bond_order
 _atom_site_pbe_magmom
Zn  Zn0  1  0.49820630  0.41060642  0.49780608  1  1.297848  0  0.674816  0.83602  0  2.38344  0
Zn  Zn1  1  0.50272402  0.58826142  0.50006385  1  1.29272  0  0.671622  0.831297  0  2.391774  0
H  H2  1  0.39938547  0.71169318  0.42836069  1  0.10846  0  0.125069  0.100568  0  0.975015  0
H  H3  1  0.39429239  0.86329584  0.43150803  1  0.071666  0  0.105073  0.115737  0  1.012864  0
H  H4  1  0.64804603  0.88318570  0.59562714  1  0.06034  0  0.106039  0.120967  0  0.999165  0
H  H5  1  0.34595191  0.11557358  0.40937395  1  0.056318  0  0.108975  0.12485  0  0.991532  0
H  H6  1  0.60602763  0.13663764  0.56820612  1  0.070069  0  0.104715  0.114645  0  1.013211  0
H  H7  1  0.60513171  0.28784223  0.56644674  1  0.124628  0  0.124303  0.099929  0  0.977219  0
H  H8  1  0.58541440  0.00596422  0.56255782  1  0.047345  0  0.104128  0.101402  0  1.000627  0
H  H9  1  0.40911576  0.99334680  0.44262505  1  0.059258  0  0.104905  0.100883  0  1.001036  0
H  H10  1  0.50414462  0.61291060  0.26523473  1  0.089993  0  0.100085  0.104318  0  1.005895  0
H  H11  1  0.50258550  0.61039612  0.12455140  1  0.03818  0  0.09248  0.095333  0  1.025841  0
H  H12  1  0.49984458  0.34521363  0.10579684  1  0.03198  0  0.095111  0.101285  0  1.013382  0
H  H13  1  0.50947605  0.65469454  0.89196813  1  0.030882  0  0.094503  0.100459  0  1.013199  0
H  H14  1  0.49262166  0.38931806  0.87398970  1  0.032369  0  0.093908  0.097101  0  1.022098  0
H  H15  1  0.49020517  0.38632938  0.73327974  1  0.08548  0  0.102323  0.108203  0  1.001457  0
H  H16  1  0.49805957  0.40558767  0.99416893  1  0.013319  0  0.097247  0.09347  0  1.012179  0
H  H17  1  0.50487429  0.59446518  0.00401703  1  0.055615  0  0.097002  0.093383  0  1.012072  0
H  H18  1  0.86378273  0.62692602  0.50247974  1  0.108655  0  0.114303  0.13872  0  0.985045  0
H  H19  1  0.67120969  0.66005549  0.57550785  1  0.541705  0  0.306898  0.327892  0  0.977327  0
H  H20  1  0.71391799  0.75436205  0.62483351  1  0.450859  0  0.323686  0.320292  0  0.919101  0
H  H21  1  0.33304075  0.33800470  0.41977619  1  0.508575  0  0.304645  0.321454  0  0.978644  0
H  H22  1  0.27626010  0.24415799  0.38529234  1  0.457612  0  0.31694  0.318675  0  0.923841  0
H  H23  1  0.50511037  0.33434155  0.30994981  1  0.483554  0  0.295495  0.312912  0  0.999856  0
H  H24  1  0.50493520  0.27887527  0.21821143  1  0.435659  0  0.308582  0.302966  0  0.945194  0
H  H25  1  0.50250812  0.66440044  0.68822065  1  0.49651  0  0.292448  0.307092  0  1.005049  0
H  H26  1  0.49740173  0.71957805  0.77904445  1  0.420451  0  0.304305  0.296946  0  0.951322  0
C  C27  1  0.50448215  0.49028006  0.35078252  1  1.447298  0  0.209651  0.601133  0  4.156444  0
C  C28  1  0.29383876  0.50578931  0.49542561  1  1.628908  0  0.210396  0.61037  0  4.221706  0
C  C29  1  0.49620778  0.50878836  0.64728515  1  1.493084  0  0.211554  0.603019  0  4.150787  0
C  C30  1  0.70715452  0.49483608  0.50475698  1  1.628243  0  0.210083  0.603374  0  4.21873  0
C  C31  1  0.45332045  0.75256617  0.46428024  1  0.476587  0  0.046583  0.116585  0  3.985625  0
C  C32  1  0.45064484  0.83680803  0.46663030  1  -0.062848  0  -0.109605  -0.23605  0  3.994123  0
C  C33  1  0.52164639  0.88663107  0.51541519  1  0.070329  0  0.002243  0.1692  0  4.084147  0
C  C34  1  0.59133130  0.84721932  0.55792350  1  -0.003591  0  -0.10106  -0.304299  0  3.900927  0
C  C35  1  0.59166093  0.76047374  0.55127943  1  0.9699  0  0.232765  0.461498  0  4.088062  0
C  C36  1  0.52696940  0.97618062  0.52216632  1  -0.040946  0  -0.082152  -0.121493  0  3.965822  0
C  C37  1  0.46782280  0.02318699  0.48278435  1  -0.00623  0  -0.078406  -0.112358  0  3.961085  0
C  C38  1  0.40474572  0.15162286  0.44514484  1  -0.00719  0  -0.096391  -0.293813  0  3.885219  0
C  C39  1  0.47459117  0.11266664  0.48781243  1  -0.05656  0  0.002216  0.165294  0  4.083645  0
C  C40  1  0.54891681  0.16274894  0.53343187  1  0.029971  0  -0.10875  -0.233703  0  3.994453  0
C  C41  1  0.54891630  0.24681656  0.53276199  1  0.392542  0  0.048202  0.11864  0  3.98208  0
C  C42  1  0.40826552  0.23826200  0.44767215  1  1.018069  0  0.235007  0.465272  0  4.066308  0
C  C43  1  0.50321094  0.48246301  0.26648399  1  0.040489  0  -0.041434  -0.17673  0  3.934639  0
C  C44  1  0.50319711  0.55456012  0.22914835  1  -0.101435  0  -0.091478  -0.070628  0  4.05281  0
C  C45  1  0.50239369  0.55297231  0.15062086  1  -0.013847  0  -0.118699  -0.188626  0  4.028263  0
C  C46  1  0.50127491  0.47646195  0.10463615  1  -0.021928  0  -0.011882  0.140418  0  4.087886  0
C  C47  1  0.50099575  0.40452332  0.14078731  1  -0.045857  0  -0.111946  -0.27241  0  3.932296  0
C  C48  1  0.50205220  0.40486830  0.22100055  1  0.516794  0  0.108634  0.318186  0  4.088689  0
C  C49  1  0.50031900  0.46883698  0.02148935  1  -0.029591  0  -0.090103  -0.125187  0  3.987843  0
C  C50  1  0.50215444  0.53117157  0.97676947  1  -0.065148  0  -0.091581  -0.127485  0  3.988767  0
C  C51  1  0.50526443  0.59521184  0.85717801  1  -0.058061  0  -0.111362  -0.269116  0  3.934296  0
C  C52  1  0.50114543  0.52333807  0.89362062  1  0.061567  0  -0.012389  0.138222  0  4.08549  0
C  C53  1  0.49623430  0.44670404  0.84775533  1  -0.006947  0  -0.115814  -0.184159  0  4.020225  0
C  C54  1  0.49516785  0.44482580  0.76919296  1  -0.002775  0  -0.088996  -0.06895  0  4.045088  0
C  C55  1  0.49941436  0.51691007  0.73170366  1  -0.009793  0  -0.040532  -0.175459  0  3.935201  0
C  C56  1  0.50525893  0.59456436  0.77704143  1  0.417361  0  0.10509  0.312696  0  4.08457  0
C  C57  1  0.10863016  0.43501773  0.50008618  1  0.24813  0  0.071414  0.023958  0  3.967162  0
C  C58  1  0.89031237  0.56494230  0.50249560  1  0.034474  0  -0.096615  -0.146849  0  3.985512  0
C  C59  1  0.17868439  0.50216725  0.49988034  1  -0.070316  0  -0.014276  -0.154425  0  3.927954  0
C  C60  1  0.82227865  0.49697186  0.50323234  1  -0.182835  0  -0.020244  -0.103514  0  3.964689  0
C  C61  1  0.99475443  0.54184957  0.50076577  1  -0.201911  0  -0.022736  -0.002086  0  4.074251  0
C  C62  1  0.00352954  0.45622779  0.49969519  1  -0.105959  0  -0.022649  -0.073654  0  4.076546  0
S  S63  1  0.11528335  0.59313608  0.50010976  1  0.297868  0  0.095084  0.143467  0  2.75032  0
S  S64  1  0.88378510  0.40457186  0.50082260  1  0.291859  0  0.089439  0.143642  0  2.759314  0
N  N65  1  0.52109290  0.71410195  0.50554505  1  -1.23798  0  -0.340863  -0.326932  0  3.430974  0
N  N66  1  0.48118524  0.28485081  0.49103352  1  -1.250073  0  -0.340089  -0.327954  0  3.430454  0
N  N67  1  0.66086618  0.72121793  0.59039670  1  -1.303288  0  -0.574311  -0.630471  0  3.330432  0
N  N68  1  0.34165297  0.27656887  0.40520655  1  -1.267005  0  -0.578671  -0.629104  0  3.309371  0
N  N69  1  0.50056325  0.33220726  0.25213074  1  -1.259901  0  -0.595828  -0.622545  0  3.381997  0
N  N70  1  0.51345145  0.66768500  0.74577916  1  -1.253941  0  -0.602269  -0.62941  0  3.367509  0
N  N71  1  0.13699874  0.34957976  0.50065055  1  0.38367  0  0.061467  0.539006  0  4.215373  0
O  O72  1  0.50979252  0.42450860  0.38444645  1  -1.1749  0  -0.317377  -0.554776  0  2.380736  0
O  O73  1  0.50036234  0.56224080  0.38646003  1  -1.172267  0  -0.324518  -0.551464  0  2.3541  0
O  O74  1  0.33847865  0.57720354  0.50212254  1  -1.161749  0  -0.313418  -0.533529  0  2.288545  0
O  O75  1  0.33744001  0.43746224  0.48488496  1  -1.180012  0  -0.310249  -0.556084  0  2.35207  0
O  O76  1  0.49991396  0.57504765  0.61364997  1  -1.170653  0  -0.318909  -0.55891  0  2.389479  0
O  O77  1  0.48976342  0.43660237  0.61168098  1  -1.172172  0  -0.320963  -0.545032  0  2.342208  0
O  O78  1  0.66067101  0.42446784  0.50476107  1  -1.161657  0  -0.31277  -0.536142  0  2.30844  0
O  O79  1  0.66482307  0.56380799  0.50569702  1  -1.181933  0  -0.315057  -0.560655  0  2.323951  0
O  O80  1  0.10754667  0.30143961  0.44428224  1  -0.461631  0  -0.149049  -0.356822  0  1.853476  0
O  O81  1  0.18457642  0.33061832  0.55644841  1  -0.414262  0  -0.115992  -0.299958  0  1.86864  0
