# generated using pymatgen
data_H12PbC8O5
_symmetry_space_group_name_H-M   'P 1'
_cell_length_a   5.08594027
_cell_length_b   8.14615389
_cell_length_c   11.47151176
_cell_angle_alpha   92.02373679
_cell_angle_beta   91.04671254
_cell_angle_gamma   97.30817502
_symmetry_Int_Tables_number   1
_chemical_formula_structural   H12PbC8O5
_chemical_formula_sum   'H24 Pb2 C16 O10'
_cell_volume   470.99529379
_cell_formula_units_Z   2
loop_
 _symmetry_equiv_pos_site_id
 _symmetry_equiv_pos_as_xyz
  1  'x, y, z'
loop_
 _atom_site_type_symbol
 _atom_site_label
 _atom_site_symmetry_multiplicity
 _atom_site_fract_x
 _atom_site_fract_y
 _atom_site_fract_z
 _atom_site_occupancy
 _atom_site_hle17_bader_spin_density
 _atom_site_hle17_ddec_charge
 _atom_site_hle17_ddec_spin_density
 _atom_site_hle17_ddec_sum_bond_order
 _atom_site_hle17_magmom
 _atom_site_hse06_10hf_bader_spin_density
 _atom_site_hse06_10hf_ddec_charge
 _atom_site_hse06_10hf_ddec_spin_density
 _atom_site_hse06_10hf_ddec_sum_bond_order
 _atom_site_hse06_10hf_magmom
 _atom_site_hse06_bader_spin_density
 _atom_site_hse06_ddec_charge
 _atom_site_hse06_ddec_spin_density
 _atom_site_hse06_ddec_sum_bond_order
 _atom_site_hse06_magmom
 _atom_site_pbe_bader_spin_density
 _atom_site_pbe_cm5_charge
 _atom_site_pbe_ddec_charge
 _atom_site_pbe_ddec_spin_density
 _atom_site_pbe_ddec_sum_bond_order
 _atom_site_pbe_magmom
H  H0  1  0.70938239  0.21363433  0.04454775  1  0  0.08809  0  0.957116  0  0  0.099554  0  1.017073  0  0  0.101824  0  1.016613  0  0  0.102687  0.097893  0  1.017555  0
H  H1  1  0.29065894  0.78636438  0.95544192  1  0  0.088278  0  0.957239  0  0  0.099783  0  1.017148  0  0  0.102071  0  1.016666  0  0  0.102733  0.098114  0  1.017629  0
H  H2  1  0.49490420  0.20864250  0.84524854  1  0  0.047234  0  0.968263  0  0  0.063424  0  1.042054  0  0  0.063348  0  1.043174  0  0  0.085465  0.063432  0  1.041371  0
H  H3  1  0.50510718  0.79134354  0.15473730  1  0  0.047225  0  0.968342  0  0  0.063369  0  1.042143  0  0  0.063291  0  1.043246  0  0  0.085455  0.06338  0  1.041466  0
H  H4  1  0.22261187  0.07349252  0.89372972  1  0  0.068452  0  0.948937  0  0  0.084786  0  1.017513  0  0  0.086139  0  1.016973  0  0  0.09012  0.083779  0  1.017981  0
H  H5  1  0.77740711  0.92650229  0.10625980  1  0  0.068443  0  0.94888  0  0  0.084808  0  1.017381  0  0  0.086149  0  1.016848  0  0  0.090092  0.0838  0  1.017856  0
H  H6  1  0.45817306  0.08685568  0.20868468  1  0  0.074563  0  0.942885  0  0  0.089524  0  1.008053  0  0  0.090856  0  1.00765  0  0  0.09001  0.088504  0  1.008433  0
H  H7  1  0.54182070  0.91312911  0.79131242  1  0  0.074495  0  0.943061  0  0  0.089447  0  1.008263  0  0  0.09078  0  1.007856  0  0  0.089959  0.088432  0  1.008631  0
H  H8  1  0.19938174  0.00082716  0.11123931  1  0  0.066789  0  0.941767  0  0  0.084326  0  1.007396  0  0  0.085573  0  1.006657  0  0  0.088707  0.083358  0  1.008071  0
H  H9  1  0.80063672  0.99915519  0.88874211  1  0  0.066778  0  0.941702  0  0  0.084362  0  1.007303  0  0  0.085607  0  1.006574  0  0  0.088703  0.083395  0  1.007972  0
H  H10  1  0.70036815  0.13560520  0.51359630  1  0  0.07358  0  0.936096  0  0  0.089597  0  0.992835  0  0  0.090671  0  0.993489  0  0  0.101621  0.088845  0  0.992405  0
H  H11  1  0.29957892  0.86442383  0.48641288  1  0  0.073672  0  0.936085  0  0  0.089633  0  0.992891  0  0  0.090698  0  0.993545  0  0  0.101632  0.088878  0  0.992446  0
H  H12  1  0.28817880  0.17695412  0.45557141  1  0  0.072868  0  0.935976  0  0  0.090983  0  0.998178  0  0  0.092063  0  0.998262  0  0  0.090775  0.090114  0  0.998239  0
H  H13  1  0.71181820  0.82304690  0.54443649  1  0  0.072957  0  0.935939  0  0  0.090972  0  0.998165  0  0  0.092053  0  0.998246  0  0  0.090766  0.090103  0  0.998221  0
H  H14  1  0.14094906  0.29518693  0.56106909  1  0  0.069202  0  0.968331  0  0  0.085722  0  1.034424  0  0  0.086907  0  1.034542  0  0  0.090578  0.08478  0  1.034535  0
H  H15  1  0.85905283  0.70483134  0.43893045  1  0  0.069314  0  0.9685  0  0  0.085735  0  1.034599  0  0  0.086886  0  1.034756  0  0  0.090572  0.084793  0  1.034709  0
H  H16  1  0.98904764  0.95803324  0.32439037  1  0  0.066473  0  0.939354  0  0  0.085466  0  1.004088  0  0  0.086272  0  1.004506  0  0  0.090942  0.084843  0  1.003859  0
H  H17  1  0.01093065  0.04197259  0.67562018  1  0  0.066503  0  0.939368  0  0  0.085436  0  1.004184  0  0  0.08622  0  1.004634  0  0  0.090916  0.084813  0  1.003951  0
H  H18  1  0.64395878  0.92781428  0.34692985  1  0  0.068025  0  0.948361  0  0  0.087172  0  1.012388  0  0  0.087884  0  1.012459  0  0  0.089863  0.086634  0  1.012359  0
H  H19  1  0.35604627  0.07219912  0.65307396  1  0  0.067937  0  0.948401  0  0  0.087095  0  1.012425  0  0  0.08781  0  1.012495  0  0  0.089842  0.086555  0  1.012396  0
H  H20  1  0.47261746  0.50747733  0.35963716  1  0  0.420956  0  0.880986  0  0  0.389812  0  0.945914  0  0  0.400073  0  0.930973  0  0  0.291685  0.382557  0  0.956458  0
H  H21  1  0.52736563  0.49252237  0.64037415  1  0  0.421004  0  0.880883  0  0  0.38985  0  0.945833  0  0  0.400113  0  0.930889  0  0  0.291679  0.382594  0  0.956377  0
H  H22  1  0.29170964  0.58804148  0.44836901  1  0  0.422741  0  0.882511  0  0  0.390151  0  0.949441  0  0  0.401472  0  0.933171  0  0  0.286477  0.382096  0  0.960967  0
H  H23  1  0.70830628  0.41198697  0.55164472  1  0  0.422775  0  0.882478  0  0  0.390165  0  0.949414  0  0  0.401501  0  0.933142  0  0  0.286511  0.382106  0  0.960942  0
Pb  Pb24  1  0.99292922  0.52674242  0.19167112  1  0  1.3363  0  1.341905  0  0  1.161575  0  1.720911  0  0  1.220364  0  1.680022  0  0  0.655515  1.119003  0  1.749778  0
Pb  Pb25  1  0.00704096  0.47323109  0.80833004  1  0  1.336435  0  1.341803  0  0  1.161639  0  1.720781  0  0  1.220424  0  1.679888  0  0  0.655496  1.119064  0  1.749642  0
C  C26  1  0.49482903  0.17653766  0.03277242  1  0  -0.135691  0  3.636803  0  0  -0.131725  0  3.869346  0  0  -0.138841  0  3.883698  0  0  -0.092805  -0.126871  0  3.859444  0
C  C27  1  0.50519604  0.82338072  0.96723040  1  0  -0.136642  0  3.637016  0  0  -0.132742  0  3.869797  0  0  -0.139932  0  3.88419  0  0  -0.09301  -0.127844  0  3.859853  0
C  C28  1  0.43722927  0.11049050  0.90703416  1  0  -0.117432  0  3.69251  0  0  -0.166367  0  3.954215  0  0  -0.167023  0  3.969741  0  0  -0.164336  -0.165676  0  3.943257  0
C  C29  1  0.56277691  0.88948927  0.09294718  1  0  -0.117533  0  3.69222  0  0  -0.166268  0  3.953628  0  0  -0.166923  0  3.969188  0  0  -0.16436  -0.165598  0  3.9427  0
C  C30  1  0.35717223  0.32463721  0.06679449  1  0  0.690664  0  3.803041  0  0  0.636582  0  4.100954  0  0  0.672554  0  4.093413  0  0  0.221869  0.612096  0  4.105125  0
C  C31  1  0.64288850  0.67537918  0.93321216  1  0  0.691604  0  3.803486  0  0  0.637374  0  4.101591  0  0  0.673373  0  4.093983  0  0  0.222088  0.612873  0  4.105799  0
C  C32  1  0.41506811  0.03829973  0.11898028  1  0  -0.100131  0  3.625836  0  0  -0.14364  0  3.884778  0  0  -0.14377  0  3.897431  0  0  -0.159317  -0.143409  0  3.876033  0
C  C33  1  0.58493133  0.96175276  0.88098855  1  0  -0.099857  0  3.625345  0  0  -0.143249  0  3.884121  0  0  -0.143382  0  3.896788  0  0  -0.159092  -0.143017  0  3.875343  0
C  C34  1  0.84497093  0.26974936  0.36727619  1  0  0.668728  0  3.828895  0  0  0.61436  0  4.129757  0  0  0.648801  0  4.122433  0  0  0.221414  0.591043  0  4.133831  0
C  C35  1  0.15500827  0.73025375  0.63271339  1  0  0.668772  0  3.82947  0  0  0.614273  0  4.130497  0  0  0.648711  0  4.123168  0  0  0.221307  0.59095  0  4.134568  0
C  C36  1  0.86079630  0.13125539  0.45080389  1  0  -0.12617  0  3.654584  0  0  -0.126476  0  3.894002  0  0  -0.132796  0  3.908702  0  0  -0.092929  -0.122288  0  3.883983  0
C  C37  1  0.13920106  0.86873353  0.54922643  1  0  -0.126354  0  3.654438  0  0  -0.126679  0  3.893909  0  0  -0.132959  0  3.90851  0  0  -0.09311  -0.122476  0  3.88388  0
C  C38  1  0.12695586  0.17132221  0.51871254  1  0  -0.116695  0  3.651571  0  0  -0.159501  0  3.906746  0  0  -0.160207  0  3.919956  0  0  -0.164687  -0.158836  0  3.897566  0
C  C39  1  0.87300101  0.82868811  0.48127537  1  0  -0.116984  0  3.651643  0  0  -0.159501  0  3.906523  0  0  -0.160189  0  3.919733  0  0  -0.164644  -0.158833  0  3.89734  0
C  C40  1  0.83772725  0.95859124  0.39183039  1  0  -0.114111  0  3.687024  0  0  -0.163373  0  3.948565  0  0  -0.163602  0  3.962598  0  0  -0.165485  -0.163027  0  3.9388  0
C  C41  1  0.16226323  0.04141714  0.60817763  1  0  -0.114032  0  3.68646  0  0  -0.163229  0  3.94811  0  0  -0.163457  0  3.96216  0  0  -0.16534  -0.162876  0  3.938335  0
O  O42  1  0.12127564  0.33294468  0.02823036  1  0  -0.685022  0  2.001509  0  0  -0.608174  0  2.244278  0  0  -0.640813  0  2.238276  0  0  -0.292828  -0.585161  0  2.247551  0
O  O43  1  0.87869679  0.66705231  0.97176866  1  0  -0.685102  0  2.002215  0  0  -0.608268  0  2.24509  0  0  -0.640896  0  2.239065  0  0  -0.29284  -0.585246  0  2.248336  0
O  O44  1  0.47074948  0.43491339  0.13993876  1  0  -0.687138  0  1.970002  0  0  -0.609734  0  2.210489  0  0  -0.642544  0  2.203824  0  0  -0.294914  -0.586743  0  2.214357  0
O  O45  1  0.52930849  0.56507701  0.86006822  1  0  -0.687763  0  1.969674  0  0  -0.610264  0  2.210125  0  0  -0.643079  0  2.203431  0  0  -0.295243  -0.587265  0  2.214003  0
O  O46  1  0.94548224  0.25648326  0.26664246  1  0  -0.608487  0  1.972955  0  0  -0.531855  0  2.207563  0  0  -0.561916  0  2.201647  0  0  -0.284669  -0.510973  0  2.210912  0
O  O47  1  0.05446924  0.74350845  0.73334419  1  0  -0.608691  0  1.972959  0  0  -0.531843  0  2.207381  0  0  -0.561911  0  2.201471  0  0  -0.284655  -0.510977  0  2.210767  0
O  O48  1  0.74865863  0.39955702  0.40292519  1  0  -0.682467  0  2.032056  0  0  -0.611227  0  2.258455  0  0  -0.638686  0  2.248278  0  0  -0.307224  -0.591929  0  2.264806  0
O  O49  1  0.25135206  0.60046399  0.59709099  1  0  -0.682326  0  2.032265  0  0  -0.611091  0  2.258732  0  0  -0.638555  0  2.248572  0  0  -0.307117  -0.591794  0  2.265084  0
O  O50  1  0.33553319  0.58283925  0.36376144  1  0  -0.861091  0  1.840287  0  0  -0.800886  0  2.028199  0  0  -0.824489  0  1.998869  0  0  -0.578436  -0.783998  0  2.048701  0
O  O51  1  0.66447070  0.41716681  0.63624919  1  0  -0.861137  0  1.840202  0  0  -0.800886  0  2.028166  0  0  -0.824518  0  1.998782  0  0  -0.578433  -0.783992  0  2.048687  0
