# generated using pymatgen
data_NdH13C3NCl3O5
_symmetry_space_group_name_H-M   'P 1'
_cell_length_a   5.99675597
_cell_length_b   11.10392616
_cell_length_c   16.43102625
_cell_angle_alpha   89.99982456
_cell_angle_beta   89.99990171
_cell_angle_gamma   93.96426386
_symmetry_Int_Tables_number   1
_chemical_formula_structural   NdH13C3NCl3O5
_chemical_formula_sum   'Nd4 H52 C12 N4 Cl12 O20'
_cell_volume   1091.48375799
_cell_formula_units_Z   4
loop_
 _symmetry_equiv_pos_site_id
 _symmetry_equiv_pos_as_xyz
  1  'x, y, z'
loop_
 _atom_site_type_symbol
 _atom_site_label
 _atom_site_symmetry_multiplicity
 _atom_site_fract_x
 _atom_site_fract_y
 _atom_site_fract_z
 _atom_site_occupancy
 _atom_site_hle17_bader_spin_density
 _atom_site_hle17_ddec_charge
 _atom_site_hle17_ddec_spin_density
 _atom_site_hle17_ddec_sum_bond_order
 _atom_site_hle17_magmom
 _atom_site_hse06_10hf_bader_spin_density
 _atom_site_hse06_10hf_ddec_charge
 _atom_site_hse06_10hf_ddec_spin_density
 _atom_site_hse06_10hf_ddec_sum_bond_order
 _atom_site_hse06_10hf_magmom
 _atom_site_hse06_bader_spin_density
 _atom_site_hse06_ddec_charge
 _atom_site_hse06_ddec_spin_density
 _atom_site_hse06_ddec_sum_bond_order
 _atom_site_hse06_magmom
 _atom_site_pbe_bader_spin_density
 _atom_site_pbe_cm5_charge
 _atom_site_pbe_ddec_charge
 _atom_site_pbe_ddec_spin_density
 _atom_site_pbe_ddec_sum_bond_order
 _atom_site_pbe_magmom
Nd  Nd0  1  0.91500104  0.74939539  0.14597396  1  0  2.2493  0  1.632895  0  0  2.104791  0  2.082348  0  0  2.144294  0  2.036309  0  0  1.230675  2.07364  0  2.119584  0
Nd  Nd1  1  0.58499440  0.75060903  0.64597022  1  0  2.249258  0  1.632987  0  0  2.104714  0  2.082502  0  0  2.144224  0  2.036455  0  0  1.230681  2.073575  0  2.119729  0
Nd  Nd2  1  0.08500764  0.25060776  0.85403035  1  0  2.249323  0  1.632939  0  0  2.104834  0  2.082349  0  0  2.14435  0  2.036301  0  0  1.230673  2.073684  0  2.119594  0
Nd  Nd3  1  0.41500455  0.24939677  0.35402861  1  0  2.249243  0  1.632966  0  0  2.104737  0  2.082441  0  0  2.144245  0  2.036399  0  0  1.230685  2.07359  0  2.119677  0
H  H4  1  0.57706210  0.82794512  0.35748299  1  0  0.122413  0  0.939873  0  0  0.131678  0  1.007347  0  0  0.134544  0  1.006143  0  0  0.099581  0.129615  0  1.008267  0
H  H5  1  0.92293660  0.67205205  0.85747555  1  0  0.122543  0  0.939711  0  0  0.131822  0  1.007217  0  0  0.13469  0  1.00601  0  0  0.099649  0.12976  0  1.008139  0
H  H6  1  0.42294228  0.17204899  0.64252619  1  0  0.122479  0  0.939689  0  0  0.131734  0  1.007187  0  0  0.1346  0  1.005982  0  0  0.099644  0.129671  0  1.008107  0
H  H7  1  0.07706111  0.32794201  0.14251720  1  0  0.122487  0  0.939859  0  0  0.131742  0  1.007314  0  0  0.13461  0  1.006106  0  0  0.099613  0.129677  0  1.008236  0
H  H8  1  0.60903577  0.67201729  0.35238608  1  0  0.130616  0  0.922498  0  0  0.144711  0  0.980211  0  0  0.147317  0  0.979113  0  0  0.110457  0.142767  0  0.981158  0
H  H9  1  0.89095146  0.82798162  0.85238016  1  0  0.13069  0  0.922383  0  0  0.144799  0  0.98013  0  0  0.147412  0  0.979024  0  0  0.110474  0.142853  0  0.981077  0
H  H10  1  0.39095722  0.32797944  0.64762127  1  0  0.130683  0  0.92241  0  0  0.144781  0  0.98013  0  0  0.147396  0  0.979029  0  0  0.110477  0.142834  0  0.981077  0
H  H11  1  0.10904310  0.17201422  0.14761564  1  0  0.130604  0  0.92251  0  0  0.14468  0  0.98024  0  0  0.14729  0  0.979135  0  0  0.110431  0.142735  0  0.981186  0
H  H12  1  0.36809100  0.70710384  0.46785852  1  0  0.059933  0  0.972462  0  0  0.067942  0  1.050102  0  0  0.069618  0  1.048568  0  0  0.106796  0.066733  0  1.051193  0
H  H13  1  0.13189693  0.79289963  0.96785223  1  0  0.059963  0  0.972353  0  0  0.067943  0  1.05  0  0  0.06961  0  1.048483  0  0  0.106828  0.066734  0  1.051087  0
H  H14  1  0.63189254  0.29289824  0.53214640  1  0  0.059953  0  0.972352  0  0  0.067939  0  1.050018  0  0  0.069609  0  1.048496  0  0  0.106822  0.066731  0  1.051108  0
H  H15  1  0.86808910  0.20709435  0.03214600  1  0  0.060024  0  0.972347  0  0  0.067914  0  1.050079  0  0  0.069577  0  1.048571  0  0  0.106806  0.066706  0  1.051168  0
H  H16  1  0.20507664  0.62776794  0.39276231  1  0  0.079824  0  0.917073  0  0  0.091289  0  0.982732  0  0  0.092432  0  0.982456  0  0  0.106838  0.090319  0  0.98314  0
H  H17  1  0.29491629  0.87223229  0.89275331  1  0  0.079749  0  0.917086  0  0  0.091195  0  0.982759  0  0  0.092336  0  0.98248  0  0  0.10678  0.090223  0  0.98317  0
H  H18  1  0.79491525  0.37223419  0.60724322  1  0  0.079715  0  0.917104  0  0  0.091179  0  0.982767  0  0  0.092319  0  0.982488  0  0  0.106769  0.090206  0  0.983175  0
H  H19  1  0.70507326  0.12776351  0.10724552  1  0  0.079805  0  0.917078  0  0  0.091249  0  0.982738  0  0  0.092389  0  0.982462  0  0  0.106802  0.090276  0  0.983146  0
H  H20  1  0.00628534  0.78524941  0.44949634  1  0  0.330558  0  0.854363  0  0  0.309809  0  0.919982  0  0  0.316956  0  0.914768  0  0  0.299402  0.304666  0  0.923832  0
H  H21  1  0.49369934  0.71475412  0.94949485  1  0  0.330645  0  0.854407  0  0  0.30985  0  0.920068  0  0  0.316995  0  0.914854  0  0  0.299387  0.304708  0  0.923918  0
H  H22  1  0.99370564  0.21475993  0.55050249  1  0  0.330591  0  0.854346  0  0  0.309876  0  0.919907  0  0  0.317014  0  0.914701  0  0  0.299406  0.304734  0  0.923757  0
H  H23  1  0.50629236  0.28524621  0.05050398  1  0  0.330599  0  0.854355  0  0  0.309839  0  0.919986  0  0  0.316986  0  0.914771  0  0  0.299387  0.304697  0  0.923836  0
H  H24  1  0.20383938  0.89325350  0.42793451  1  0  0.325275  0  0.870057  0  0  0.30634  0  0.93206  0  0  0.313805  0  0.926848  0  0  0.289991  0.301022  0  0.935874  0
H  H25  1  0.29615357  0.60674838  0.92793521  1  0  0.325303  0  0.87007  0  0  0.306351  0  0.932084  0  0  0.313815  0  0.926871  0  0  0.289991  0.301033  0  0.935899  0
H  H26  1  0.79616114  0.10675140  0.57206432  1  0  0.325347  0  0.870021  0  0  0.306394  0  0.932043  0  0  0.31386  0  0.926831  0  0  0.290007  0.301075  0  0.93586  0
H  H27  1  0.70384962  0.39325022  0.07206363  1  0  0.325314  0  0.869994  0  0  0.306361  0  0.932021  0  0  0.313826  0  0.926809  0  0  0.289975  0.301044  0  0.935837  0
H  H28  1  0.06880636  0.81956070  0.35137582  1  0  0.329884  0  0.862482  0  0  0.308348  0  0.927303  0  0  0.316474  0  0.920594  0  0  0.310106  0.302578  0  0.932079  0
H  H29  1  0.43119308  0.68043616  0.85137505  1  0  0.329888  0  0.862521  0  0  0.308335  0  0.927355  0  0  0.316458  0  0.920649  0  0  0.310104  0.302563  0  0.932136  0
H  H30  1  0.93120045  0.18044064  0.64862363  1  0  0.32993  0  0.862469  0  0  0.308372  0  0.927312  0  0  0.316501  0  0.920598  0  0  0.310094  0.3026  0  0.93209  0
H  H31  1  0.56880677  0.31956242  0.14862561  1  0  0.329858  0  0.862533  0  0  0.308309  0  0.927372  0  0  0.316432  0  0.920665  0  0  0.310076  0.302536  0  0.93215  0
H  H32  1  0.21962546  0.56231469  0.06348593  1  0  0.434653  0  0.858395  0  0  0.405396  0  0.921884  0  0  0.415031  0  0.90783  0  0  0.277989  0.398472  0  0.93199  0
H  H33  1  0.28036787  0.93769066  0.56348167  1  0  0.434652  0  0.858219  0  0  0.405404  0  0.921825  0  0  0.415039  0  0.90777  0  0  0.277978  0.398484  0  0.931929  0
H  H34  1  0.78038025  0.43769205  0.93651717  1  0  0.434625  0  0.858287  0  0  0.405363  0  0.9219  0  0  0.415002  0  0.907839  0  0  0.27793  0.398438  0  0.932007  0
H  H35  1  0.71963570  0.06231156  0.43651595  1  0  0.43464  0  0.858391  0  0  0.405398  0  0.921859  0  0  0.415032  0  0.907808  0  0  0.277993  0.398475  0  0.931965  0
H  H36  1  0.36600547  0.65422835  0.12117299  1  0  0.434561  0  0.867287  0  0  0.401554  0  0.93537  0  0  0.412638  0  0.919161  0  0  0.297695  0.393705  0  0.946822  0
H  H37  1  0.13399162  0.84576774  0.62117145  1  0  0.434567  0  0.867314  0  0  0.401572  0  0.935381  0  0  0.412653  0  0.919173  0  0  0.297687  0.393724  0  0.946833  0
H  H38  1  0.63399930  0.34576936  0.87882828  1  0  0.434557  0  0.867322  0  0  0.401558  0  0.935401  0  0  0.412633  0  0.919197  0  0  0.297705  0.393709  0  0.946853  0
H  H39  1  0.86601648  0.15423000  0.37882677  1  0  0.434574  0  0.867287  0  0  0.401582  0  0.935364  0  0  0.412658  0  0.919158  0  0  0.297691  0.393732  0  0.946816  0
H  H40  1  0.73475059  0.51578732  0.24585969  1  0  0.439257  0  0.844886  0  0  0.409294  0  0.910844  0  0  0.418947  0  0.896699  0  0  0.292248  0.40211  0  0.921397  0
H  H41  1  0.76524367  0.98421032  0.74586021  1  0  0.439213  0  0.844895  0  0  0.409246  0  0.910906  0  0  0.418899  0  0.896762  0  0  0.292224  0.402061  0  0.92146  0
H  H42  1  0.26524769  0.48421215  0.75413854  1  0  0.439227  0  0.844953  0  0  0.40926  0  0.910898  0  0  0.418913  0  0.896755  0  0  0.292233  0.402075  0  0.921451  0
H  H43  1  0.23475657  0.01579188  0.25413741  1  0  0.439293  0  0.844852  0  0  0.409329  0  0.910798  0  0  0.418981  0  0.896656  0  0  0.292249  0.402146  0  0.921349  0
H  H44  1  0.00443681  0.51666779  0.24660364  1  0  0.43645  0  0.84418  0  0  0.408829  0  0.907753  0  0  0.41837  0  0.893765  0  0  0.289949  0.401764  0  0.918118  0
H  H45  1  0.49555630  0.98332770  0.74660340  1  0  0.436452  0  0.844157  0  0  0.408832  0  0.907745  0  0  0.418373  0  0.893759  0  0  0.289956  0.401767  0  0.91811  0
H  H46  1  0.99555933  0.48332716  0.75339458  1  0  0.436493  0  0.844143  0  0  0.408871  0  0.907706  0  0  0.418412  0  0.893717  0  0  0.289959  0.401805  0  0.918071  0
H  H47  1  0.50443687  0.01667083  0.25339239  1  0  0.436429  0  0.844254  0  0  0.408811  0  0.907792  0  0  0.418351  0  0.893805  0  0  0.289943  0.401745  0  0.918157  0
H  H48  1  0.19325272  0.97269917  0.06082651  1  0  0.428781  0  0.863175  0  0  0.402844  0  0.921937  0  0  0.41205  0  0.908613  0  0  0.278335  0.396277  0  0.931435  0
H  H49  1  0.30674143  0.52729808  0.56082432  1  0  0.428768  0  0.863163  0  0  0.40283  0  0.921944  0  0  0.412035  0  0.908621  0  0  0.278305  0.396263  0  0.931442  0
H  H50  1  0.80674555  0.02730030  0.93917476  1  0  0.428807  0  0.863124  0  0  0.402866  0  0.921902  0  0  0.412071  0  0.908577  0  0  0.278324  0.396298  0  0.9314  0
H  H51  1  0.69325518  0.47270139  0.43917452  1  0  0.428759  0  0.863197  0  0  0.402816  0  0.921975  0  0  0.412022  0  0.908649  0  0  0.278302  0.396248  0  0.931472  0
H  H52  1  0.37129161  0.88638267  0.08741161  1  0  0.429392  0  0.857716  0  0  0.401898  0  0.923615  0  0  0.411725  0  0.90917  0  0  0.283938  0.394889  0  0.933906  0
H  H53  1  0.12870908  0.61361450  0.58741240  1  0  0.429398  0  0.857729  0  0  0.401918  0  0.923582  0  0  0.411743  0  0.909138  0  0  0.283955  0.394909  0  0.933871  0
H  H54  1  0.62871020  0.11361863  0.91258662  1  0  0.429392  0  0.857718  0  0  0.4019  0  0.923611  0  0  0.411727  0  0.909166  0  0  0.283948  0.394891  0  0.9339  0
H  H55  1  0.87129263  0.38638590  0.41258705  1  0  0.429366  0  0.857787  0  0  0.40188  0  0.923645  0  0  0.411705  0  0.909202  0  0  0.283915  0.394869  0  0.933937  0
C  C56  1  0.40588405  0.73977189  0.25809738  1  0  0.784395  0  3.774468  0  0  0.742687  0  4.055474  0  0  0.777092  0  4.046225  0  0  0.238094  0.71899  0  4.061113  0
C  C57  1  0.09409899  0.76022348  0.75809910  1  0  0.78435  0  3.773928  0  0  0.742708  0  4.054879  0  0  0.777118  0  4.045631  0  0  0.238133  0.719008  0  4.060523  0
C  C58  1  0.59411886  0.26022400  0.74189780  1  0  0.784805  0  3.773198  0  0  0.743016  0  4.054287  0  0  0.777472  0  4.044962  0  0  0.238158  0.719315  0  4.059931  0
C  C59  1  0.90589909  0.23977419  0.24190278  1  0  0.784271  0  3.774229  0  0  0.742597  0  4.055165  0  0  0.776965  0  4.04599  0  0  0.238106  0.718914  0  4.06078  0
C  C60  1  0.48607346  0.74007484  0.34536397  1  0  -0.320642  0  3.658198  0  0  -0.359683  0  3.903909  0  0  -0.36715  0  3.912226  0  0  -0.163053  -0.354339  0  3.898031  0
C  C61  1  0.01391748  0.75992019  0.84535722  1  0  -0.320814  0  3.658198  0  0  -0.360011  0  3.904059  0  0  -0.367483  0  3.912366  0  0  -0.163104  -0.354668  0  3.89819  0
C  C62  1  0.51393297  0.25992288  0.65464826  1  0  -0.320839  0  3.65811  0  0  -0.359896  0  3.903919  0  0  -0.36738  0  3.912218  0  0  -0.163085  -0.354552  0  3.898045  0
C  C63  1  0.98607689  0.24007385  0.15463736  1  0  -0.320744  0  3.658438  0  0  -0.359717  0  3.903959  0  0  -0.367173  0  3.912281  0  0  -0.163045  -0.354378  0  3.898079  0
C  C64  1  0.29918567  0.71358152  0.40663716  1  0  0.110634  0  3.543998  0  0  0.048303  0  3.806094  0  0  0.053195  0  3.816359  0  0  -0.059795  0.045151  0  3.799007  0
C  C65  1  0.20079561  0.78641948  0.90662962  1  0  0.110814  0  3.54347  0  0  0.048634  0  3.805433  0  0  0.053537  0  3.815674  0  0  -0.059737  0.045484  0  3.79834  0
C  C66  1  0.70080307  0.28642240  0.59336837  1  0  0.110895  0  3.54329  0  0  0.048642  0  3.805284  0  0  0.053548  0  3.815523  0  0  -0.059688  0.045491  0  3.798195  0
C  C67  1  0.79919385  0.21357543  0.09336860  1  0  0.110743  0  3.543758  0  0  0.048578  0  3.805679  0  0  0.053478  0  3.815918  0  0  -0.0597  0.045428  0  3.79859  0
N  N68  1  0.13473866  0.80874972  0.40903076  1  0  -0.47756  0  3.1934  0  0  -0.423684  0  3.390005  0  0  -0.438649  0  3.387911  0  0  -0.604288  -0.413518  0  3.391959  0
N  N69  1  0.36525901  0.69124867  0.90902818  1  0  -0.477793  0  3.193388  0  0  -0.423854  0  3.389968  0  0  -0.438818  0  3.387869  0  0  -0.604286  -0.41369  0  3.391928  0
N  N70  1  0.86526157  0.19125247  0.59096990  1  0  -0.477808  0  3.193096  0  0  -0.423939  0  3.389667  0  0  -0.438898  0  3.387578  0  0  -0.604341  -0.413773  0  3.391625  0
N  N71  1  0.63473908  0.30874900  0.09097126  1  0  -0.477702  0  3.193205  0  0  -0.423808  0  3.389753  0  0  -0.438772  0  3.387653  0  0  -0.604281  -0.413643  0  3.39171  0
Cl  Cl72  1  0.75036966  0.58009802  0.02733218  1  0  -0.694585  0  0.847497  0  0  -0.64436  0  1.086091  0  0  -0.657579  0  1.06731  0  0  -0.32057  -0.634335  0  1.099779  0
Cl  Cl73  1  0.74963119  0.91990517  0.52733224  1  0  -0.694555  0  0.847522  0  0  -0.644325  0  1.086108  0  0  -0.657544  0  1.067329  0  0  -0.320562  -0.634299  0  1.099796  0
Cl  Cl74  1  0.24963381  0.41990329  0.97267091  1  0  -0.694565  0  0.847489  0  0  -0.644361  0  1.086074  0  0  -0.65758  0  1.067292  0  0  -0.320564  -0.634334  0  1.099762  0
Cl  Cl75  1  0.25037052  0.08009523  0.47266538  1  0  -0.694562  0  0.847517  0  0  -0.644342  0  1.086115  0  0  -0.657561  0  1.067328  0  0  -0.320557  -0.634318  0  1.099808  0
Cl  Cl76  1  0.70373903  0.88605831  0.02726127  1  0  -0.700802  0  0.811972  0  0  -0.648271  0  1.044857  0  0  -0.661887  0  1.025579  0  0  -0.31014  -0.637842  0  1.058729  0
Cl  Cl77  1  0.79626154  0.61394216  0.52726073  1  0  -0.700793  0  0.811978  0  0  -0.648262  0  1.044851  0  0  -0.661881  0  1.025577  0  0  -0.310144  -0.637832  0  1.058722  0
Cl  Cl78  1  0.29626249  0.11394028  0.97274000  1  0  -0.700832  0  0.812017  0  0  -0.648285  0  1.044866  0  0  -0.661904  0  1.025591  0  0  -0.310152  -0.637855  0  1.05874  0
Cl  Cl79  1  0.20373821  0.38605552  0.47273871  1  0  -0.700779  0  0.812009  0  0  -0.648243  0  1.044874  0  0  -0.661861  0  1.025598  0  0  -0.310122  -0.637814  0  1.058747  0
Cl  Cl80  1  0.85811799  0.95187717  0.24872206  1  0  -0.689407  0  0.792734  0  0  -0.638812  0  1.025476  0  0  -0.6523  0  1.006791  0  0  -0.310626  -0.628129  0  1.039079  0
Cl  Cl81  1  0.64188479  0.54812231  0.74871811  1  0  -0.689436  0  0.792752  0  0  -0.638796  0  1.025451  0  0  -0.652288  0  1.006773  0  0  -0.310619  -0.628111  0  1.039055  0
Cl  Cl82  1  0.14188558  0.04812504  0.75128286  1  0  -0.689409  0  0.792753  0  0  -0.638796  0  1.025491  0  0  -0.652286  0  1.006808  0  0  -0.310619  -0.628108  0  1.039097  0
Cl  Cl83  1  0.35811497  0.45187537  0.25127646  1  0  -0.689404  0  0.792746  0  0  -0.638821  0  1.025506  0  0  -0.652311  0  1.006825  0  0  -0.310633  -0.628136  0  1.039109  0
O  O84  1  0.53994236  0.72527660  0.19920876  1  0  -0.771981  0  2.116269  0  0  -0.71384  0  2.36937  0  0  -0.740548  0  2.358784  0  0  -0.40468  -0.694656  0  2.376219  0
O  O85  1  0.96004975  0.77473026  0.69919986  1  0  -0.771961  0  2.115957  0  0  -0.713823  0  2.369014  0  0  -0.740535  0  2.358434  0  0  -0.404724  -0.694635  0  2.375861  0
O  O86  1  0.46006317  0.27472833  0.80079981  1  0  -0.772093  0  2.115444  0  0  -0.713923  0  2.368568  0  0  -0.740642  0  2.357954  0  0  -0.404718  -0.694734  0  2.375414  0
O  O87  1  0.03995205  0.22527105  0.30079593  1  0  -0.771939  0  2.116181  0  0  -0.713816  0  2.369265  0  0  -0.740515  0  2.358701  0  0  -0.404723  -0.694636  0  2.376103  0
O  O88  1  0.20047371  0.75605697  0.24725453  1  0  -0.731433  0  2.085596  0  0  -0.667057  0  2.32951  0  0  -0.693043  0  2.319924  0  0  -0.408876  -0.64858  0  2.335851  0
O  O89  1  0.29953265  0.74393771  0.74724823  1  0  -0.731385  0  2.08519  0  0  -0.667029  0  2.329107  0  0  -0.693022  0  2.319527  0  0  -0.408862  -0.648546  0  2.335447  0
O  O90  1  0.79955432  0.24394000  0.75274978  1  0  -0.731707  0  2.085  0  0  -0.667304  0  2.328985  0  0  -0.693342  0  2.319396  0  0  -0.408931  -0.648823  0  2.335328  0
O  O91  1  0.70047936  0.25606547  0.25275060  1  0  -0.731317  0  2.085334  0  0  -0.666989  0  2.329266  0  0  -0.692962  0  2.319703  0  0  -0.408884  -0.648515  0  2.335598  0
O  O92  1  0.22599845  0.64261622  0.08924990  1  0  -0.924144  0  1.947807  0  0  -0.871063  0  2.145672  0  0  -0.890143  0  2.114776  0  0  -0.65518  -0.857292  0  2.167581  0
O  O93  1  0.27399222  0.85738087  0.58925190  1  0  -0.92416  0  1.9477  0  0  -0.871131  0  2.145716  0  0  -0.890207  0  2.114836  0  0  -0.655185  -0.857365  0  2.167604  0
O  O94  1  0.77399964  0.35738145  0.91074893  1  0  -0.924126  0  1.94768  0  0  -0.871071  0  2.145654  0  0  -0.890142  0  2.114784  0  0  -0.655157  -0.857297  0  2.167562  0
O  O95  1  0.72600577  0.14261589  0.41074632  1  0  -0.924141  0  1.947814  0  0  -0.871123  0  2.1457  0  0  -0.890193  0  2.114832  0  0  -0.655181  -0.857351  0  2.167607  0
O  O96  1  0.87519083  0.56189025  0.23104677  1  0  -0.908335  0  1.888784  0  0  -0.860327  0  2.079061  0  0  -0.876926  0  2.047931  0  0  -0.637138  -0.848141  0  2.101841  0
O  O97  1  0.62480694  0.93810838  0.73104686  1  0  -0.908285  0  1.888732  0  0  -0.860264  0  2.079058  0  0  -0.876864  0  2.047931  0  0  -0.63713  -0.848078  0  2.10184  0
O  O98  1  0.12481403  0.43810837  0.76895146  1  0  -0.908335  0  1.88877  0  0  -0.860331  0  2.079029  0  0  -0.876928  0  2.047898  0  0  -0.637147  -0.848141  0  2.101808  0
O  O99  1  0.37519682  0.06189564  0.26894649  1  0  -0.908334  0  1.888782  0  0  -0.860323  0  2.079017  0  0  -0.876922  0  2.047889  0  0  -0.63713  -0.848141  0  2.101798  0
O  O100  1  0.21520485  0.90496244  0.09823811  1  0  -0.907083  0  1.908443  0  0  -0.858656  0  2.092645  0  0  -0.876297  0  2.063148  0  0  -0.637764  -0.845912  0  2.113556  0
O  O101  1  0.28478930  0.59503644  0.59823823  1  0  -0.907069  0  1.908456  0  0  -0.858631  0  2.092653  0  0  -0.876272  0  2.063161  0  0  -0.637744  -0.845888  0  2.113564  0
O  O102  1  0.78479538  0.09503975  0.90176133  1  0  -0.907116  0  1.908363  0  0  -0.858707  0  2.092616  0  0  -0.876341  0  2.063104  0  0  -0.637773  -0.84596  0  2.113529  0
O  O103  1  0.71520926  0.40496574  0.40176061  1  0  -0.907038  0  1.908491  0  0  -0.8586  0  2.092686  0  0  -0.876243  0  2.063188  0  0  -0.637711  -0.845856  0  2.113596  0
