# generated using pymatgen
data_ZnH7C8NO5
_symmetry_space_group_name_H-M   'P 1'
_cell_length_a   8.23702665
_cell_length_b   8.90255318
_cell_length_c   11.73481389
_cell_angle_alpha   102.25804207
_cell_angle_beta   90.00004335
_cell_angle_gamma   90.00006893
_symmetry_Int_Tables_number   1
_chemical_formula_structural   ZnH7C8NO5
_chemical_formula_sum   'Zn4 H28 C32 N4 O20'
_cell_volume   840.90182904
_cell_formula_units_Z   4
loop_
 _symmetry_equiv_pos_site_id
 _symmetry_equiv_pos_as_xyz
  1  'x, y, z'
loop_
 _atom_site_type_symbol
 _atom_site_label
 _atom_site_symmetry_multiplicity
 _atom_site_fract_x
 _atom_site_fract_y
 _atom_site_fract_z
 _atom_site_occupancy
 _atom_site_hle17_bader_spin_density
 _atom_site_hle17_ddec_charge
 _atom_site_hle17_ddec_spin_density
 _atom_site_hle17_ddec_sum_bond_order
 _atom_site_hle17_magmom
 _atom_site_hse06_10hf_bader_spin_density
 _atom_site_hse06_10hf_ddec_charge
 _atom_site_hse06_10hf_ddec_spin_density
 _atom_site_hse06_10hf_ddec_sum_bond_order
 _atom_site_hse06_10hf_magmom
 _atom_site_hse06_bader_spin_density
 _atom_site_hse06_ddec_charge
 _atom_site_hse06_ddec_spin_density
 _atom_site_hse06_ddec_sum_bond_order
 _atom_site_hse06_magmom
 _atom_site_pbe_bader_spin_density
 _atom_site_pbe_cm5_charge
 _atom_site_pbe_ddec_charge
 _atom_site_pbe_ddec_spin_density
 _atom_site_pbe_ddec_sum_bond_order
 _atom_site_pbe_magmom
Zn  Zn0  1  0.96753559  0.72146269  0.59161892  1  0  1.115627  0  1.702196  0  0  0.93759  0  2.162665  0  0  0.984548  0  2.103638  0  0  0.691219  0.904493  0  2.203589  0
Zn  Zn1  1  0.46753256  0.77853800  0.90838096  1  0  1.115628  0  1.702211  0  0  0.937583  0  2.162668  0  0  0.984541  0  2.103646  0  0  0.691214  0.904488  0  2.203592  0
Zn  Zn2  1  0.03246600  0.27853665  0.40838084  1  0  1.115604  0  1.702219  0  0  0.937569  0  2.162676  0  0  0.984529  0  2.103656  0  0  0.691201  0.904467  0  2.203595  0
Zn  Zn3  1  0.53246417  0.22146365  0.09162001  1  0  1.115581  0  1.702196  0  0  0.937559  0  2.162667  0  0  0.984517  0  2.103644  0  0  0.691197  0.904459  0  2.203587  0
H  H4  1  0.86904354  0.57556087  0.39521426  1  0  0.323947  0  0.911808  0  0  0.307797  0  0.972195  0  0  0.315044  0  0.966882  0  0  0.297225  0.302619  0  0.97607  0
H  H5  1  0.36904159  0.92443845  0.10478649  1  0  0.32397  0  0.911788  0  0  0.307819  0  0.972174  0  0  0.315065  0  0.966863  0  0  0.297234  0.30264  0  0.97605  0
H  H6  1  0.13095926  0.42443733  0.60478618  1  0  0.323988  0  0.911757  0  0  0.307825  0  0.972164  0  0  0.315072  0  0.966845  0  0  0.297241  0.302647  0  0.976038  0
H  H7  1  0.63095636  0.07556321  0.89521534  1  0  0.323974  0  0.911788  0  0  0.307823  0  0.972181  0  0  0.315069  0  0.966865  0  0  0.29723  0.302644  0  0.976055  0
H  H8  1  0.74897477  0.54348968  0.49889626  1  0  0.322428  0  0.894318  0  0  0.305219  0  0.959454  0  0  0.312384  0  0.953575  0  0  0.301354  0.300038  0  0.963722  0
H  H9  1  0.24897396  0.95650831  0.00110250  1  0  0.322451  0  0.894313  0  0  0.305235  0  0.959453  0  0  0.3124  0  0.953573  0  0  0.301356  0.300054  0  0.963721  0
H  H10  1  0.25102561  0.45650964  0.50110264  1  0  0.322432  0  0.894322  0  0  0.305217  0  0.959459  0  0  0.312384  0  0.953579  0  0  0.301345  0.300037  0  0.963727  0
H  H11  1  0.75102399  0.04348987  0.99889623  1  0  0.322436  0  0.894325  0  0  0.30523  0  0.959461  0  0  0.312395  0  0.953581  0  0  0.301347  0.300049  0  0.96373  0
H  H12  1  0.84480434  0.83081817  0.32906328  1  0  0.115422  0  0.964503  0  0  0.125036  0  1.02825  0  0  0.128429  0  1.026329  0  0  0.109599  0.122661  0  1.029641  0
H  H13  1  0.34479970  0.66917768  0.17093691  1  0  0.115426  0  0.964533  0  0  0.125056  0  1.028255  0  0  0.12845  0  1.026333  0  0  0.109619  0.122681  0  1.029646  0
H  H14  1  0.15519968  0.16918003  0.67093715  1  0  0.115481  0  0.964478  0  0  0.125077  0  1.02824  0  0  0.12847  0  1.026316  0  0  0.109619  0.122702  0  1.029631  0
H  H15  1  0.65519703  0.33081938  0.82906421  1  0  0.115415  0  0.96453  0  0  0.125033  0  1.02828  0  0  0.128424  0  1.026359  0  0  0.109611  0.122658  0  1.029671  0
H  H16  1  0.34534022  0.97109173  0.32509364  1  0  0.109183  0  0.967551  0  0  0.117142  0  1.034477  0  0  0.120803  0  1.031669  0  0  0.10724  0.114476  0  1.036589  0
H  H17  1  0.84533338  0.52890754  0.17490537  1  0  0.109266  0  0.967414  0  0  0.117195  0  1.034371  0  0  0.12086  0  1.031567  0  0  0.107246  0.114529  0  1.036484  0
H  H18  1  0.65466501  0.02890413  0.67490303  1  0  0.109227  0  0.967446  0  0  0.117198  0  1.03436  0  0  0.120866  0  1.031557  0  0  0.10725  0.114532  0  1.036473  0
H  H19  1  0.15466093  0.47109409  0.82509389  1  0  0.10922  0  0.967539  0  0  0.117143  0  1.034512  0  0  0.120806  0  1.031705  0  0  0.107228  0.114478  0  1.036624  0
H  H20  1  0.48927434  0.64676568  0.53106647  1  0  0.121122  0  0.932945  0  0  0.132496  0  0.991213  0  0  0.13634  0  0.988292  0  0  0.113129  0.129857  0  0.993089  0
H  H21  1  0.98927067  0.85323276  0.96893393  1  0  0.121134  0  0.932965  0  0  0.132509  0  0.991229  0  0  0.136353  0  0.988308  0  0  0.11312  0.12987  0  0.993105  0
H  H22  1  0.51072968  0.35323252  0.46893397  1  0  0.121135  0  0.932977  0  0  0.132513  0  0.99124  0  0  0.136357  0  0.988318  0  0  0.113129  0.129875  0  0.993115  0
H  H23  1  0.01072607  0.14676776  0.03106772  1  0  0.121139  0  0.932907  0  0  0.132498  0  0.991183  0  0  0.136342  0  0.988262  0  0  0.113127  0.129859  0  0.993059  0
H  H24  1  0.04376559  0.95597131  0.72972506  1  0  0.431297  0  0.87364  0  0  0.398612  0  0.940111  0  0  0.4103  0  0.923424  0  0  0.289971  0.390191  0  0.952171  0
H  H25  1  0.54376737  0.54402883  0.77027536  1  0  0.431275  0  0.873655  0  0  0.398583  0  0.940137  0  0  0.410273  0  0.923448  0  0  0.289952  0.390162  0  0.952198  0
H  H26  1  0.95623236  0.04402804  0.27027555  1  0  0.431285  0  0.873658  0  0  0.398596  0  0.940135  0  0  0.410285  0  0.923446  0  0  0.289961  0.390175  0  0.952195  0
H  H27  1  0.45623301  0.45597282  0.22972561  1  0  0.431296  0  0.873639  0  0  0.398606  0  0.940119  0  0  0.410295  0  0.92343  0  0  0.289969  0.390185  0  0.95218  0
H  H28  1  0.91062749  0.00843429  0.64262526  1  0  0.433785  0  0.873752  0  0  0.399749  0  0.942727  0  0  0.411348  0  0.926148  0  0  0.289573  0.391513  0  0.954427  0
H  H29  1  0.41062711  0.49156659  0.85737476  1  0  0.433805  0  0.873716  0  0  0.399779  0  0.942674  0  0  0.411378  0  0.926095  0  0  0.289597  0.391545  0  0.954372  0
H  H30  1  0.08937289  0.99156505  0.35737450  1  0  0.433805  0  0.873727  0  0  0.399761  0  0.942717  0  0  0.411361  0  0.926136  0  0  0.289575  0.391525  0  0.954417  0
H  H31  1  0.58937206  0.50843392  0.14262689  1  0  0.433801  0  0.873732  0  0  0.399773  0  0.942694  0  0  0.411372  0  0.926115  0  0  0.28959  0.391537  0  0.954395  0
C  C32  1  0.67944976  0.72707804  0.43204546  1  0  0.277903  0  3.758935  0  0  0.283008  0  4.001892  0  0  0.286686  0  4.024749  0  0  0.08909  0.280103  0  3.986821  0
C  C33  1  0.17944879  0.77291989  0.06795496  1  0  0.277961  0  3.758836  0  0  0.283082  0  4.001754  0  0  0.286762  0  4.024607  0  0  0.089085  0.280177  0  3.986683  0
C  C34  1  0.32055304  0.27292245  0.56795448  1  0  0.277955  0  3.758865  0  0  0.28306  0  4.001809  0  0  0.286738  0  4.024664  0  0  0.089107  0.280155  0  3.986739  0
C  C35  1  0.82055159  0.22708062  0.93204669  1  0  0.277853  0  3.75862  0  0  0.282933  0  4.001632  0  0  0.286606  0  4.024484  0  0  0.089094  0.28003  0  3.986558  0
C  C36  1  0.71990249  0.82512021  0.35785857  1  0  -0.135372  0  3.65101  0  0  -0.170783  0  3.900887  0  0  -0.17084  0  3.919788  0  0  -0.079759  -0.170845  0  3.888384  0
C  C37  1  0.21990025  0.67487660  0.14214000  1  0  -0.135454  0  3.651008  0  0  -0.17086  0  3.900848  0  0  -0.170924  0  3.919767  0  0  -0.079806  -0.170921  0  3.888344  0
C  C38  1  0.28010032  0.17487796  0.64213931  1  0  -0.135517  0  3.651083  0  0  -0.170885  0  3.900909  0  0  -0.170954  0  3.919841  0  0  -0.079813  -0.170948  0  3.888408  0
C  C39  1  0.78009648  0.32512387  0.85785823  1  0  -0.135406  0  3.650947  0  0  -0.170806  0  3.900792  0  0  -0.170875  0  3.919733  0  0  -0.079811  -0.170869  0  3.88829  0
C  C40  1  0.59914657  0.91298421  0.31956201  1  0  -0.064061  0  3.77421  0  0  -0.039108  0  4.014989  0  0  -0.047844  0  4.038535  0  0  -0.020452  -0.033599  0  3.999143  0
C  C41  1  0.09913941  0.58701358  0.18043579  1  0  -0.063997  0  3.77432  0  0  -0.039068  0  4.015136  0  0  -0.047805  0  4.038681  0  0  -0.020465  -0.033559  0  3.999289  0
C  C42  1  0.40085987  0.08701280  0.68043483  1  0  -0.064001  0  3.774309  0  0  -0.039066  0  4.015118  0  0  -0.047802  0  4.038663  0  0  -0.020447  -0.033558  0  3.999272  0
C  C43  1  0.90085369  0.41298460  0.81956294  1  0  -0.06391  0  3.774176  0  0  -0.038927  0  4.014945  0  0  -0.047666  0  4.03849  0  0  -0.020398  -0.03342  0  3.999098  0
C  C44  1  0.43845025  0.90332697  0.35646668  1  0  -0.083826  0  3.709823  0  0  -0.124597  0  3.963801  0  0  -0.122959  0  3.984174  0  0  -0.081798  -0.125107  0  3.949678  0
C  C45  1  0.93844589  0.59667241  0.14353155  1  0  -0.083841  0  3.709894  0  0  -0.12458  0  3.963883  0  0  -0.122949  0  3.984264  0  0  -0.081753  -0.125089  0  3.94976  0
C  C46  1  0.56155255  0.09667118  0.64353034  1  0  -0.083848  0  3.709918  0  0  -0.124637  0  3.963914  0  0  -0.123012  0  3.984298  0  0  -0.081782  -0.12515  0  3.949787  0
C  C47  1  0.06155327  0.40332806  0.85646668  1  0  -0.083917  0  3.709901  0  0  -0.124682  0  3.963923  0  0  -0.123045  0  3.984298  0  0  -0.081774  -0.125196  0  3.949795  0
C  C48  1  0.39879636  0.80746926  0.43222090  1  0  -0.056394  0  3.788138  0  0  -0.031119  0  4.027235  0  0  -0.039887  0  4.051468  0  0  -0.018067  -0.025636  0  4.01076  0
C  C49  1  0.89879204  0.69252896  0.06777968  1  0  -0.056383  0  3.788102  0  0  -0.031114  0  4.027223  0  0  -0.039883  0  4.051458  0  0  -0.018027  -0.025633  0  4.010751  0
C  C50  1  0.60120766  0.19252779  0.56777936  1  0  -0.056335  0  3.78813  0  0  -0.031055  0  4.027229  0  0  -0.039823  0  4.051464  0  0  -0.018032  -0.025561  0  4.010739  0
C  C51  1  0.10120591  0.30747039  0.93222093  1  0  -0.056351  0  3.788141  0  0  -0.031104  0  4.02726  0  0  -0.039872  0  4.051491  0  0  -0.01807  -0.025609  0  4.010769  0
C  C52  1  0.52041059  0.72057621  0.47118953  1  0  -0.131919  0  3.643477  0  0  -0.166869  0  3.890379  0  0  -0.166401  0  3.907679  0  0  -0.076414  -0.166419  0  3.878259  0
C  C53  1  0.02040837  0.77942493  0.02880960  1  0  -0.132003  0  3.643436  0  0  -0.166975  0  3.890367  0  0  -0.166506  0  3.907662  0  0  -0.076442  -0.166524  0  3.878245  0
C  C54  1  0.47959221  0.27942657  0.52880991  1  0  -0.131986  0  3.643448  0  0  -0.166965  0  3.89039  0  0  -0.166496  0  3.907685  0  0  -0.076444  -0.16652  0  3.878266  0
C  C55  1  0.97958958  0.22057785  0.97118984  1  0  -0.13191  0  3.643409  0  0  -0.166821  0  3.890324  0  0  -0.166352  0  3.907623  0  0  -0.076392  -0.166377  0  3.878201  0
C  C56  1  0.63813817  0.01388957  0.23592767  1  0  0.662989  0  3.877633  0  0  0.606589  0  4.17452  0  0  0.641009  0  4.167193  0  0  0.214923  0.583145  0  4.179014  0
C  C57  1  0.13813404  0.48611315  0.26407275  1  0  0.662979  0  3.877832  0  0  0.606565  0  4.174741  0  0  0.640986  0  4.167414  0  0  0.214931  0.583121  0  4.179232  0
C  C58  1  0.36186464  0.98611089  0.76407056  1  0  0.662977  0  3.877856  0  0  0.606565  0  4.174753  0  0  0.640985  0  4.167428  0  0  0.214909  0.583122  0  4.179242  0
C  C59  1  0.86186148  0.51389078  0.73592772  1  0  0.662967  0  3.877674  0  0  0.606519  0  4.174621  0  0  0.64094  0  4.167293  0  0  0.214892  0.583077  0  4.17911  0
C  C60  1  0.22686782  0.79253687  0.46882710  1  0  0.646404  0  3.904013  0  0  0.592005  0  4.19861  0  0  0.625707  0  4.19286  0  0  0.207736  0.569121  0  4.201642  0
C  C61  1  0.72686470  0.70746455  0.03117218  1  0  0.646455  0  3.903884  0  0  0.592058  0  4.198495  0  0  0.625758  0  4.192743  0  0  0.207761  0.569171  0  4.201528  0
C  C62  1  0.77313620  0.20746247  0.53117266  1  0  0.646364  0  3.903995  0  0  0.591994  0  4.198558  0  0  0.625695  0  4.192809  0  0  0.207739  0.569106  0  4.20159  0
C  C63  1  0.27313203  0.29253594  0.96882776  1  0  0.646456  0  3.903949  0  0  0.592078  0  4.198527  0  0  0.625779  0  4.192777  0  0  0.207772  0.569188  0  4.201557  0
N  N64  1  0.80139178  0.63053459  0.46643806  1  0  -0.688143  0  3.167872  0  0  -0.625367  0  3.42406  0  0  -0.645163  0  3.415398  0  0  -0.606014  -0.611522  0  3.430325  0
N  N65  1  0.30139089  0.86946463  0.03356178  1  0  -0.688208  0  3.167831  0  0  -0.625415  0  3.423985  0  0  -0.645209  0  3.415318  0  0  -0.606031  -0.611568  0  3.430249  0
N  N66  1  0.19860981  0.36946475  0.53356171  1  0  -0.688171  0  3.167746  0  0  -0.625371  0  3.423903  0  0  -0.645165  0  3.415245  0  0  -0.606032  -0.611522  0  3.430161  0
N  N67  1  0.69860827  0.13053587  0.96643901  1  0  -0.688165  0  3.16773  0  0  -0.625404  0  3.423953  0  0  -0.645186  0  3.415276  0  0  -0.606049  -0.611554  0  3.430213  0
O  O68  1  0.78149937  0.03973592  0.20877854  1  0  -0.619739  0  1.986488  0  0  -0.564809  0  2.21493  0  0  -0.589522  0  2.205501  0  0  -0.304814  -0.547725  0  2.221346  0
O  O69  1  0.28149281  0.46026699  0.29122114  1  0  -0.619667  0  1.986688  0  0  -0.564737  0  2.215141  0  0  -0.589448  0  2.205711  0  0  -0.304758  -0.547662  0  2.221576  0
O  O70  1  0.21850465  0.96026570  0.79121986  1  0  -0.619696  0  1.986685  0  0  -0.564776  0  2.215134  0  0  -0.589486  0  2.205709  0  0  -0.304771  -0.547694  0  2.221553  0
O  O71  1  0.71850150  0.53973580  0.70877916  1  0  -0.619663  0  1.986542  0  0  -0.564733  0  2.215016  0  0  -0.589444  0  2.205588  0  0  -0.304766  -0.54765  0  2.221431  0
O  O72  1  0.51230394  0.06844688  0.19206723  1  0  -0.658992  0  2.078763  0  0  -0.574031  0  2.340221  0  0  -0.603165  0  2.32513  0  0  -0.320203  -0.55385  0  2.350219  0
O  O73  1  0.01230100  0.43155574  0.30793737  1  0  -0.659085  0  2.078728  0  0  -0.574086  0  2.340167  0  0  -0.60322  0  2.325074  0  0  -0.320268  -0.553904  0  2.350166  0
O  O74  1  0.48769765  0.93155365  0.80793527  1  0  -0.659064  0  2.078786  0  0  -0.574047  0  2.340201  0  0  -0.60318  0  2.325112  0  0  -0.320229  -0.553869  0  2.350201  0
O  O75  1  0.98769695  0.56844823  0.69206566  1  0  -0.659091  0  2.078752  0  0  -0.57405  0  2.34017  0  0  -0.603179  0  2.325069  0  0  -0.32022  -0.553873  0  2.35017  0
O  O76  1  0.11278785  0.86502680  0.43278377  1  0  -0.637859  0  2.020306  0  0  -0.579016  0  2.256321  0  0  -0.604941  0  2.248234  0  0  -0.308843  -0.560249  0  2.260818  0
O  O77  1  0.61278467  0.63497445  0.06721372  1  0  -0.637879  0  2.020321  0  0  -0.579024  0  2.25627  0  0  -0.604944  0  2.248183  0  0  -0.308853  -0.560269  0  2.260801  0
O  O78  1  0.88721617  0.13497253  0.56721514  1  0  -0.637865  0  2.0203  0  0  -0.579031  0  2.256282  0  0  -0.604954  0  2.248199  0  0  -0.308857  -0.560268  0  2.260792  0
O  O79  1  0.38721328  0.36502604  0.93278622  1  0  -0.637879  0  2.02032  0  0  -0.579035  0  2.256275  0  0  -0.604957  0  2.24819  0  0  -0.308858  -0.560275  0  2.260791  0
O  O80  1  0.20002923  0.70088738  0.53857435  1  0  -0.650764  0  2.04252  0  0  -0.574242  0  2.305186  0  0  -0.602681  0  2.29158  0  0  -0.321901  -0.554409  0  2.314028  0
O  O81  1  0.70002791  0.79911638  0.96142331  1  0  -0.650808  0  2.04248  0  0  -0.574274  0  2.305124  0  0  -0.602717  0  2.291532  0  0  -0.321926  -0.554441  0  2.313971  0
O  O82  1  0.79997236  0.29911311  0.46142559  1  0  -0.650726  0  2.042545  0  0  -0.57421  0  2.305196  0  0  -0.602647  0  2.291587  0  0  -0.32188  -0.554377  0  2.314038  0
O  O83  1  0.29997126  0.20088525  0.03857596  1  0  -0.650818  0  2.042508  0  0  -0.574278  0  2.305138  0  0  -0.60272  0  2.291538  0  0  -0.321924  -0.554446  0  2.313983  0
O  O84  1  0.93552180  0.92837124  0.68998662  1  0  -0.833037  0  1.885581  0  0  -0.755337  0  2.100962  0  0  -0.779227  0  2.062344  0  0  -0.5728  -0.738882  0  2.128504  0
O  O85  1  0.43552204  0.57162713  0.81001459  1  0  -0.833031  0  1.885568  0  0  -0.755332  0  2.100943  0  0  -0.779222  0  2.062323  0  0  -0.572798  -0.738877  0  2.128485  0
O  O86  1  0.06447736  0.07162811  0.31001399  1  0  -0.83304  0  1.885581  0  0  -0.755332  0  2.100977  0  0  -0.779225  0  2.062357  0  0  -0.572787  -0.738875  0  2.128513  0
O  O87  1  0.56447834  0.42837223  0.18998688  1  0  -0.833024  0  1.885611  0  0  -0.755319  0  2.100973  0  0  -0.779212  0  2.062356  0  0  -0.572779  -0.738861  0  2.128516  0
