# generated using pymatgen
data_Cu3H24C20N8O5
_symmetry_space_group_name_H-M   'P 1'
_cell_length_a   11.22642431
_cell_length_b   11.14413012
_cell_length_c   12.08899199
_cell_angle_alpha   89.75458253
_cell_angle_beta   63.23931327
_cell_angle_gamma   67.24628851
_symmetry_Int_Tables_number   1
_chemical_formula_structural   Cu3H24C20N8O5
_chemical_formula_sum   'Cu6 H48 C40 N16 O10'
_cell_volume   1218.56314365
_cell_formula_units_Z   2
loop_
 _symmetry_equiv_pos_site_id
 _symmetry_equiv_pos_as_xyz
  1  'x, y, z'
loop_
 _atom_site_type_symbol
 _atom_site_label
 _atom_site_symmetry_multiplicity
 _atom_site_fract_x
 _atom_site_fract_y
 _atom_site_fract_z
 _atom_site_occupancy
 _atom_site_pbe_bader_charge
 _atom_site_pbe_bader_spin_density
 _atom_site_pbe_cm5_charge
 _atom_site_pbe_ddec_charge
 _atom_site_pbe_ddec_spin_density
 _atom_site_pbe_ddec_sum_bond_order
 _atom_site_pbe_magmom
Cu  Cu0  1  0.46635234  0.93102338  0.39275334  1  1.049843  0.518981  0.732254  0.764418  0.652775  2.286773  0.518
Cu  Cu1  1  0.53496650  0.06902636  0.60593978  1  1.05149  -0.519589  0.732098  0.764692  -0.648486  2.290738  -0.518
Cu  Cu2  1  0.45024924  0.07565904  0.15036020  1  1.039159  0.51018  0.740442  0.750719  0.642419  2.364276  0.507
Cu  Cu3  1  0.55013945  0.92586588  0.85158405  1  1.05559  0.427815  0.758426  0.775342  0.539555  2.396162  0.425
Cu  Cu4  1  0.13960837  0.14017363  0.42810612  1  1.040796  -0.431623  0.77471  0.702342  -0.544705  2.417441  -0.43
Cu  Cu5  1  0.85882012  0.85937055  0.57058135  1  1.030461  -0.510577  0.75363  0.681133  -0.643123  2.386172  -0.509
H  H6  1  0.04050042  0.39201097  0.57245426  1  0.537956  -0.000524  0.321816  0.268762  -0.000417  0.995988  0.0
H  H7  1  0.96138824  0.60588962  0.42563599  1  0.544239  9.9e-05  0.322137  0.267631  0.000253  0.993332  0.0
H  H8  1  0.72206587  0.36785738  0.86885867  1  0.094394  6.7e-05  0.09283  0.084318  5.7e-05  1.038942  0.0
H  H9  1  0.28016572  0.63119332  0.13020218  1  0.08437  6.3e-05  0.093024  0.084453  5.9e-05  1.03892  0.0
H  H10  1  0.92687826  0.06663258  0.67643223  1  0.129275  0.000703  0.111111  0.102388  0.00048  1.064299  0.0
H  H11  1  0.07281360  0.93358721  0.32162804  1  0.134281  -0.000654  0.110957  0.101841  -0.000184  1.063083  -0.001
H  H12  1  0.05210078  0.87123788  0.78277174  1  0.097936  0.000125  0.10374  0.131401  7e-05  1.01642  0.0
H  H13  1  0.94656126  0.12901840  0.21599648  1  0.088098  -0.001671  0.103504  0.131072  -0.000824  1.017178  -0.001
H  H14  1  0.35176202  0.79449537  0.63255411  1  0.085741  -0.000755  0.115854  0.109152  -0.000436  0.993579  0.0
H  H15  1  0.64738699  0.20716257  0.36752050  1  0.079365  -0.000941  0.115967  0.109302  -0.000406  0.992972  -0.001
H  H16  1  0.58651299  0.48667871  0.70462542  1  0.043867  -0.001059  0.108566  0.133744  -0.000504  1.019127  -0.001
H  H17  1  0.41484496  0.51134482  0.29476641  1  0.138865  -0.001106  0.108066  0.133685  -0.000535  1.020757  -0.001
H  H18  1  0.77378761  0.22799481  0.57054641  1  0.135232  -0.000291  0.124222  0.116035  -4.9e-05  1.025124  0.0
H  H19  1  0.22711872  0.77012614  0.42882930  1  0.127417  -0.000422  0.123454  0.115403  -0.000136  1.023211  0.0
H  H20  1  0.30325238  0.27566602  0.00881141  1  0.1142  -0.000698  0.116614  0.108587  -0.000393  1.025033  0.0
H  H21  1  0.69677031  0.72994634  0.99399013  1  0.091845  -0.000652  0.116158  0.109237  -0.00035  1.025143  0.0
H  H22  1  0.77641766  0.59012315  0.69980070  1  0.160141  -0.000713  0.124931  0.117208  -0.000342  1.046559  0.0
H  H23  1  0.22541315  0.40798207  0.29861337  1  0.145127  -0.000778  0.124295  0.115642  -0.000376  1.051528  0.0
H  H24  1  0.81828341  0.82300036  0.28728143  1  0.092376  0.000884  0.114936  0.106826  0.000366  1.016396  0.001
H  H25  1  0.18279380  0.17393496  0.71197132  1  0.076603  0.000605  0.11474  0.106157  0.000355  1.019233  0.0
H  H26  1  0.00186390  0.43077739  0.13056410  1  0.065521  -3.9e-05  0.1007  0.122101  -2.3e-05  1.024672  0.0
H  H27  1  0.99699067  0.56993527  0.87043467  1  0.064815  -0.000222  0.100636  0.122405  -0.000112  1.025485  0.0
H  H28  1  0.79372917  0.99581529  0.97318605  1  0.090622  0.00084  0.115523  0.110386  0.000358  1.007488  0.001
H  H29  1  0.20754596  0.00775451  0.02876987  1  0.094016  -0.000606  0.115241  0.110624  -0.000347  1.009338  0.0
H  H30  1  0.47040368  0.37437919  0.03952977  1  0.081038  -9.4e-05  0.105836  0.125396  -4.1e-05  0.984839  0.0
H  H31  1  0.53088607  0.62592513  0.95953284  1  0.064161  -0.000106  0.106565  0.126604  -4.5e-05  0.983552  0.0
H  H32  1  0.56805044  0.26221975  0.10559642  1  0.060287  -0.000225  0.098537  0.1043  -0.000132  1.011855  0.0
H  H33  1  0.43269732  0.73772063  0.89356649  1  0.055831  -0.000224  0.099088  0.104429  -0.000138  1.01095  0.0
H  H34  1  0.99178948  0.85869887  0.05500736  1  0.136226  0.001308  0.098061  0.122545  0.000658  1.046946  0.001
H  H35  1  0.00898914  0.14082613  0.94594652  1  0.079594  -0.000196  0.097736  0.122089  -0.000107  1.046557  0.0
H  H36  1  0.90644075  0.35836703  0.36362126  1  0.117703  0.000455  0.111231  0.092334  0.000291  1.059064  0.0
H  H37  1  0.09196589  0.63778056  0.63501932  1  0.086281  0.000529  0.111244  0.092412  0.000325  1.060166  0.0
H  H38  1  0.47081887  0.65989637  0.42101640  1  0.069613  -8.7e-05  0.093358  0.080228  -5.3e-05  1.039999  0.0
H  H39  1  0.52788740  0.34059983  0.57951258  1  0.03321  0.000117  0.093582  0.080717  7.6e-05  1.039463  0.0
H  H40  1  0.80463182  0.57916272  0.31409289  1  0.070674  -0.000129  0.10204  0.12077  -4.6e-05  1.00028  0.0
H  H41  1  0.19415417  0.42040843  0.68712390  1  0.067042  0.000187  0.102699  0.12175  9.2e-05  0.999176  0.0
H  H42  1  0.69002917  0.54659467  0.45609314  1  0.073977  0.000444  0.09885  0.118773  0.000238  0.99705  0.0
H  H43  1  0.30807453  0.45394292  0.54535176  1  0.048708  -0.000351  0.098995  0.119222  -0.000184  0.997261  0.0
H  H44  1  0.72648067  0.62156052  0.15558475  1  0.055638  -0.000113  0.092529  0.132303  -6e-05  1.018313  0.0
H  H45  1  0.27318390  0.37738090  0.84499286  1  0.051565  -2e-05  0.092789  0.132533  -2.9e-05  1.018469  0.0
H  H46  1  0.53340593  0.65498416  0.19869215  1  0.090291  -2.5e-05  0.092875  0.137605  -3.9e-05  1.051527  0.0
H  H47  1  0.46632231  0.34417654  0.80151059  1  0.08771  0.0  0.092611  0.137219  -7e-06  1.05102  0.0
H  H48  1  0.74043208  0.34156025  0.11618248  1  0.065971  -8.2e-05  0.090131  0.130635  -5e-05  1.017815  0.0
H  H49  1  0.25962889  0.65894264  0.88388684  1  0.044579  -3.6e-05  0.090537  0.131308  -3.1e-05  1.017041  0.0
H  H50  1  0.84711154  0.40188741  0.97922692  1  0.049967  -3.3e-05  0.089842  0.127344  -2.1e-05  1.034432  0.0
H  H51  1  0.15399632  0.59781137  0.02069493  1  0.059715  -1.5e-05  0.090478  0.128178  -1.8e-05  1.033276  0.0
H  H52  1  0.33769945  0.94035041  0.26619145  1  0.634721  -0.000413  0.272663  0.336844  0.000488  1.024004  0.0
H  H53  1  0.66053025  0.05993894  0.73497649  1  0.638863  0.000817  0.272123  0.336014  7.3e-05  1.025349  0.001
C  C54  1  0.69491718  0.34566262  0.96304290  1  -0.055097  -0.000218  -0.098676  0.016317  -9e-05  4.009307  0.0
C  C55  1  0.30653914  0.65390026  0.03626926  1  -0.115919  -7.6e-05  -0.098771  0.016443  -7e-06  4.008929  0.0
C  C56  1  0.67590353  0.74060666  0.47068350  1  1.57479  0.000739  0.212939  0.638289  0.001673  4.123569  0.0
C  C57  1  0.32310244  0.25972455  0.52984283  1  1.551641  -0.000139  0.213717  0.641425  -0.001266  4.123009  0.0
C  C58  1  0.04265324  0.00448910  0.64569379  1  0.376735  -0.000513  -0.003517  -0.028278  -0.000461  4.022085  -0.001
C  C59  1  0.95687778  0.99605873  0.35317314  1  0.366564  -0.002564  -0.005242  -0.028256  -0.00289  4.031593  -0.005
C  C60  1  0.60396529  0.18217466  0.92558630  1  1.556874  -0.001488  0.218508  0.630007  6.3e-05  4.106458  -0.002
C  C61  1  0.39660256  0.81794524  0.07361006  1  1.548595  -0.001401  0.219038  0.628511  5.2e-05  4.106734  -0.001
C  C62  1  0.10756483  0.90637583  0.69955403  1  -0.07273  0.000708  -0.125073  -0.215912  0.000481  4.047228  0.0
C  C63  1  0.89149340  0.09426480  0.29963737  1  -0.058079  -0.004287  -0.126356  -0.217888  -0.002929  4.051079  -0.003
C  C64  1  0.25953420  0.86503399  0.62340119  1  0.395987  0.000253  0.000748  -0.006111  0.000451  4.01989  0.001
C  C65  1  0.73960614  0.13630802  0.37651768  1  0.400714  -0.003269  -0.001162  -0.006292  -0.003379  4.021104  -0.005
C  C66  1  0.70606586  0.43787122  0.65998758  1  -0.000186  -0.00296  -0.11617  -0.228163  -0.001971  4.008136  -0.002
C  C67  1  0.29530165  0.56024662  0.33905911  1  -0.06879  -0.003134  -0.117297  -0.230983  -0.002074  4.013022  -0.002
C  C68  1  0.79990468  0.30565579  0.59262291  1  0.47529  -0.000278  0.025113  0.021714  -0.000724  3.962362  -0.001
C  C69  1  0.20116047  0.69247636  0.40647771  1  0.416215  -0.000658  0.02422  0.020329  -0.001004  3.964615  -0.002
C  C70  1  0.21996870  0.28373085  0.10388444  1  0.374696  0.000678  0.000494  -0.003382  0.000615  4.015622  0.001
C  C71  1  0.77961381  0.71938069  0.89791916  1  0.50562  5e-06  0.000239  -0.005459  3.7e-05  4.019862  0.0
C  C72  1  0.79902449  0.49176830  0.66039923  1  0.365232  -0.000371  0.026536  0.015176  -0.000605  3.928052  -0.001
C  C73  1  0.20252229  0.50634906  0.33825217  1  0.392293  -0.000224  0.025408  0.014872  -0.000505  3.931708  -0.001
C  C74  1  0.78625661  0.86908565  0.21990040  1  0.402673  0.003339  -0.000575  0.006538  0.003351  3.994887  0.005
C  C75  1  0.21451733  0.12928515  0.77998325  1  0.404502  0.00037  -8.4e-05  0.006051  6e-05  3.99252  0.0
C  C76  1  0.06716477  0.36142701  0.16688856  1  -0.095288  0.000675  -0.131755  -0.233908  0.000459  4.057843  0.0
C  C77  1  0.93188549  0.63931182  0.83395528  1  -0.105535  -0.000389  -0.132504  -0.235608  -0.000328  4.060259  0.0
C  C78  1  0.77394673  0.96068076  0.06069944  1  0.39545  0.002202  -0.005233  -0.004996  0.002698  4.024607  0.004
C  C79  1  0.22686808  0.04138971  0.94067134  1  0.336901  0.000395  -0.004146  -0.00641  0.00031  4.020212  0.0
C  C80  1  0.57967619  0.29428780  0.01658778  1  -0.062841  0.00023  -0.162625  -0.316347  -2.4e-05  3.982563  0.0
C  C81  1  0.42140362  0.70569025  0.98253586  1  -0.044843  0.00033  -0.162836  -0.316702  7.3e-05  3.986533  0.0
C  C82  1  0.87351983  0.88925929  0.10196723  1  -0.104789  0.004896  -0.131396  -0.227638  0.003262  4.060694  0.004
C  C83  1  0.12722303  0.11050722  0.89874189  1  0.009149  -0.000545  -0.131209  -0.227291  -0.000316  4.059119  0.0
C  C84  1  0.01723338  0.32564513  0.28489695  1  0.430695  0.001125  -0.003307  -0.017164  0.000603  4.036973  0.001
C  C85  1  0.98151622  0.67282120  0.71479702  1  0.354564  0.000457  -0.004008  -0.0176  0.000108  4.038127  0.0
C  C86  1  0.58281537  0.64165588  0.34967979  1  -0.139474  -9.9e-05  -0.110819  -0.029759  -6.3e-05  4.082368  0.0
C  C87  1  0.41610111  0.35842830  0.65101478  1  -0.09201  -1e-05  -0.110533  -0.029616  1.4e-05  4.083512  -0.001
C  C88  1  0.69181221  0.62022231  0.39482029  1  -0.058473  0.000402  -0.168006  -0.310888  0.000152  3.975147  0.0
C  C89  1  0.30682416  0.37992177  0.60619501  1  -0.0509  -0.000144  -0.168358  -0.312141  3e-05  3.976491  0.0
C  C90  1  0.61575542  0.63826260  0.22843273  1  -0.099276  0.000257  -0.184603  -0.326876  9e-05  3.907691  0.0
C  C91  1  0.38369209  0.36118340  0.77206622  1  -0.085884  -0.000361  -0.184397  -0.32599  -0.000221  3.908162  0.0
C  C92  1  0.76390862  0.36394870  0.02249002  1  -0.162883  0.000934  -0.189175  -0.330811  0.000609  3.915722  0.001
C  C93  1  0.23697388  0.63595462  0.97724685  1  -0.076107  0.000895  -0.188692  -0.330621  0.000572  3.913266  0.001
N  N94  1  0.15113111  0.01837553  0.54278770  1  -0.740649  -0.059245  -0.302611  -0.193363  -0.039256  3.680289  -0.053
N  N95  1  0.84932700  0.98213620  0.45674531  1  -0.748032  -0.074298  -0.308404  -0.203522  -0.048476  3.669303  -0.064
N  N96  1  0.64330081  0.92500327  0.24716085  1  -0.738709  0.068611  -0.303074  -0.195883  0.045013  3.627156  0.058
N  N97  1  0.35733894  0.07463342  0.75331236  1  -0.736389  -0.063669  -0.296914  -0.189762  -0.042417  3.635386  -0.056
N  N98  1  0.93819130  0.39493496  0.59658079  1  -0.855997  -0.003658  -0.284134  -0.088698  -0.001915  3.690175  -0.002
N  N99  1  0.06331855  0.60327024  0.40189388  1  -0.851085  -0.002334  -0.28557  -0.089283  -0.001099  3.694753  -0.001
N  N100  1  0.28349593  0.93320768  0.52896346  1  -0.73722  0.067278  -0.30173  -0.197353  0.045246  3.660943  0.059
N  N101  1  0.71566349  0.06849301  0.47123652  1  -0.753214  -0.070848  -0.307091  -0.202982  -0.04612  3.648976  -0.06
N  N102  1  0.94079601  0.28107342  0.55465272  1  -0.722594  -0.063267  -0.273063  -0.176182  -0.042436  3.5307  -0.056
N  N103  1  0.06034703  0.71718523  0.44415259  1  -0.716867  -0.07054  -0.271602  -0.175911  -0.047392  3.518079  -0.063
N  N104  1  0.13371994  0.23237754  0.29066679  1  -0.741391  -0.055653  -0.298052  -0.184391  -0.037054  3.651095  -0.05
N  N105  1  0.86566021  0.76693278  0.70897329  1  -0.733902  -0.065632  -0.297491  -0.186756  -0.043981  3.644894  -0.058
N  N106  1  0.63557541  0.98207012  0.14911071  1  -0.759738  0.066469  -0.312994  -0.21645  0.043362  3.671571  0.056
N  N107  1  0.36497382  0.02024250  0.85147141  1  -0.733359  0.052143  -0.306677  -0.206881  0.034758  3.678478  0.046
N  N108  1  0.25771789  0.20744646  0.18041441  1  -0.75473  0.058776  -0.302929  -0.195165  0.039536  3.65752  0.052
N  N109  1  0.74221780  0.79459512  0.82056736  1  -0.755031  0.049274  -0.303098  -0.193127  0.033027  3.661961  0.044
O  O110  1  0.57417810  0.85678877  0.49227319  1  -1.141085  0.075119  -0.316893  -0.555604  0.047905  2.435067  0.068
O  O111  1  0.42441870  0.14345700  0.50862269  1  -1.137728  -0.074285  -0.317282  -0.55683  -0.0471  2.437364  -0.067
O  O112  1  0.67300215  0.17306235  0.80765006  1  -1.170427  0.013658  -0.299148  -0.512241  0.008649  2.197115  0.012
O  O113  1  0.32809942  0.82665062  0.19142981  1  -1.158127  0.013599  -0.296678  -0.508453  0.008411  2.197362  0.012
O  O114  1  0.54675979  0.10172164  0.97304063  1  -1.148811  0.083579  -0.329465  -0.57236  0.05342  2.496716  0.078
O  O115  1  0.45261541  0.89944637  0.02667945  1  -1.144259  0.074369  -0.327563  -0.569308  0.047435  2.500117  0.069
O  O116  1  0.76857346  0.71764769  0.50921804  1  -1.199471  0.015071  -0.321413  -0.581727  0.009319  2.290341  0.012
O  O117  1  0.23120091  0.28274070  0.49040851  1  -1.177322  -0.012949  -0.321444  -0.584885  -0.008094  2.289394  -0.012
O  O118  1  0.34449046  0.01612937  0.30727517  1  -1.06728  0.113766  -0.550368  -0.732882  0.072246  2.462845  0.104
O  O119  1  0.64977139  0.98498841  0.69700943  1  -1.069667  -0.120244  -0.549729  -0.733147  -0.076134  2.460472  -0.11
