# generated using pymatgen
data_ZnH20C20N4O5
_symmetry_space_group_name_H-M   'P 1'
_cell_length_a   9.89953926
_cell_length_b   10.72296092
_cell_length_c   11.93269860
_cell_angle_alpha   75.51918892
_cell_angle_beta   66.80563736
_cell_angle_gamma   86.74669394
_symmetry_Int_Tables_number   1
_chemical_formula_structural   ZnH20C20N4O5
_chemical_formula_sum   'Zn2 H40 C40 N8 O10'
_cell_volume   1126.07493261
_cell_formula_units_Z   2
loop_
 _symmetry_equiv_pos_site_id
 _symmetry_equiv_pos_as_xyz
  1  'x, y, z'
loop_
 _atom_site_type_symbol
 _atom_site_label
 _atom_site_symmetry_multiplicity
 _atom_site_fract_x
 _atom_site_fract_y
 _atom_site_fract_z
 _atom_site_occupancy
 _atom_site_pbe_bader_charge
 _atom_site_pbe_bader_spin_density
 _atom_site_pbe_cm5_charge
 _atom_site_pbe_ddec_charge
 _atom_site_pbe_ddec_spin_density
 _atom_site_pbe_ddec_sum_bond_order
 _atom_site_pbe_magmom
Zn  Zn0  1  0.93664546  0.62515323  0.27373360  1  1.255725  0  0.708714  0.790704  0  2.422005  0
Zn  Zn1  1  0.06334711  0.37484848  0.72626961  1  1.255705  0  0.708694  0.790639  0  2.422092  0
H  H2  1  0.18941085  0.51720189  0.86953271  1  0.181313  0  0.144046  0.115264  0  0.992276  0
H  H3  1  0.81057291  0.48280526  0.13047377  1  0.181466  0  0.14404  0.11527  0  0.992334  0
H  H4  1  0.88186428  0.09562199  0.35211161  1  0.110434  0  0.117225  0.129179  0  1.008587  0
H  H5  1  0.11814348  0.90437818  0.64789308  1  0.110281  0  0.117182  0.129139  0  1.008559  0
H  H6  1  0.38283111  0.63425580  0.14891414  1  0.098613  0  0.114674  0.127221  0  1.014905  0
H  H7  1  0.61716573  0.36576222  0.85109275  1  0.098904  0  0.114569  0.127114  0  1.014986  0
H  H8  1  0.00912212  0.32965758  0.29018484  1  0.208069  0  0.13891  0.118927  0  1.035307  0
H  H9  1  0.99086929  0.67034309  0.70982061  1  0.207902  0  0.138885  0.118883  0  1.035318  0
H  H10  1  0.43984114  0.18795467  0.92058413  1  0.150846  0  0.123666  0.123872  0  1.039933  0
H  H11  1  0.56015067  0.81206258  0.07940939  1  0.150589  0  0.123614  0.123758  0  1.040038  0
H  H12  1  0.25129551  0.14272508  0.81133489  1  0.164636  0  0.125705  0.128261  0  1.026154  0
H  H13  1  0.74867679  0.85728324  0.18868998  1  0.164309  0  0.125699  0.1282  0  1.026215  0
H  H14  1  0.74646344  0.24523188  0.68203397  1  0.125425  0  0.131015  0.133298  0  0.992971  0
H  H15  1  0.25354978  0.75476940  0.31797049  1  0.125511  0  0.131023  0.133327  0  0.992979  0
H  H16  1  0.72367702  0.50293053  0.57181680  1  0.125454  0  0.122002  0.118039  0  1.017324  0
H  H17  1  0.27633708  0.49707635  0.42819460  1  0.125574  0  0.122008  0.118061  0  1.017226  0
H  H18  1  0.59061725  0.95089705  0.89573269  1  0.602544  0  0.306818  0.334755  0  0.940841  0
H  H19  1  0.40939353  0.04910383  0.10424493  1  0.602333  0  0.306836  0.334715  0  0.940852  0
H  H20  1  0.44203261  0.78385723  0.87964265  1  0.024611  0  0.086116  0.022579  0  0.983325  0
H  H21  1  0.55798963  0.21612443  0.12035049  1  0.024648  0  0.086151  0.022577  0  0.983277  0
H  H22  1  0.71469386  0.78985127  0.79582586  1  0.024343  0  0.083197  0.080451  0  1.002901  0
H  H23  1  0.28532108  0.21013330  0.20415721  1  0.028481  0  0.083218  0.080427  0  1.002972  0
H  H24  1  0.72327510  0.91673918  0.66490580  1  -0.006787  0  0.082646  0.079814  0  1.029295  0
H  H25  1  0.27673771  0.08325303  0.33507634  1  -0.006806  0  0.08264  0.079729  0  1.029282  0
H  H26  1  0.76468019  0.70637797  0.60532158  1  0.049498  0  0.08372  0.080315  0  1.035033  0
H  H27  1  0.23532939  0.29361132  0.39465881  1  0.049654  0  0.083686  0.080213  0  1.034963  0
H  H28  1  0.59464597  0.64164651  0.72776957  1  0.002535  0  0.076641  0.064924  0  1.023811  0
H  H29  1  0.40536875  0.35834268  0.27222099  1  0.002559  0  0.076585  0.064852  0  1.023803  0
H  H30  1  0.47866655  0.01047060  0.65468078  1  0.032874  0  0.088991  0.088061  0  0.992483  0
H  H31  1  0.52133062  0.98951229  0.34531316  1  0.032387  0  0.089033  0.088118  0  0.992554  0
H  H32  1  0.30959224  0.94206451  0.77688356  1  0.059843  0  0.096411  0.106074  0  0.978631  0
H  H33  1  0.69040473  0.05790960  0.22311645  1  0.059778  0  0.09646  0.106138  0  0.978655  0
H  H34  1  0.34976778  0.73608109  0.71109403  1  -0.012484  0  0.08179  0.069873  0  0.994196  0
H  H35  1  0.65023491  0.26389434  0.28889723  1  -0.013016  0  0.081766  0.069843  0  0.994353  0
H  H36  1  0.36350028  0.86531676  0.58164372  1  -0.002562  0  0.08302  0.071434  0  1.01579  0
H  H37  1  0.63649682  0.13466033  0.41835228  1  -0.001935  0  0.083054  0.071484  0  1.015776  0
H  H38  1  0.63575529  0.86757165  0.49890313  1  0.036196  0  0.085856  0.081846  0  0.99457  0
H  H39  1  0.36424426  0.13241049  0.50108436  1  0.036009  0  0.085884  0.081887  0  0.994687  0
H  H40  1  0.56617057  0.71107537  0.52293994  1  0.005934  0  0.085174  0.077665  0  0.988535  0
H  H41  1  0.43383096  0.28890285  0.47705361  1  0.006347  0  0.085188  0.077732  0  0.988612  0
C  C42  1  0.41274562  0.43735608  0.96075358  1  0.30871  0  0.105811  0.147748  0  3.99471  0
C  C43  1  0.58725059  0.56267090  0.03923908  1  0.308125  0  0.105681  0.147873  0  3.995068  0
C  C44  1  0.23259179  0.42249147  0.86689047  1  1.007208  0  0.157497  0.129934  0  3.893935  0
C  C45  1  0.76738953  0.57751732  0.13312481  1  1.007873  0  0.157392  0.129877  0  3.894008  0
C  C46  1  0.93436321  0.05422670  0.41713596  1  0.070215  0  -0.074497  -0.175317  0  3.970641  0
C  C47  1  0.06564570  0.94577832  0.58286738  1  0.070523  0  -0.074573  -0.175418  0  3.970549  0
C  C48  1  0.34509739  0.51544662  0.04478591  1  -0.024535  0  -0.006175  -0.082229  0  3.932399  0
C  C49  1  0.65490083  0.48458028  0.95521201  1  -0.024186  0  -0.006232  -0.08237  0  3.932609  0
C  C50  1  0.94573286  0.12265536  0.49834906  1  0.291484  0  0.10325  0.145602  0  3.984209  0
C  C51  1  0.05427388  0.87735057  0.50165392  1  0.291093  0  0.103398  0.145718  0  3.984204  0
C  C52  1  0.43586229  0.57656819  0.08159375  1  0.057842  0  -0.076066  -0.16867  0  3.974854  0
C  C53  1  0.56413587  0.42345675  0.91840628  1  0.057149  0  -0.07593  -0.168444  0  3.974479  0
C  C54  1  0.95453750  0.85989756  0.33504084  1  1.594459  0  0.201114  0.565794  0  4.251812  0
C  C55  1  0.04545579  0.14010390  0.66497392  1  1.594475  0  0.201129  0.5656  0  4.252184  0
C  C56  1  0.93378944  0.34258249  0.38102830  1  0.948251  0  0.14634  0.09925  0  3.888826  0
C  C57  1  0.06621187  0.65742522  0.61897432  1  0.948947  0  0.146413  0.099271  0  3.888933  0
C  C58  1  0.18109351  0.52845583  0.10941108  1  1.616721  0  0.203868  0.568059  0  4.231393  0
C  C59  1  0.81890570  0.47157390  0.89059014  1  1.616344  0  0.203976  0.568464  0  4.230978  0
C  C60  1  0.98639867  0.93040596  0.41779324  1  -0.019343  0  -0.001909  -0.068629  0  3.92334  0
C  C61  1  0.01360361  0.06959881  0.58221304  1  -0.019346  0  -0.001842  -0.068358  0  3.922983  0
C  C62  1  0.36100483  0.24864517  0.89363208  1  0.249458  0  -0.001057  -0.111348  0  3.913447  0
C  C63  1  0.63898006  0.75136587  0.10637324  1  0.249834  0  -0.0011  -0.111142  0  3.913431  0
C  C64  1  0.27010973  0.22745552  0.83808530  1  0.421731  0  0.009787  -0.006461  0  3.957851  0
C  C65  1  0.72985930  0.77254984  0.16193951  1  0.421623  0  0.009988  -0.006317  0  3.957788  0
C  C66  1  0.79513705  0.30139720  0.58546340  1  0.344022  0  0.008957  -0.080122  0  3.909764  0
C  C67  1  0.20487068  0.69860581  0.41454239  1  0.344365  0  0.008967  -0.080112  0  3.909788  0
C  C68  1  0.78514559  0.42800508  0.52977269  1  0.401867  0  0.001839  -0.028406  0  3.976744  0
C  C69  1  0.21485228  0.57199858  0.47023518  1  0.40148  0  0.001786  -0.028545  0  3.976782  0
C  C70  1  0.50491056  0.86900513  0.80578007  1  0.43673  0  -0.011441  0.236213  0  3.867276  0
C  C71  1  0.49510201  0.13097828  0.19420900  1  0.436093  0  -0.011544  0.236052  0  3.86734  0
C  C72  1  0.65857011  0.82938355  0.73176449  1  -0.02723  0  -0.177198  -0.229926  0  3.945956  0
C  C73  1  0.34144156  0.17060477  0.26821881  1  -0.031292  0  -0.177181  -0.229721  0  3.94592  0
C  C74  1  0.65273323  0.73122718  0.65977511  1  -0.052473  0  -0.174665  -0.143289  0  3.947704  0
C  C75  1  0.34727734  0.26875823  0.34020830  1  -0.052212  0  -0.174547  -0.143078  0  3.947375  0
C  C76  1  0.42200110  0.91943984  0.72062458  1  -0.036998  0  -0.166684  -0.208797  0  3.892017  0
C  C77  1  0.57800145  0.08053739  0.27937138  1  -0.036383  0  -0.166818  -0.209025  0  3.892447  0
C  C78  1  0.41779614  0.82292312  0.64618235  1  0.008504  0  -0.166083  -0.13485  0  3.94496  0
C  C79  1  0.58220978  0.17705429  0.35381001  1  0.008841  0  -0.166001  -0.134707  0  3.944816  0
C  C80  1  0.57218449  0.78321930  0.57254032  1  -0.014433  0  -0.170331  -0.145512  0  3.943111  0
C  C81  1  0.42781936  0.21676100  0.42744873  1  -0.015138  0  -0.170422  -0.145773  0  3.943294  0
N  N82  1  0.19241423  0.33717691  0.82087461  1  -1.233667  0  -0.357428  -0.284609  0  3.6264  0
N  N83  1  0.80755919  0.66282764  0.17914902  1  -1.234165  0  -0.35757  -0.284681  0  3.626387  0
N  N84  1  0.88975886  0.24860041  0.48995701  1  -1.28076  0  -0.223798  0.011997  0  3.81553  0
N  N85  1  0.11025217  0.75140845  0.51004822  1  -1.281036  0  -0.223834  0.012019  0  3.815622  0
N  N86  1  0.33540947  0.37248642  0.91231033  1  -1.269046  0  -0.22396  0.008975  0  3.809383  0
N  N87  1  0.66458529  0.62752684  0.08769317  1  -1.26909  0  -0.223827  0.008747  0  3.809305  0
N  N88  1  0.87253689  0.45246285  0.40231076  1  -1.238344  0  -0.35512  -0.287433  0  3.590839  0
N  N89  1  0.12746755  0.54754388  0.59769612  1  -1.238642  0  -0.355055  -0.287271  0  3.590717  0
O  O90  1  0.93138604  0.73629897  0.38226977  1  -1.159964  0  -0.33428  -0.553962  0  2.374115  0
O  O91  1  0.06861059  0.26370358  0.61774290  1  -1.159921  0  -0.334286  -0.553873  0  2.374167  0
O  O92  1  0.14750941  0.62100564  0.16587179  1  -1.164214  0  -0.331214  -0.543931  0  2.315751  0
O  O93  1  0.85248811  0.37903397  0.83411449  1  -1.163901  0  -0.331297  -0.544181  0  2.31576  0
O  O94  1  0.94804623  0.92243880  0.23472263  1  -1.161115  0  -0.321595  -0.529733  0  2.070932  0
O  O95  1  0.05194486  0.07755588  0.76529254  1  -1.161404  0  -0.321626  -0.529669  0  2.071246  0
O  O96  1  0.09162684  0.45004111  0.11031998  1  -1.17721  0  -0.315961  -0.543465  0  2.150559  0
O  O97  1  0.90836528  0.54998322  0.88969880  1  -1.177201  0  -0.316018  -0.54367  0  2.15033  0
O  O98  1  0.51167204  0.96940948  0.86541511  1  -1.134371  0  -0.4153  -0.529479  0  2.187851  0
O  O99  1  0.48833191  0.03057568  0.13457123  1  -1.134087  0  -0.415281  -0.529333  0  2.18785  0
