# generated using pymatgen
data_CuH8C12(NO2)2
_symmetry_space_group_name_H-M   'P 1'
_cell_length_a   9.32094268
_cell_length_b   11.81574486
_cell_length_c   12.06800000
_cell_angle_alpha   90.00000000
_cell_angle_beta   113.98690699
_cell_angle_gamma   90.00000000
_symmetry_Int_Tables_number   1
_chemical_formula_structural   CuH8C12(NO2)2
_chemical_formula_sum   'Cu4 H32 C48 N8 O16'
_cell_volume   1214.31281544
_cell_formula_units_Z   4
loop_
 _symmetry_equiv_pos_site_id
 _symmetry_equiv_pos_as_xyz
  1  'x, y, z'
loop_
 _atom_site_type_symbol
 _atom_site_label
 _atom_site_symmetry_multiplicity
 _atom_site_fract_x
 _atom_site_fract_y
 _atom_site_fract_z
 _atom_site_occupancy
 _atom_site_hle17_bader_charge
 _atom_site_hle17_bader_spin_density
 _atom_site_hle17_ddec_charge
 _atom_site_hle17_ddec_spin_density
 _atom_site_hle17_ddec_sum_bond_order
 _atom_site_hle17_magmom
 _atom_site_hse06_10hf_ddec_charge
 _atom_site_hse06_10hf_ddec_spin_density
 _atom_site_hse06_10hf_ddec_sum_bond_order
 _atom_site_hse06_10hf_magmom
 _atom_site_hse06_ddec_charge
 _atom_site_hse06_ddec_spin_density
 _atom_site_hse06_ddec_sum_bond_order
 _atom_site_hse06_magmom
 _atom_site_pbe_bader_charge
 _atom_site_pbe_bader_spin_density
 _atom_site_pbe_cm5_charge
 _atom_site_pbe_ddec_charge
 _atom_site_pbe_ddec_spin_density
 _atom_site_pbe_ddec_sum_bond_order
 _atom_site_pbe_magmom
Cu  Cu0  1  0.65308701  0.35815685  0.01547417  1  1.140148  0.512242  0.872425  0.731999  1.792552  0.511  0.850957  0.809162  2.180553  0.627  0.959858  0.887918  2.079953  0.715  1.09642  0.565551  0.743822  0.796098  0.743697  2.227811  0.563
Cu  Cu1  1  0.34691288  0.85816173  0.48451941  1  1.140206  -0.512238  0.872367  -0.731991  1.792531  -0.511  0.850838  -0.809163  2.180606  -0.627  0.959777  -0.887924  2.079968  -0.715  1.09628  -0.565828  0.743819  0.795803  -0.744017  2.228116  -0.564
Cu  Cu2  1  0.34691523  0.64183935  0.98452346  1  1.140183  -0.51225  0.872405  -0.732006  1.792536  -0.511  0.850842  -0.809167  2.180575  -0.627  0.959802  -0.887929  2.079965  -0.715  1.096534  -0.565067  0.743883  0.796011  -0.743141  2.227987  -0.563
Cu  Cu3  1  0.65308583  0.14184294  0.51547878  1  1.140232  0.512242  0.872402  0.731994  1.792533  0.511  0.850907  0.809175  2.180593  0.627  0.959826  0.88793  2.079972  0.715  1.096207  0.566021  0.743747  0.795834  0.744036  2.227995  0.564
H  H4  1  0.25138883  0.91998093  0.23756864  1  0.077561  -0.001862  0.088061  -0.000906  0.954995  -0.002  0.095143  -0.000759  1.019578  -0.001  0.096708  -0.000567  1.018304  -0.001  0.122757  -0.001881  0.120297  0.093733  -0.000895  1.020868  -0.001
H  H5  1  0.74861575  0.41997014  0.26242890  1  0.077715  0.001871  0.088042  0.000911  0.954936  0.002  0.095122  0.000759  1.019541  0.001  0.096688  0.000568  1.018265  0.001  0.12279  0.001877  0.120363  0.093757  0.000892  1.0208  0.001
H  H6  1  0.74861810  0.08002881  0.76243130  1  0.077718  0.001856  0.088071  0.000903  0.954924  0.002  0.09516  0.000759  1.019503  0.001  0.096725  0.000568  1.018229  0.001  0.122749  0.001875  0.12033  0.09375  0.000891  1.020775  0.001
H  H7  1  0.25138766  0.58002099  0.73757324  1  0.077773  -0.001852  0.087987  -0.000901  0.955027  -0.002  0.095094  -0.000759  1.01959  -0.001  0.096659  -0.000567  1.018314  -0.001  0.122848  -0.001866  0.12035  0.093736  -0.000887  1.02086  -0.001
H  H8  1  0.07720905  0.06310817  0.08892793  1  0.014141  -0.000775  0.10905  -0.000417  0.953857  0.0  0.117902  -0.000418  1.016309  0.0  0.121775  -0.000299  1.013971  0.0  0.106838  -0.000927  0.10826  0.115066  -0.000491  1.018089  -0.001
H  H9  1  0.92279554  0.56309781  0.41106713  1  0.014213  0.000772  0.109143  0.000415  0.953731  0.0  0.117942  0.000419  1.016256  0.0  0.121816  0.000299  1.013915  0.0  0.107  0.000931  0.108342  0.115126  0.000492  1.018053  0.001
H  H10  1  0.92280258  0.93690073  0.91107182  1  0.014261  0.000772  0.109095  0.000415  0.953751  0.0  0.117906  0.000418  1.016271  0.0  0.121781  0.000299  1.01393  0.0  0.106934  0.000951  0.108289  0.115057  0.000503  1.018063  0.001
H  H11  1  0.07720787  0.43689501  0.58893336  1  0.014308  -0.000773  0.109096  -0.000416  0.953783  0.0  0.117953  -0.000418  1.016245  0.0  0.121827  -0.000299  1.013904  0.0  0.106963  -0.000928  0.108377  0.115157  -0.000492  1.018022  -0.001
H  H12  1  0.94776744  0.18382337  0.37347052  1  0.100131  -0.000553  0.140184  -0.00018  0.94862  0.0  0.148102  -0.000199  1.01025  -0.001  0.152184  -0.000159  1.007545  0.0  0.17677  -0.000665  0.114706  0.145114  -0.000232  1.01221  -0.001
H  H13  1  0.05224771  0.68380877  0.12653366  1  0.100255  0.000547  0.140188  0.000177  0.948674  0.0  0.148122  0.000199  1.010292  0.001  0.152205  0.000159  1.007586  0.0  0.17579  0.000664  0.114717  0.145097  0.000231  1.012342  0.001
H  H14  1  0.05223949  0.81618384  0.62652942  1  0.100026  0.000559  0.140183  0.000183  0.9487  0.0  0.148113  0.000199  1.010326  0.001  0.152197  0.000159  1.007618  0.0  0.175632  0.00068  0.114705  0.145104  0.000239  1.012333  0.001
H  H15  1  0.94776627  0.31617643  0.87347180  1  0.100109  -0.000549  0.140175  -0.000179  0.948688  0.0  0.148103  -0.000199  1.010312  -0.001  0.152185  -0.000159  1.00761  0.0  0.175737  -0.000663  0.114727  0.145126  -0.000231  1.012295  -0.001
H  H16  1  0.13714702  0.04476315  0.51212385  1  0.027546  -0.002013  0.082828  -0.000995  0.937744  -0.002  0.092502  -0.000802  0.997853  -0.001  0.093836  -0.000592  0.997358  -0.001  0.10702  -0.002019  0.120698  0.091344  -0.000946  0.998401  -0.001
H  H17  1  0.86287166  0.54474941  0.98787563  1  0.027391  0.002003  0.082893  0.00099  0.937531  0.002  0.092437  0.000802  0.997775  0.001  0.09377  0.000592  0.997281  0.001  0.106959  0.002024  0.120644  0.091267  0.000948  0.998359  0.001
H  H18  1  0.86285874  0.95524067  0.48787323  1  0.027457  0.002002  0.082851  0.00099  0.937581  0.002  0.092483  0.000802  0.997753  0.001  0.093817  0.000592  0.997257  0.001  0.106952  0.002018  0.120673  0.091308  0.000946  0.998312  0.001
H  H19  1  0.13714232  0.45523749  0.01212900  1  0.027413  -0.002016  0.08278  -0.000997  0.937627  -0.002  0.092444  -0.000802  0.997754  -0.001  0.093778  -0.000592  0.997256  -0.001  0.106952  -0.002011  0.120677  0.091303  -0.000942  0.998315  -0.001
H  H20  1  0.58271100  0.27300014  0.28949221  1  0.110729  0.002172  0.108946  0.001126  0.928395  0.002  0.114735  0.000832  0.995679  0.001  0.118073  0.000586  0.991131  0.001  0.149919  0.002035  0.126531  0.111876  0.001003  0.99953  0.002
H  H21  1  0.41729006  0.77299147  0.21051003  1  0.10993  -0.002168  0.108983  -0.001123  0.92836  -0.002  0.114748  -0.000832  0.995695  -0.001  0.1181  -0.000587  0.991106  -0.001  0.150253  -0.002047  0.126587  0.111981  -0.00101  0.999558  -0.002
H  H22  1  0.41727949  0.72700114  0.71050754  1  0.110999  -0.002168  0.109007  -0.001124  0.928304  -0.002  0.11475  -0.000832  0.995645  -0.001  0.118097  -0.000586  0.99107  -0.001  0.150154  -0.002049  0.126558  0.111897  -0.00101  0.999539  -0.002
H  H23  1  0.58271570  0.22699881  0.78948871  1  0.111155  0.002169  0.109009  0.001124  0.928258  0.002  0.114758  0.000832  0.995581  0.001  0.118094  0.000586  0.991034  0.001  0.149882  0.002045  0.126593  0.111958  0.001008  0.999436  0.002
H  H24  1  0.27874097  0.54584540  0.29575751  1  0.096932  0.000448  0.107998  3.2e-05  0.967135  0.001  0.115197  -0.000246  1.034688  0.0  0.118455  -0.000166  1.031957  0.0  0.140002  -0.000197  0.108052  0.112919  -0.000318  1.036416  0.0
H  H25  1  0.72125187  0.04584138  0.20424214  1  0.097066  -0.000449  0.108002  -3.2e-05  0.967157  -0.001  0.115225  0.000246  1.034666  0.0  0.118489  0.000166  1.031917  0.0  0.140122  0.000185  0.108127  0.113004  0.000311  1.036341  0.0
H  H26  1  0.72125539  0.45415842  0.70424905  1  0.096885  -0.000451  0.107937  -3.3e-05  0.967263  -0.001  0.115114  0.000246  1.03482  0.0  0.118382  0.000166  1.032055  0.0  0.140281  0.000184  0.108054  0.112875  0.00031  1.036487  0.0
H  H27  1  0.27873979  0.95415906  0.79575217  1  0.096998  0.000446  0.107957  3.1e-05  0.967255  0.001  0.115173  -0.000246  1.034766  0.0  0.118436  -0.000166  1.032019  0.0  0.139695  -0.000193  0.108086  0.112911  -0.000315  1.036499  0.0
H  H28  1  0.26380198  0.45343565  0.48019013  1  0.004746  0.000905  0.103159  0.000494  0.942262  0.0  0.115535  0.000492  0.996572  0.0  0.11788  0.000356  0.997475  0.0  0.067805  0.001153  0.108641  0.113799  0.000599  0.996145  0.001
H  H29  1  0.73619204  0.95343376  0.01980658  1  0.004724  -0.000896  0.103158  -0.000489  0.942156  0.0  0.115548  -0.000493  0.996456  0.0  0.117893  -0.000356  0.997361  0.0  0.067647  -0.001166  0.108728  0.113888  -0.000605  0.995993  -0.001
H  H30  1  0.73619204  0.54656732  0.51981072  1  0.004745  -0.000901  0.103132  -0.000492  0.94228  0.0  0.11549  -0.000493  0.996602  0.0  0.117836  -0.000356  0.997503  0.0  0.067444  -0.001163  0.108658  0.113794  -0.000604  0.996136  -0.001
H  H31  1  0.26380433  0.04656583  0.98018756  1  0.00471  0.000898  0.103156  0.000491  0.942173  0.0  0.115509  0.000493  0.996517  0.0  0.117859  0.000356  0.997408  0.0  0.067818  0.001164  0.10868  0.11381  0.000604  0.996101  0.001
H  H32  1  0.42418416  0.27793423  0.56383066  1  0.126586  0.002046  0.098189  0.001051  0.952878  0.002  0.106236  0.000891  1.013392  0.001  0.108903  0.00065  1.010139  0.001  0.163538  0.002132  0.122228  0.104028  0.001058  1.016096  0.002
H  H33  1  0.57581455  0.77792726  0.93617250  1  0.119416  -0.002043  0.098196  -0.001047  0.952908  -0.002  0.106228  -0.00089  1.01341  -0.001  0.108895  -0.000649  1.010161  -0.001  0.163428  -0.00214  0.122255  0.104082  -0.001062  1.016122  -0.002
H  H34  1  0.57581807  0.72207297  0.43617526  1  0.119386  -0.00204  0.098212  -0.001046  0.952873  -0.002  0.106251  -0.00089  1.013371  -0.001  0.108918  -0.000649  1.010122  -0.001  0.163431  -0.002136  0.12223  0.104074  -0.001059  1.016079  -0.002
H  H35  1  0.42417477  0.22207402  0.06382274  1  0.119448  0.002045  0.098179  0.001048  0.952968  0.002  0.106296  0.00089  1.013371  0.001  0.108964  0.000649  1.010121  0.001  0.163449  0.002126  0.122265  0.104131  0.001055  1.016071  0.002
C  C36  1  0.18586606  0.98247890  0.26418031  1  0.471897  0.013055  0.13394  0.00929  3.683358  0.01  0.107078  0.001209  3.932791  0.002  0.115496  0.002187  3.953521  0.003  0.431146  0.001521  0.046602  0.101454  0.00034  3.920074  0.001
C  C37  1  0.81414322  0.48246979  0.23581457  1  0.471716  -0.013048  0.13411  -0.009284  3.683402  -0.01  0.107259  -0.001209  3.932822  -0.002  0.115675  -0.002187  3.953549  -0.003  0.431179  -0.001569  0.046635  0.101664  -0.000376  3.92011  -0.001
C  C38  1  0.81414322  0.01752915  0.73581705  1  0.471722  -0.013046  0.13403  -0.009283  3.6833  -0.01  0.107187  -0.001209  3.932707  -0.002  0.115602  -0.002189  3.953437  -0.003  0.431294  -0.001508  0.046609  0.101572  -0.000333  3.919954  -0.001
C  C39  1  0.18586019  0.51752472  0.76418509  1  0.471516  0.012999  0.134184  0.009247  3.683394  0.01  0.1073  0.00121  3.932819  0.002  0.115715  0.002188  3.953547  0.003  0.43108  0.001526  0.046668  0.1017  0.000347  3.92015  0.001
C  C40  1  0.08762947  0.05995475  0.18209874  1  0.119408  -0.014451  -0.129933  -0.010837  3.72225  -0.011  -0.149597  -0.003268  3.962038  -0.004  -0.155962  -0.003377  3.981516  -0.004  0.00623  -0.004371  -0.080061  -0.14541  -0.003113  3.948715  -0.004
C  C41  1  0.91237512  0.55994523  0.31789549  1  0.119796  0.014437  -0.13016  0.010827  3.722347  0.011  -0.149813  0.003267  3.962186  0.004  -0.156176  0.003377  3.98166  0.004  0.00632  0.004366  -0.080208  -0.145622  0.003108  3.948851  0.004
C  C42  1  0.91238099  0.94005500  0.81789899  1  0.119685  0.01446  -0.129993  0.010843  3.722178  0.011  -0.14967  0.003266  3.962014  0.004  -0.15603  0.003378  3.981493  0.004  0.006364  0.004311  -0.080137  -0.145481  0.003071  3.948736  0.004
C  C43  1  0.08762360  0.44005266  0.68210767  1  0.119943  -0.014412  -0.129981  -0.010808  3.722396  -0.011  -0.149676  -0.003265  3.962234  -0.004  -0.156039  -0.003376  3.981709  -0.004  0.006483  -0.004351  -0.080126  -0.145487  -0.0031  3.948858  -0.004
C  C44  1  0.99840289  0.13360393  0.21917063  1  -0.020819  0.024485  0.006114  0.018303  3.727431  0.018  0.027406  0.007738  3.951374  0.008  0.02709  0.006467  3.968955  0.007  -0.017977  0.012256  0.005607  0.027719  0.008548  3.939308  0.009
C  C45  1  0.00160052  0.63359527  0.28082737  1  -0.020907  -0.024471  0.00609  -0.018292  3.727396  -0.018  0.027423  -0.007736  3.95133  -0.008  0.027105  -0.006465  3.968915  -0.007  -0.018124  -0.012292  0.005358  0.027469  -0.008572  3.939292  -0.009
C  C46  1  0.00160639  0.86640327  0.78083170  1  -0.021133  -0.024503  0.005934  -0.018316  3.727442  -0.018  0.027276  -0.007734  3.951353  -0.008  0.026949  -0.006468  3.968949  -0.007  -0.018493  -0.012151  0.005564  0.027535  -0.008476  3.939425  -0.009
C  C47  1  0.99839702  0.36640348  0.71917127  1  -0.021156  0.02446  0.006041  0.018284  3.727386  0.018  0.027365  0.007734  3.951331  0.008  0.027045  0.006466  3.968917  0.007  -0.018189  0.012197  0.005319  0.027484  0.008505  3.939179  0.009
C  C48  1  0.01491550  0.12883233  0.33963193  1  0.074708  -0.01587  -0.126238  -0.011772  3.669545  -0.012  -0.147304  -0.003729  3.912112  -0.005  -0.152299  -0.00367  3.929581  -0.004  -0.022553  -0.005368  -0.074685  -0.144017  -0.003676  3.900193  -0.005
C  C49  1  0.98509260  0.62882197  0.16036589  1  0.074451  0.015868  -0.126187  0.011771  3.669539  0.012  -0.147313  0.003726  3.91214  0.005  -0.152304  0.003668  3.929604  0.004  -0.021671  0.005388  -0.074713  -0.144037  0.00369  3.900351  0.005
C  C50  1  0.98508673  0.87117233  0.66036487  1  0.074935  0.015874  -0.126145  0.011775  3.669586  0.012  -0.147247  0.003725  3.912167  0.005  -0.152237  0.00367  3.929635  0.004  -0.021099  0.005328  -0.074698  -0.144008  0.003649  3.900392  0.004
C  C51  1  0.01491433  0.37117084  0.83963737  1  0.074808  -0.015858  -0.126217  -0.011764  3.669564  -0.012  -0.147316  -0.003726  3.912157  -0.005  -0.152313  -0.003672  3.929627  -0.004  -0.021609  -0.005377  -0.074667  -0.144017  -0.003683  3.900226  -0.005
C  C52  1  0.11988063  0.05097436  0.41749043  1  0.525381  0.012442  0.138419  0.008706  3.671608  0.009  0.109827  0.001071  3.928022  0.002  0.117793  0.002121  3.948789  0.003  0.451707  0.001384  0.052953  0.104293  0.000156  3.915618  0.001
C  C53  1  0.88013334  0.55096146  0.08250675  1  0.525362  -0.012399  0.138318  -0.008673  3.671297  -0.009  0.10987  -0.001069  3.927695  -0.002  0.117832  -0.002121  3.948459  -0.003  0.451439  -0.00145  0.052999  0.104355  -0.000204  3.915384  -0.001
C  C54  1  0.88012395  0.94902946  0.58250960  1  0.525295  -0.012423  0.138358  -0.008691  3.671525  -0.009  0.109792  -0.001068  3.927981  -0.002  0.117756  -0.002121  3.948745  -0.003  0.451667  -0.001376  0.052911  0.104261  -0.000153  3.915587  -0.001
C  C55  1  0.11987711  0.44903051  0.91749429  1  0.525345  0.012413  0.138409  0.008683  3.671605  0.009  0.109832  0.001068  3.928025  0.002  0.117799  0.002124  3.948787  0.003  0.451504  0.001401  0.052944  0.104317  0.00017  3.915705  0.001
C  C56  1  0.88451452  0.21217621  0.12668485  1  1.56562  -0.007031  0.605129  -0.005216  3.946746  -0.009  0.564216  -0.000736  4.25005  -0.004  0.598909  -0.001031  4.247122  -0.003  1.581428  -0.001651  0.18984  0.540414  -0.00021  4.253018  -0.004
C  C57  1  0.11547714  0.71217347  0.37331112  1  1.565916  0.00703  0.605187  0.005218  3.946585  0.009  0.564271  0.000738  4.249893  0.004  0.59896  0.001032  4.246965  0.003  1.581385  0.001637  0.190132  0.540668  0.000191  4.252749  0.004
C  C58  1  0.11548654  0.78782591  0.87330744  1  1.565734  0.007031  0.605431  0.005218  3.946252  0.009  0.564517  0.00074  4.249541  0.004  0.59921  0.001033  4.24661  0.003  1.581578  0.001569  0.190031  0.540742  0.00014  4.252518  0.004
C  C59  1  0.88451217  0.28782612  0.62669240  1  1.565715  -0.007022  0.605265  -0.005209  3.946402  -0.009  0.564349  -0.000736  4.249706  -0.004  0.599043  -0.001032  4.246782  -0.003  1.581683  -0.001565  0.190128  0.540708  -0.000133  4.252577  -0.004
C  C60  1  0.51215651  0.31664868  0.32951568  1  0.489431  -0.011674  0.119829  -0.008193  3.642826  -0.009  0.08176  -0.001747  3.891801  -0.003  0.09315  -0.002558  3.910198  -0.004  0.43875  -0.002216  0.057691  0.074116  -0.000908  3.880984  -0.002
C  C61  1  0.48784455  0.81664255  0.17048573  1  0.490262  0.01169  0.119605  0.008203  3.642927  0.009  0.081554  0.001744  3.891919  0.003  0.092945  0.002559  3.91033  0.004  0.438387  0.002269  0.057758  0.073941  0.000946  3.881141  0.002
C  C62  1  0.48783280  0.68335345  0.67048536  1  0.488955  0.011687  0.119606  0.008202  3.642916  0.009  0.081626  0.001743  3.891844  0.003  0.093014  0.002559  3.910252  0.004  0.43863  0.002302  0.05763  0.073957  0.000972  3.881094  0.002
C  C63  1  0.51216238  0.18335365  0.82951504  1  0.488921  -0.011689  0.119617  -0.008203  3.642767  -0.009  0.081613  -0.00175  3.891722  -0.003  0.092998  -0.002561  3.910125  -0.004  0.43841  -0.002307  0.057691  0.074033  -0.000974  3.880905  -0.002
C  C64  1  0.42954820  0.41569533  0.27833311  1  0.002373  0.001742  -0.115499  0.001087  3.742407  0.001  -0.085754  -0.001225  3.967375  -0.001  -0.10066  -0.000119  3.98967  0.0  -0.001267  -0.002963  -0.014246  -0.076055  -0.002105  3.952101  -0.002
C  C65  1  0.57045286  0.91568920  0.22166748  1  0.002252  -0.001761  -0.115403  -0.0011  3.742378  -0.001  -0.085625  0.001227  3.967331  0.001  -0.100531  0.00012  3.989632  0.0  -0.001207  0.003029  -0.014439  -0.076105  0.002149  3.952029  0.002
C  C66  1  0.57043994  0.58430426  0.72166508  1  0.002835  -0.001747  -0.115472  -0.00109  3.74246  -0.001  -0.085759  0.001229  3.967454  0.001  -0.10067  0.00012  3.989762  0.0  -0.008964  0.002964  -0.014248  -0.075999  0.002102  3.952098  0.002
C  C67  1  0.42955407  0.08430531  0.77833412  1  0.002806  0.001755  -0.115364  0.001096  3.742354  0.001  -0.085638  -0.001222  3.967325  -0.001  -0.100546  -0.000117  3.989628  0.0  -0.001242  -0.003028  -0.014473  -0.076182  -0.002151  3.952103  -0.002
C  C68  1  0.34005048  0.46717918  0.33324388  1  0.014078  -0.010979  -0.008124  -0.008043  3.692137  -0.007  -0.037869  -0.002545  3.936009  -0.002  -0.029681  -0.002742  3.951217  -0.003  -0.034165  -0.003438  -0.062452  -0.043226  -0.002341  3.925686  -0.002
C  C69  1  0.65994119  0.96717390  0.16675376  1  0.013713  0.011  -0.008169  0.008058  3.692408  0.007  -0.037945  0.002544  3.936303  0.002  -0.029758  0.002745  3.95152  0.003  -0.033768  0.003448  -0.062442  -0.04323  0.002345  3.925768  0.002
C  C70  1  0.65993532  0.53282125  0.66675523  1  0.013766  0.011003  -0.008077  0.00806  3.692279  0.007  -0.037786  0.002544  3.936146  0.002  -0.029596  0.002745  3.951371  0.003  -0.026607  0.003452  -0.062326  -0.043071  0.00235  3.925675  0.002
C  C71  1  0.34006105  0.03282231  0.83324305  1  0.01363  -0.01099  -0.008185  -0.00805  3.69242  -0.007  -0.037929  -0.002548  3.936296  -0.002  -0.02974  -0.002744  3.951513  -0.003  -0.033581  -0.003431  -0.062479  -0.043284  -0.002335  3.925925  -0.002
C  C72  1  0.33343820  0.41691405  0.43530674  1  0.096861  0.01304  -0.120647  0.009831  3.74472  0.01  -0.130903  0.003853  3.996297  0.005  -0.140384  0.003546  4.017843  0.004  0.016623  0.005637  -0.082662  -0.124868  0.003988  3.981913  0.005
C  C73  1  0.66655582  0.91690961  0.06469495  1  0.097258  -0.013061  -0.12054  -0.009847  3.744843  -0.01  -0.130827  -0.00385  3.996405  -0.005  -0.140306  -0.003549  4.017953  -0.004  0.01677  -0.005624  -0.082617  -0.124774  -0.003978  3.981956  -0.005
C  C74  1  0.66655112  0.58308723  0.56469265  1  0.096793  -0.013063  -0.120455  -0.009848  3.744762  -0.01  -0.130692  -0.003851  3.996279  -0.005  -0.140172  -0.003548  4.017827  -0.004  0.017613  -0.005621  -0.082569  -0.124619  -0.003978  3.981829  -0.005
C  C75  1  0.33344172  0.08308913  0.93530204  1  0.096914  0.013069  -0.12043  0.009853  3.744767  0.01  -0.13068  0.003853  3.996324  0.005  -0.140158  0.003547  4.017874  0.004  0.016508  0.005623  -0.082625  -0.124673  0.003978  3.98197  0.005
C  C76  1  0.42146339  0.31989266  0.48271949  1  0.46357  -0.008814  0.141161  -0.005916  3.651834  -0.006  0.110917  -2e-05  3.90363  -0.001  0.121964  -0.001178  3.92156  -0.002  0.428243  0.00029  0.052803  0.103547  0.001015  3.892827  0.0
C  C77  1  0.57853650  0.81989076  0.01727990  1  0.470558  0.008813  0.140944  0.005912  3.651748  0.006  0.110787  1.9e-05  3.903472  0.001  0.121829  0.00118  3.921406  0.002  0.428277  -0.000273  0.052871  0.103498  -0.001006  3.892751  0.0
C  C78  1  0.57852828  0.68010609  0.51727897  1  0.470712  0.008811  0.140828  0.00591  3.651803  0.006  0.110628  1.8e-05  3.903559  0.001  0.121673  0.001178  3.921489  0.002  0.42775  -0.000251  0.052731  0.103256  -0.000987  3.892782  0.0
C  C79  1  0.42146339  0.18010545  0.98271866  1  0.470528  -0.008831  0.140947  -0.005925  3.651833  -0.006  0.11069  -1.8e-05  3.903591  -0.001  0.121734  -0.001177  3.921515  -0.002  0.428245  0.000249  0.052832  0.103404  0.000988  3.892867  0.0
C  C80  1  0.43447894  0.46312527  0.16419851  1  1.589952  0.005494  0.638017  0.00374  3.947232  0.007  0.596419  0.00056  4.249193  0.003  0.635985  0.000742  4.241822  0.003  1.604957  0.001734  0.203955  0.569701  0.000142  4.253647  0.003
C  C81  1  0.56551156  0.96311998  0.33580621  1  1.589846  -0.005501  0.63785  -0.003746  3.947451  -0.007  0.596221  -0.000558  4.249466  -0.003  0.635785  -0.000741  4.242106  -0.003  1.605254  -0.001737  0.203983  0.569672  -0.000139  4.253839  -0.003
C  C82  1  0.56550921  0.53688025  0.83580962  1  1.589729  -0.005518  0.637964  -0.003762  3.947469  -0.007  0.596364  -0.000559  4.249463  -0.003  0.63593  -0.000742  4.242101  -0.003  1.60522  -0.001814  0.203855  0.569652  -0.000207  4.25393  -0.003
C  C83  1  0.43449068  0.03688553  0.66419059  1  1.590031  0.005506  0.637841  0.00375  3.947464  0.007  0.596267  0.000561  4.249418  0.003  0.63583  0.000742  4.242054  0.003  1.605218  0.001802  0.204027  0.569695  0.000201  4.253792  0.003
N  N84  1  0.20296100  0.97862049  0.38053650  1  -1.223865  -0.105998  -0.284984  -0.080176  3.322871  -0.098  -0.237414  -0.053108  3.61173  -0.069  -0.270532  -0.044371  3.635026  -0.061  -1.212172  -0.082777  -0.340592  -0.219872  -0.056663  3.59893  -0.072
N  N85  1  0.79704710  0.47861054  0.11946215  1  -1.223988  0.105964  -0.285065  0.080149  3.322927  0.098  -0.237507  0.053104  3.611724  0.069  -0.270611  0.044373  3.635015  0.061  -1.21218  0.082939  -0.340736  -0.220163  0.056772  3.59905  0.072
N  N86  1  0.79704476  0.02138418  0.61946307  1  -1.223887  0.105992  -0.285029  0.08017  3.323024  0.098  -0.237464  0.053105  3.611876  0.069  -0.270574  0.044373  3.635169  0.061  -1.212399  0.082567  -0.34066  -0.220002  0.056514  3.599059  0.072
N  N87  1  0.20295865  0.52138313  0.88054322  1  -1.223986  -0.105954  -0.285082  -0.080139  3.32297  -0.098  -0.237479  -0.053109  3.611789  -0.069  -0.270596  -0.044376  3.635092  -0.061  -1.212017  -0.08287  -0.340617  -0.220047  -0.056729  3.599125  -0.072
N  N88  1  0.50965533  0.27120423  0.43070581  1  -1.219202  0.102814  -0.278075  0.077815  3.307104  0.095  -0.228469  0.053671  3.596729  0.07  -0.262987  0.044531  3.618875  0.061  -1.208908  0.083627  -0.339235  -0.209307  0.057307  3.583551  0.073
N  N89  1  0.49034573  0.77119895  0.06929809  1  -1.219037  -0.102822  -0.277831  -0.07782  3.306906  -0.095  -0.228274  -0.05367  3.596529  -0.07  -0.262802  -0.044532  3.618696  -0.061  -1.208888  -0.083778  -0.339251  -0.209178  -0.05742  3.583524  -0.073
N  N90  1  0.49033868  0.72879959  0.56929588  1  -1.218864  -0.102819  -0.277802  -0.077817  3.306927  -0.095  -0.228236  -0.053671  3.596523  -0.07  -0.262752  -0.044531  3.61867  -0.061  -1.208709  -0.083875  -0.339057  -0.208949  -0.057496  3.583344  -0.073
N  N91  1  0.50965885  0.22879726  0.93070360  1  -1.218952  0.102824  -0.277949  0.077823  3.306929  0.095  -0.228393  0.053672  3.596558  0.07  -0.262901  0.044534  3.618701  0.061  -1.208611  0.083882  -0.339335  -0.209403  0.057484  3.583547  0.073
O  O92  1  0.90273206  0.23426962  0.03171885  1  -1.186199  -0.000404  -0.609146  -0.00048  1.893366  0.001  -0.581155  -0.000878  2.117599  0.0  -0.607211  -0.001445  2.108333  -0.001  -1.172881  6.9e-05  -0.328775  -0.564054  -0.00029  2.123784  0.001
O  O93  1  0.09725843  0.73426264  0.46827841  1  -1.186062  0.000403  -0.609133  0.000479  1.893265  -0.001  -0.581123  0.000878  2.117477  0.0  -0.607184  0.001446  2.108229  0.001  -1.172841  -0.00017  -0.328819  -0.564071  0.000215  2.123691  -0.001
O  O94  1  0.09727487  0.76573251  0.96828109  1  -1.186016  0.000408  -0.609323  0.000484  1.892998  -0.001  -0.581315  0.000877  2.117202  0.0  -0.607377  0.001445  2.107937  0.001  -1.173272  -0.000139  -0.328833  -0.56416  0.000243  2.123387  -0.001
O  O95  1  0.90273088  0.26573272  0.53171931  1  -1.186054  -0.000411  -0.609255  -0.000486  1.89303  0.001  -0.581255  -0.000878  2.117256  0.0  -0.607314  -0.001445  2.10799  -0.001  -1.173296  0.000204  -0.328912  -0.56424  -0.00019  2.123467  0.001
O  O96  1  0.77178164  0.24957885  0.15308607  1  -1.110429  0.14458  -0.585892  0.104464  2.022932  0.134  -0.564364  0.063238  2.296117  0.09  -0.611121  0.04756  2.292389  0.072  -1.103249  0.109756  -0.318532  -0.535123  0.072342  2.297969  0.099
O  O97  1  0.22821003  0.74958372  0.34691239  1  -1.110777  -0.144569  -0.585901  -0.104457  2.022916  -0.134  -0.56435  -0.063232  2.296082  -0.09  -0.611119  -0.047555  2.292363  -0.072  -1.102989  -0.10924  -0.318414  -0.534896  -0.071989  2.297853  -0.099
O  O98  1  0.22821825  0.75041566  0.84690834  1  -1.110689  -0.144589  -0.585921  -0.104471  2.022861  -0.134  -0.564384  -0.063239  2.296042  -0.09  -0.61116  -0.047559  2.292327  -0.072  -1.102703  -0.109439  -0.318348  -0.534911  -0.072129  2.29783  -0.099
O  O99  1  0.77178281  0.25042095  0.65309307  1  -1.11065  0.144564  -0.585833  0.104454  2.022991  0.134  -0.564308  0.063232  2.29619  0.09  -0.611062  0.047557  2.292443  0.072  -1.103154  0.109004  -0.318525  -0.535063  0.071811  2.298011  0.099
O  O100  1  0.47541966  0.39888302  0.09965869  1  -1.208445  0.000733  -0.635153  0.000932  2.090493  0.002  -0.613713  0.000578  2.373102  0.001  -0.645987  0.0007  2.359862  0.001  -1.190901  0.000119  -0.317062  -0.593624  0.000461  2.381703  0.001
O  O101  1  0.52457553  0.89888028  0.40033756  1  -1.208476  -0.000738  -0.634997  -0.000937  2.090944  -0.002  -0.613531  -0.000579  2.373596  -0.001  -0.645793  -0.000702  2.360324  -0.001  -1.191238  -0.000114  -0.316992  -0.593495  -0.000458  2.382243  -0.001
O  O102  1  0.52458140  0.60111488  0.90034438  1  -1.208417  -0.000724  -0.63505  -0.000923  2.091132  -0.002  -0.613614  -0.000579  2.373829  -0.001  -0.645857  -0.000703  2.36051  -0.001  -1.191345  -0.000192  -0.317025  -0.593608  -0.000508  2.382482  -0.001
O  O103  1  0.47541496  0.10112101  0.59965887  1  -1.208757  0.000734  -0.634996  0.000932  2.091287  0.002  -0.613553  0.00058  2.373926  0.001  -0.6458  0.000701  2.360629  0.001  -1.19116  0.000137  -0.316977  -0.593429  0.000468  2.382519  0.001
O  O104  1  0.39096070  0.56699176  0.14175400  1  -1.142914  -0.113655  -0.599767  -0.082542  2.072712  -0.107  -0.577346  -0.053264  2.36429  -0.076  -0.621239  -0.040619  2.351015  -0.062  -1.126213  -0.091961  -0.324544  -0.54967  -0.060823  2.371201  -0.084
O  O105  1  0.60902979  0.06699028  0.35824823  1  -1.142771  0.113692  -0.599714  0.08257  2.07258  0.107  -0.577328  0.05327  2.364208  0.076  -0.621216  0.040621  2.350928  0.062  -1.12632  0.091593  -0.32459  -0.549742  0.060562  2.371151  0.084
O  O106  1  0.60902744  0.43300867  0.85824584  1  -1.142796  0.11368  -0.599778  0.08256  2.072567  0.107  -0.5774  0.053268  2.364157  0.076  -0.621287  0.040622  2.350877  0.062  -1.126277  0.09197  -0.324619  -0.549852  0.060822  2.371105  0.084
O  O107  1  0.39096775  0.93300931  0.64174958  1  -1.142721  -0.113706  -0.599721  -0.08258  2.072305  -0.107  -0.577363  -0.05328  2.363913  -0.076  -0.621257  -0.040628  2.350629  -0.062  -1.126102  -0.091904  -0.324505  -0.549623  -0.060795  2.370809  -0.084
