# generated using pymatgen
data_TbCdH7C5SN2O11
_symmetry_space_group_name_H-M   'P 1'
_cell_length_a   8.56989707
_cell_length_b   10.53036526
_cell_length_c   13.81398487
_cell_angle_alpha   90.00009534
_cell_angle_beta   101.87425811
_cell_angle_gamma   90.00005211
_symmetry_Int_Tables_number   1
_chemical_formula_structural   TbCdH7C5SN2O11
_chemical_formula_sum   'Tb4 Cd4 H28 C20 S4 N8 O44'
_cell_volume   1219.95527060
_cell_formula_units_Z   4
loop_
 _symmetry_equiv_pos_site_id
 _symmetry_equiv_pos_as_xyz
  1  'x, y, z'
loop_
 _atom_site_type_symbol
 _atom_site_label
 _atom_site_symmetry_multiplicity
 _atom_site_fract_x
 _atom_site_fract_y
 _atom_site_fract_z
 _atom_site_occupancy
 _atom_site_hle17_bader_spin_density
 _atom_site_hle17_ddec_charge
 _atom_site_hle17_ddec_spin_density
 _atom_site_hle17_ddec_sum_bond_order
 _atom_site_hle17_magmom
 _atom_site_hse06_10hf_bader_spin_density
 _atom_site_hse06_10hf_ddec_charge
 _atom_site_hse06_10hf_ddec_spin_density
 _atom_site_hse06_10hf_ddec_sum_bond_order
 _atom_site_hse06_10hf_magmom
 _atom_site_hse06_bader_spin_density
 _atom_site_hse06_ddec_charge
 _atom_site_hse06_ddec_spin_density
 _atom_site_hse06_ddec_sum_bond_order
 _atom_site_hse06_magmom
 _atom_site_pbe_bader_spin_density
 _atom_site_pbe_cm5_charge
 _atom_site_pbe_ddec_charge
 _atom_site_pbe_ddec_spin_density
 _atom_site_pbe_ddec_sum_bond_order
 _atom_site_pbe_magmom
Tb  Tb0  1  0.93244294  0.89553161  0.10891251  1  0  2.348743  0  1.582597  0  0  2.277275  0  1.902694  0  0  2.320909  0  1.863275  0  0  1.526452  2.173512  0  2.06551  0
Tb  Tb1  1  0.06755642  0.39553184  0.39108770  1  0  2.348716  0  1.582645  0  0  2.277238  0  1.902754  0  0  2.320873  0  1.863333  0  0  1.526449  2.17347  0  2.06559  0
Tb  Tb2  1  0.06755700  0.10446936  0.89109219  1  0  2.348733  0  1.582648  0  0  2.277258  0  1.902764  0  0  2.320892  0  1.863343  0  0  1.526433  2.173472  0  2.065619  0
Tb  Tb3  1  0.93244227  0.60446817  0.60890816  1  0  2.348706  0  1.582675  0  0  2.27723  0  1.902793  0  0  2.320866  0  1.863373  0  0  1.526445  2.173443  0  2.065647  0
Cd  Cd4  1  0.62350213  0.48340906  0.13384808  1  0  1.205116  0  1.655759  0  0  1.009921  0  2.105324  0  0  1.064479  0  2.052862  0  0  0.813683  0.969797  0  2.142128  0
Cd  Cd5  1  0.37649974  0.98340897  0.36615110  1  0  1.20516  0  1.655733  0  0  1.009972  0  2.105305  0  0  1.064534  0  2.052841  0  0  0.813705  0.969848  0  2.142112  0
Cd  Cd6  1  0.37649897  0.51658810  0.86615242  1  0  1.205188  0  1.655713  0  0  1.010006  0  2.105267  0  0  1.064564  0  2.052804  0  0  0.813706  0.969881  0  2.142072  0
Cd  Cd7  1  0.62350015  0.01659199  0.63384636  1  0  1.205148  0  1.655729  0  0  1.009965  0  2.105296  0  0  1.064522  0  2.052835  0  0  0.813684  0.969841  0  2.142102  0
H  H8  1  0.62897075  0.25907994  0.33798519  1  0  0.096546  0  0.953524  0  0  0.102297  0  1.020306  0  0  0.10507  0  1.016891  0  0  0.130798  0.100131  0  1.023064  0
H  H9  1  0.37102839  0.75907845  0.16201481  1  0  0.096576  0  0.953487  0  0  0.102349  0  1.02025  0  0  0.105123  0  1.016832  0  0  0.130795  0.100179  0  1.023012  0
H  H10  1  0.37102916  0.74092103  0.66201589  1  0  0.096575  0  0.953513  0  0  0.102319  0  1.020301  0  0  0.105094  0  1.016882  0  0  0.130802  0.100152  0  1.023063  0
H  H11  1  0.62896673  0.24092157  0.83798278  1  0  0.09652  0  0.953469  0  0  0.102299  0  1.020231  0  0  0.105074  0  1.016811  0  0  0.130775  0.100132  0  1.02299  0
H  H12  1  0.99518874  0.89850328  0.33453368  1  0  0.442981  0  0.846439  0  0  0.414162  0  0.905499  0  0  0.424534  0  0.890322  0  0  0.305683  0.406576  0  0.91645  0
H  H13  1  0.00481182  0.39850393  0.16546813  1  0  0.443009  0  0.846402  0  0  0.414195  0  0.905452  0  0  0.424567  0  0.890276  0  0  0.305723  0.406609  0  0.916402  0
H  H14  1  0.00480997  0.10149768  0.66546653  1  0  0.442945  0  0.846487  0  0  0.414124  0  0.90555  0  0  0.424495  0  0.890376  0  0  0.305676  0.406538  0  0.916502  0
H  H15  1  0.99518929  0.60149609  0.83453310  1  0  0.442996  0  0.846417  0  0  0.414172  0  0.905484  0  0  0.424543  0  0.89031  0  0  0.305688  0.406586  0  0.916436  0
H  H16  1  0.80700360  0.91387017  0.30172027  1  0  0.432503  0  0.827217  0  0  0.408342  0  0.893714  0  0  0.416098  0  0.882545  0  0  0.320984  0.402704  0  0.90064  0
H  H17  1  0.19299580  0.41386817  0.19828141  1  0  0.432511  0  0.827211  0  0  0.408352  0  0.893697  0  0  0.416109  0  0.882528  0  0  0.320999  0.402716  0  0.900625  0
H  H18  1  0.19299394  0.08613175  0.69828124  1  0  0.432466  0  0.827214  0  0  0.408301  0  0.89376  0  0  0.416058  0  0.882591  0  0  0.320995  0.402665  0  0.900649  0
H  H19  1  0.80700411  0.58613089  0.80171894  1  0  0.432503  0  0.82722  0  0  0.408345  0  0.893708  0  0  0.416101  0  0.882539  0  0  0.32099  0.402708  0  0.900634  0
H  H20  1  0.01252178  0.63437799  0.16764667  1  0  0.451615  0  0.806503  0  0  0.429915  0  0.866301  0  0  0.439499  0  0.851962  0  0  0.32285  0.422536  0  0.875321  0
H  H21  1  0.98747477  0.13437594  0.33235358  1  0  0.451618  0  0.806454  0  0  0.42992  0  0.866279  0  0  0.439504  0  0.851942  0  0  0.322842  0.422542  0  0.875265  0
H  H22  1  0.98747694  0.36562202  0.83235427  1  0  0.451591  0  0.806522  0  0  0.429886  0  0.866338  0  0  0.439471  0  0.851999  0  0  0.322824  0.422507  0  0.875353  0
H  H23  1  0.01252274  0.86562218  0.66764575  1  0  0.451589  0  0.806552  0  0  0.429886  0  0.866345  0  0  0.43947  0  0.852006  0  0  0.322817  0.422507  0  0.875374  0
H  H24  1  0.05116238  0.68902865  0.27428589  1  0  0.451865  0  0.847908  0  0  0.419334  0  0.913486  0  0  0.42992  0  0.898061  0  0  0.30451  0.411336  0  0.925015  0
H  H25  1  0.94883784  0.18903013  0.22571488  1  0  0.451884  0  0.847884  0  0  0.41935  0  0.913468  0  0  0.429936  0  0.898043  0  0  0.304517  0.411352  0  0.924999  0
H  H26  1  0.94883633  0.31097137  0.72571431  1  0  0.451962  0  0.847754  0  0  0.419328  0  0.913473  0  0  0.429914  0  0.898049  0  0  0.304536  0.411333  0  0.924993  0
H  H27  1  0.05116207  0.81096893  0.77428548  1  0  0.4519  0  0.847856  0  0  0.419365  0  0.91344  0  0  0.429951  0  0.898016  0  0  0.304517  0.411368  0  0.92497  0
H  H28  1  0.55867092  0.88615758  0.07045404  1  0  0.453399  0  0.82765  0  0  0.426115  0  0.884844  0  0  0.434957  0  0.871974  0  0  0.310584  0.419448  0  0.894408  0
H  H29  1  0.44132843  0.38615913  0.42954688  1  0  0.453395  0  0.827665  0  0  0.426103  0  0.884871  0  0  0.434943  0  0.872004  0  0  0.310584  0.419435  0  0.894435  0
H  H30  1  0.44132900  0.11384243  0.92954777  1  0  0.453385  0  0.827668  0  0  0.4261  0  0.884859  0  0  0.434945  0  0.871986  0  0  0.310586  0.419432  0  0.894424  0
H  H31  1  0.55866908  0.61384279  0.57045173  1  0  0.453361  0  0.827716  0  0  0.426077  0  0.884907  0  0  0.434921  0  0.872034  0  0  0.310585  0.41941  0  0.894471  0
H  H32  1  0.62464408  0.02671165  0.08218354  1  0  0.435861  0  0.854142  0  0  0.405711  0  0.918854  0  0  0.415652  0  0.904224  0  0  0.305166  0.398565  0  0.929137  0
H  H33  1  0.37535708  0.52671167  0.41781714  1  0  0.435873  0  0.854129  0  0  0.405706  0  0.918872  0  0  0.415647  0  0.904242  0  0  0.305147  0.39856  0  0.929155  0
H  H34  1  0.37535822  0.97328837  0.91781856  1  0  0.435876  0  0.854097  0  0  0.405712  0  0.918853  0  0  0.415649  0  0.904229  0  0  0.30515  0.398565  0  0.929138  0
H  H35  1  0.62464163  0.47328834  0.58218162  1  0  0.43577  0  0.854163  0  0  0.405608  0  0.918979  0  0  0.415544  0  0.904358  0  0  0.305124  0.398462  0  0.929265  0
C  C36  1  0.53283701  0.24194842  0.27470560  1  0  0.266061  0  3.67668  0  0  0.210987  0  3.953852  0  0  0.224893  0  3.966637  0  0  0.143188  0.20151  0  3.94541  0
C  C37  1  0.46716330  0.74194809  0.22529525  1  0  0.265873  0  3.676725  0  0  0.210774  0  3.953898  0  0  0.224679  0  3.966684  0  0  0.143114  0.2013  0  3.945448  0
C  C38  1  0.46716528  0.75805064  0.72529433  1  0  0.265975  0  3.676684  0  0  0.210908  0  3.953864  0  0  0.224815  0  3.966645  0  0  0.143179  0.201428  0  3.945428  0
C  C39  1  0.53283183  0.25805192  0.77470306  1  0  0.265953  0  3.676821  0  0  0.210847  0  3.95401  0  0  0.224753  0  3.966793  0  0  0.143161  0.201371  0  3.945561  0
C  C40  1  0.33326884  0.15249170  0.17595357  1  0  0.001382  0  3.756458  0  0  -0.004385  0  4.008758  0  0  -0.007343  0  4.029399  0  0  0.075692  -0.003227  0  3.996502  0
C  C41  1  0.66673251  0.65249174  0.32404730  1  0  0.001351  0  3.756425  0  0  -0.004469  0  4.008813  0  0  -0.007426  0  4.029451  0  0  0.075668  -0.003309  0  3.996556  0
C  C42  1  0.66673701  0.84750546  0.82404536  1  0  0.001258  0  3.756524  0  0  -0.004505  0  4.008814  0  0  -0.007477  0  4.029473  0  0  0.075659  -0.003346  0  3.996556  0
C  C43  1  0.33326143  0.34750543  0.67595231  1  0  0.001434  0  3.756469  0  0  -0.004423  0  4.008863  0  0  -0.007393  0  4.029522  0  0  0.075667  -0.003262  0  3.99661  0
C  C44  1  0.37717600  0.26163508  0.12964465  1  0  -0.016719  0  3.767872  0  0  -0.023627  0  4.025118  0  0  -0.024911  0  4.044731  0  0  0.073027  -0.023089  0  4.012895  0
C  C45  1  0.62282434  0.76163614  0.37035623  1  0  -0.01658  0  3.767778  0  0  -0.023485  0  4.025054  0  0  -0.02477  0  4.044669  0  0  0.073041  -0.022953  0  4.012839  0
C  C46  1  0.62282747  0.73836303  0.87035470  1  0  -0.016584  0  3.767771  0  0  -0.023521  0  4.025069  0  0  -0.024804  0  4.044685  0  0  0.073045  -0.022982  0  4.012847  0
C  C47  1  0.37717080  0.23836483  0.62964281  1  0  -0.016557  0  3.767885  0  0  -0.023424  0  4.025116  0  0  -0.024705  0  4.044733  0  0  0.07309  -0.022901  0  4.012912  0
C  C48  1  0.21277126  0.05491666  0.14541553  1  0  0.691494  0  3.889923  0  0  0.642323  0  4.186493  0  0  0.679118  0  4.173157  0  0  0.21709  0.617487  0  4.187491  0
C  C49  1  0.78722756  0.55491685  0.35458563  1  0  0.691412  0  3.890012  0  0  0.642227  0  4.186649  0  0  0.679022  0  4.173313  0  0  0.217041  0.617394  0  4.187644  0
C  C50  1  0.78723103  0.94508145  0.85458513  1  0  0.691415  0  3.890087  0  0  0.642268  0  4.186636  0  0  0.679068  0  4.173302  0  0  0.217064  0.617433  0  4.18763  0
C  C51  1  0.21276757  0.44508411  0.64541341  1  0  0.691332  0  3.890087  0  0  0.642196  0  4.186666  0  0  0.678996  0  4.173329  0  0  0.217025  0.617362  0  4.187663  0
C  C52  1  0.31693388  0.32320072  0.03288829  1  0  0.690565  0  3.904961  0  0  0.639253  0  4.200891  0  0  0.675813  0  4.188759  0  0  0.2221  0.613584  0  4.20748  0
C  C53  1  0.68307013  0.82320108  0.46711240  1  0  0.69049  0  3.904919  0  0  0.63917  0  4.200873  0  0  0.67573  0  4.18874  0  0  0.222053  0.6135  0  4.207472  0
C  C54  1  0.68306840  0.67679930  0.96711091  1  0  0.69044  0  3.905067  0  0  0.639117  0  4.201021  0  0  0.675679  0  4.188888  0  0  0.222058  0.613441  0  4.207622  0
C  C55  1  0.31693216  0.17680083  0.53288680  1  0  0.690394  0  3.905111  0  0  0.639066  0  4.20106  0  0  0.675625  0  4.188932  0  0  0.222017  0.613407  0  4.207644  0
S  S56  1  0.79773149  0.21948751  0.04356881  1  0  1.64727  0  5.74727  0  0  1.520411  0  6.294694  0  0  1.577611  0  6.255442  0  0  0.59268  1.479892  0  6.317263  0
S  S57  1  0.20227236  0.71948654  0.45643246  1  0  1.647135  0  5.747595  0  0  1.520264  0  6.295033  0  0  1.57746  0  6.255786  0  0  0.592635  1.479747  0  6.317603  0
S  S58  1  0.20227320  0.78051346  0.95643432  1  0  1.647305  0  5.747456  0  0  1.520414  0  6.294895  0  0  1.577597  0  6.255656  0  0  0.592672  1.479895  0  6.317465  0
S  S59  1  0.79772634  0.28051538  0.54356485  1  0  1.647299  0  5.747308  0  0  1.520403  0  6.294762  0  0  1.577585  0  6.25552  0  0  0.592663  1.479881  0  6.31734  0
N  N60  1  0.50321097  0.31588308  0.19371908  1  0  -0.428406  0  3.237702  0  0  -0.360816  0  3.523158  0  0  -0.382276  0  3.54012  0  0  -0.361741  -0.345553  0  3.511486  0
N  N61  1  0.49679065  0.81588295  0.30628203  1  0  -0.428362  0  3.237663  0  0  -0.360753  0  3.523112  0  0  -0.382212  0  3.540074  0  0  -0.361701  -0.345491  0  3.511442  0
N  N62  1  0.49679013  0.68411694  0.80628143  1  0  -0.42843  0  3.237554  0  0  -0.360837  0  3.523027  0  0  -0.382294  0  3.539985  0  0  -0.36175  -0.345576  0  3.511361  0
N  N63  1  0.50320686  0.18411707  0.69371658  1  0  -0.428425  0  3.237775  0  0  -0.360836  0  3.523235  0  0  -0.382295  0  3.540195  0  0  -0.36173  -0.34557  0  3.511569  0
N  N64  1  0.43112275  0.14352729  0.26807347  1  0  -0.430077  0  3.208159  0  0  -0.357348  0  3.492001  0  0  -0.379028  0  3.508212  0  0  -0.356277  -0.341912  0  3.480828  0
N  N65  1  0.56887860  0.64352705  0.23192738  1  0  -0.429969  0  3.208089  0  0  -0.357211  0  3.491929  0  0  -0.378892  0  3.508145  0  0  -0.35621  -0.341773  0  3.480747  0
N  N66  1  0.56888192  0.85647178  0.73192530  1  0  -0.429973  0  3.20812  0  0  -0.357237  0  3.491935  0  0  -0.378913  0  3.508152  0  0  -0.356229  -0.341801  0  3.480762  0
N  N67  1  0.43111534  0.35647201  0.76807150  1  0  -0.430015  0  3.208226  0  0  -0.357251  0  3.492083  0  0  -0.378928  0  3.508301  0  0  -0.356216  -0.341813  0  3.480904  0
O  O68  1  0.17944003  0.97859313  0.21076564  1  0  -0.699931  0  2.037416  0  0  -0.640755  0  2.292991  0  0  -0.667966  0  2.280769  0  0  -0.365297  -0.61445  0  2.301491  0
O  O69  1  0.82055946  0.47859276  0.28923469  1  0  -0.699907  0  2.037392  0  0  -0.640735  0  2.293012  0  0  -0.667926  0  2.28075  0  0  -0.365293  -0.614433  0  2.301514  0
O  O70  1  0.82055987  0.02140783  0.78923400  1  0  -0.699867  0  2.037341  0  0  -0.640744  0  2.292961  0  0  -0.667939  0  2.280702  0  0  -0.365297  -0.614437  0  2.301459  0
O  O71  1  0.17943806  0.52140821  0.71076464  1  0  -0.699889  0  2.037406  0  0  -0.640746  0  2.293004  0  0  -0.66795  0  2.28076  0  0  -0.365299  -0.614439  0  2.301502  0
O  O72  1  0.13819480  0.04266530  0.05587491  1  0  -0.82475  0  2.270911  0  0  -0.785321  0  2.532753  0  0  -0.811426  0  2.523203  0  0  -0.437573  -0.750762  0  2.539157  0
O  O73  1  0.86180281  0.54266669  0.44412608  1  0  -0.824712  0  2.271028  0  0  -0.785231  0  2.532804  0  0  -0.811344  0  2.523268  0  0  -0.437524  -0.750673  0  2.539207  0
O  O74  1  0.86180393  0.95733282  0.94412675  1  0  -0.82472  0  2.271024  0  0  -0.785235  0  2.532728  0  0  -0.811346  0  2.523186  0  0  -0.437531  -0.750678  0  2.53913  0
O  O75  1  0.13819352  0.45733332  0.55587383  1  0  -0.824657  0  2.271044  0  0  -0.785194  0  2.532804  0  0  -0.811303  0  2.523262  0  0  -0.437513  -0.750637  0  2.539209  0
O  O76  1  0.20977954  0.27364121  0.96764166  1  0  -0.724346  0  2.106629  0  0  -0.680812  0  2.364064  0  0  -0.705362  0  2.35075  0  0  -0.410946  -0.653529  0  2.375693  0
O  O77  1  0.79022714  0.77364451  0.53235766  1  0  -0.724327  0  2.10661  0  0  -0.680791  0  2.364037  0  0  -0.705339  0  2.350724  0  0  -0.410926  -0.653508  0  2.375667  0
O  O78  1  0.79022631  0.72636070  0.03235726  1  0  -0.724344  0  2.106593  0  0  -0.680812  0  2.364028  0  0  -0.705363  0  2.350714  0  0  -0.411011  -0.653531  0  2.375659  0
O  O79  1  0.20977633  0.22635931  0.46764024  1  0  -0.724282  0  2.106677  0  0  -0.680746  0  2.364109  0  0  -0.705295  0  2.350797  0  0  -0.410937  -0.653466  0  2.375733  0
O  O80  1  0.37986820  0.43083897  0.01953566  1  0  -0.656194  0  2.092675  0  0  -0.573381  0  2.35699  0  0  -0.604763  0  2.341579  0  0  -0.324625  -0.551763  0  2.368071  0
O  O81  1  0.62013241  0.93083931  0.48046547  1  0  -0.656182  0  2.092652  0  0  -0.573358  0  2.356972  0  0  -0.604742  0  2.341562  0  0  -0.324598  -0.551738  0  2.368056  0
O  O82  1  0.62013050  0.56916105  0.98046237  1  0  -0.65612  0  2.092724  0  0  -0.573274  0  2.356999  0  0  -0.604657  0  2.341592  0  0  -0.324544  -0.551652  0  2.368081  0
O  O83  1  0.37986987  0.06916260  0.51953374  1  0  -0.656141  0  2.09268  0  0  -0.573323  0  2.357  0  0  -0.604706  0  2.341593  0  0  -0.324588  -0.551705  0  2.368078  0
O  O84  1  0.62679344  0.18683138  0.01360061  1  0  -0.744039  0  1.939254  0  0  -0.684391  0  2.180865  0  0  -0.70731  0  2.164927  0  0  -0.343867  -0.668936  0  2.192453  0
O  O85  1  0.37321155  0.68683060  0.48640148  1  0  -0.744045  0  1.939313  0  0  -0.684392  0  2.180909  0  0  -0.707302  0  2.164977  0  0  -0.3439  -0.66893  0  2.192488  0
O  O86  1  0.37321125  0.81316864  0.98640251  1  0  -0.744051  0  1.939326  0  0  -0.684395  0  2.180928  0  0  -0.707287  0  2.164992  0  0  -0.343872  -0.668934  0  2.192506  0
O  O87  1  0.62678713  0.31317227  0.51359438  1  0  -0.744088  0  1.939324  0  0  -0.684386  0  2.180864  0  0  -0.707262  0  2.164916  0  0  -0.343875  -0.668926  0  2.192447  0
O  O88  1  0.82149331  0.34613940  0.09356624  1  0  -0.745452  0  1.981742  0  0  -0.669624  0  2.23962  0  0  -0.694574  0  2.218245  0  0  -0.35178  -0.65261  0  2.2552  0
O  O89  1  0.17851194  0.84613735  0.40643608  1  0  -0.745453  0  1.981896  0  0  -0.669621  0  2.239782  0  0  -0.694564  0  2.218396  0  0  -0.351735  -0.652602  0  2.255353  0
O  O90  1  0.17851379  0.65385967  0.90643935  1  0  -0.745496  0  1.981787  0  0  -0.669648  0  2.239654  0  0  -0.694588  0  2.218272  0  0  -0.351729  -0.652625  0  2.255215  0
O  O91  1  0.82148437  0.15386171  0.59356165  1  0  -0.745436  0  1.981744  0  0  -0.669595  0  2.239616  0  0  -0.694536  0  2.218235  0  0  -0.351698  -0.652573  0  2.255184  0
O  O92  1  0.87655163  0.12251662  0.11838542  1  0  -0.842528  0  2.082983  0  0  -0.779195  0  2.336091  0  0  -0.802665  0  2.319811  0  0  -0.408281  -0.754384  0  2.347877  0
O  O93  1  0.12344968  0.62251733  0.38161541  1  0  -0.842476  0  2.083042  0  0  -0.779121  0  2.336137  0  0  -0.802593  0  2.319866  0  0  -0.408257  -0.754313  0  2.347927  0
O  O94  1  0.12345187  0.87748244  0.88161683  1  0  -0.842599  0  2.083005  0  0  -0.779241  0  2.336111  0  0  -0.802713  0  2.319842  0  0  -0.40832  -0.754431  0  2.347904  0
O  O95  1  0.87654783  0.37748553  0.61838320  1  0  -0.842637  0  2.083007  0  0  -0.779249  0  2.336143  0  0  -0.802721  0  2.319867  0  0  -0.408329  -0.754432  0  2.347926  0
O  O96  1  0.87534828  0.22148657  0.95716685  1  0  -0.808035  0  2.041539  0  0  -0.765468  0  2.315165  0  0  -0.786984  0  2.295824  0  0  -0.417238  -0.74097  0  2.330039  0
O  O97  1  0.12465594  0.72148463  0.54283355  1  0  -0.807956  0  2.041568  0  0  -0.7654  0  2.315188  0  0  -0.786917  0  2.295846  0  0  -0.417235  -0.7409  0  2.330055  0
O  O98  1  0.12465640  0.77851440  0.04283482  1  0  -0.807995  0  2.041572  0  0  -0.765418  0  2.31518  0  0  -0.786937  0  2.295844  0  0  -0.417222  -0.740921  0  2.330044  0
O  O99  1  0.87534395  0.27851538  0.45716391  1  0  -0.807992  0  2.041557  0  0  -0.76542  0  2.315181  0  0  -0.78694  0  2.295845  0  0  -0.417227  -0.740922  0  2.330049  0
O  O100  1  0.90791560  0.93898137  0.28515726  1  0  -0.865977  0  1.841475  0  0  -0.820643  0  2.020059  0  0  -0.838757  0  1.991272  0  0  -0.599435  -0.799709  0  2.044162  0
O  O101  1  0.09208503  0.43898219  0.21484461  1  0  -0.866019  0  1.841452  0  0  -0.820689  0  2.020033  0  0  -0.838803  0  1.991246  0  0  -0.599496  -0.799751  0  2.044139  0
O  O102  1  0.09208193  0.06101864  0.71484352  1  0  -0.865916  0  1.841497  0  0  -0.820576  0  2.020114  0  0  -0.83869  0  1.991329  0  0  -0.599461  -0.799638  0  2.044183  0
O  O103  1  0.90791488  0.56101972  0.78515575  1  0  -0.866002  0  1.841462  0  0  -0.820656  0  2.02003  0  0  -0.838769  0  1.991244  0  0  -0.59946  -0.799718  0  2.044134  0
O  O104  1  0.99911973  0.71097214  0.20486694  1  0  -0.930079  0  1.891421  0  0  -0.897985  0  2.104496  0  0  -0.915127  0  2.071839  0  0  -0.659384  -0.875664  0  2.130994  0
O  O105  1  0.00087934  0.21097021  0.29513444  1  0  -0.930089  0  1.891348  0  0  -0.897989  0  2.104457  0  0  -0.91513  0  2.071799  0  0  -0.659375  -0.875667  0  2.130924  0
O  O106  1  0.00087898  0.28902788  0.79513327  1  0  -0.930129  0  1.891305  0  0  -0.897949  0  2.104561  0  0  -0.915091  0  2.071905  0  0  -0.659384  -0.875626  0  2.131058  0
O  O107  1  0.99911938  0.78902885  0.70486576  1  0  -0.930077  0  1.891423  0  0  -0.897982  0  2.104491  0  0  -0.915123  0  2.071834  0  0  -0.659354  -0.875657  0  2.131  0
O  O108  1  0.64867427  0.93840085  0.10423650  1  0  -0.898899  0  1.837611  0  0  -0.862368  0  2.015833  0  0  -0.880148  0  1.987964  0  0  -0.628054  -0.840591  0  2.040291  0
O  O109  1  0.35132516  0.43840131  0.39576450  1  0  -0.898901  0  1.837584  0  0  -0.862363  0  2.015817  0  0  -0.880149  0  1.987966  0  0  -0.628051  -0.840602  0  2.040317  0
O  O110  1  0.35132446  0.06159916  0.89576661  1  0  -0.898865  0  1.837559  0  0  -0.862321  0  2.0158  0  0  -0.88011  0  1.987948  0  0  -0.628042  -0.840549  0  2.040279  0
O  O111  1  0.64867236  0.56159965  0.60423411  1  0  -0.898731  0  1.837594  0  0  -0.862194  0  2.015886  0  0  -0.879987  0  1.988052  0  0  -0.628021  -0.840418  0  2.040353  0
