# generated using pymatgen
data_FeH24C34(SN3)2
_symmetry_space_group_name_H-M   'P 1'
_cell_length_a   7.75309670
_cell_length_b   8.94629670
_cell_length_c   11.26040048
_cell_angle_alpha   98.21544751
_cell_angle_beta   105.63420462
_cell_angle_gamma   105.05489972
_symmetry_Int_Tables_number   1
_chemical_formula_structural   FeH24C34(SN3)2
_chemical_formula_sum   'Fe1 H24 C34 S2 N6'
_cell_volume   707.03634123
_cell_formula_units_Z   1
loop_
 _symmetry_equiv_pos_site_id
 _symmetry_equiv_pos_as_xyz
  1  'x, y, z'
loop_
 _atom_site_type_symbol
 _atom_site_label
 _atom_site_symmetry_multiplicity
 _atom_site_fract_x
 _atom_site_fract_y
 _atom_site_fract_z
 _atom_site_occupancy
 _atom_site_hle17_bader_spin_density
 _atom_site_hle17_ddec_charge
 _atom_site_hle17_ddec_spin_density
 _atom_site_hle17_ddec_sum_bond_order
 _atom_site_hle17_magmom
 _atom_site_hse06_10hf_bader_spin_density
 _atom_site_hse06_10hf_ddec_charge
 _atom_site_hse06_10hf_ddec_spin_density
 _atom_site_hse06_10hf_ddec_sum_bond_order
 _atom_site_hse06_10hf_magmom
 _atom_site_hse06_bader_spin_density
 _atom_site_hse06_ddec_charge
 _atom_site_hse06_ddec_spin_density
 _atom_site_hse06_ddec_sum_bond_order
 _atom_site_hse06_magmom
 _atom_site_pbe_bader_spin_density
 _atom_site_pbe_cm5_charge
 _atom_site_pbe_ddec_charge
 _atom_site_pbe_ddec_spin_density
 _atom_site_pbe_ddec_sum_bond_order
 _atom_site_pbe_magmom
Fe  Fe0  1  0.00144378  0.49992922  0.99957529  1  0  0.525781  0  2.988176  0  0  0.477699  0  3.482289  0  0  0.532493  0  3.420238  0  0  0.710092  0.450879  0  3.514811  0
H  H1  1  0.83203511  0.20057111  0.47474002  1  0  0.0904  0  0.955203  0  0  0.104612  0  1.012073  0  0  0.107394  0  1.010783  0  0  0.098886  0.102502  0  1.013264  0
H  H2  1  0.16796525  0.79952267  0.52524085  1  0  0.090518  0  0.954953  0  0  0.104747  0  1.011848  0  0  0.107533  0  1.010544  0  0  0.098958  0.102647  0  1.013037  0
H  H3  1  0.54885697  0.26348134  0.38730935  1  0  0.087634  0  0.99222  0  0  0.098579  0  1.058037  0  0  0.101353  0  1.056483  0  0  0.09109  0.096486  0  1.059154  0
H  H4  1  0.45109302  0.73655983  0.61290145  1  0  0.087421  0  0.99167  0  0  0.098605  0  1.057267  0  0  0.101353  0  1.055763  0  0  0.091025  0.096508  0  1.058425  0
H  H5  1  0.48105280  0.25778880  0.58709338  1  0  0.09241  0  0.981267  0  0  0.099933  0  1.049835  0  0  0.102424  0  1.049445  0  0  0.09439  0.097991  0  1.050372  0
H  H6  1  0.51886463  0.74219645  0.41310230  1  0  0.092216  0  0.98156  0  0  0.100032  0  1.049809  0  0  0.102539  0  1.04941  0  0  0.094353  0.098075  0  1.050353  0
H  H7  1  0.63344422  0.27060937  0.01927244  1  0  0.084018  0  0.955402  0  0  0.093538  0  1.015735  0  0  0.093982  0  1.015254  0  0  0.117843  0.093352  0  1.016108  0
H  H8  1  0.36578643  0.72959070  0.98053559  1  0  0.084379  0  0.955782  0  0  0.094197  0  1.015738  0  0  0.094588  0  1.015251  0  0  0.118099  0.09398  0  1.016216  0
H  H9  1  0.78689569  0.03177784  0.62567854  1  0  0.090677  0  0.996245  0  0  0.096397  0  1.068078  0  0  0.099013  0  1.067409  0  0  0.090844  0.094296  0  1.068938  0
H  H10  1  0.21308708  0.96829330  0.37430005  1  0  0.090699  0  0.996749  0  0  0.096348  0  1.068646  0  0  0.098969  0  1.067976  0  0  0.090782  0.094237  0  1.069514  0
H  H11  1  0.05012342  0.41110422  0.43977780  1  0  0.098978  0  0.956051  0  0  0.110026  0  1.018017  0  0  0.112612  0  1.017837  0  0  0.103952  0.108139  0  1.018652  0
H  H12  1  0.94959135  0.58898191  0.55981691  1  0  0.099424  0  0.956003  0  0  0.110209  0  1.018278  0  0  0.112806  0  1.01806  0  0  0.104134  0.108301  0  1.018927  0
H  H13  1  0.71998071  0.76622423  0.31157729  1  0  0.104363  0  0.990511  0  0  0.110967  0  1.058268  0  0  0.112214  0  1.060536  0  0  0.100182  0.110428  0  1.056204  0
H  H14  1  0.28015301  0.23378509  0.68898007  1  0  0.103897  0  0.991428  0  0  0.11056  0  1.059066  0  0  0.111815  0  1.061315  0  0  0.100105  0.109994  0  1.057053  0
H  H15  1  0.07102286  0.01754836  0.17948933  1  0  0.100889  0  0.974962  0  0  0.108873  0  1.042589  0  0  0.11123  0  1.042206  0  0  0.102502  0.107085  0  1.04311  0
H  H16  1  0.92874901  0.98215556  0.82052791  1  0  0.100971  0  0.974896  0  0  0.109038  0  1.042363  0  0  0.111424  0  1.041983  0  0  0.102553  0.107231  0  1.042868  0
H  H17  1  0.07287741  0.18632761  0.02355132  1  0  0.07612  0  0.952539  0  0  0.085743  0  1.014814  0  0  0.08749  0  1.012228  0  0  0.117323  0.084281  0  1.017285  0
H  H18  1  0.92777450  0.81325962  0.97647668  1  0  0.077063  0  0.951671  0  0  0.086681  0  1.013981  0  0  0.088454  0  1.011358  0  0  0.117687  0.085184  0  1.016474  0
H  H19  1  0.06967167  0.56863703  0.27702519  1  0  0.083309  0  0.951177  0  0  0.092484  0  1.012404  0  0  0.093741  0  1.011259  0  0  0.118836  0.091449  0  1.013474  0
H  H20  1  0.93067445  0.43130535  0.72251360  1  0  0.083303  0  0.951715  0  0  0.092507  0  1.012871  0  0  0.093745  0  1.011716  0  0  0.118984  0.091535  0  1.013866  0
H  H21  1  0.86488460  0.76035303  0.14243384  1  0  0.071195  0  0.959609  0  0  0.079035  0  1.027217  0  0  0.079627  0  1.026054  0  0  0.112715  0.078928  0  1.028023  0
H  H22  1  0.13444333  0.23969914  0.85757168  1  0  0.07186  0  0.959623  0  0  0.079887  0  1.027014  0  0  0.080496  0  1.025761  0  0  0.112998  0.079737  0  1.027932  0
H  H23  1  0.48333725  0.25333439  0.18608587  1  0  0.097116  0  0.993131  0  0  0.103074  0  1.063817  0  0  0.105363  0  1.063868  0  0  0.094878  0.101539  0  1.063834  0
H  H24  1  0.51657759  0.74660965  0.81425539  1  0  0.097546  0  0.992458  0  0  0.103444  0  1.063122  0  0  0.105742  0  1.063165  0  0  0.095139  0.101894  0  1.063169  0
C  C25  1  0.90842204  0.11431549  0.48713022  1  0  -0.095368  0  3.736324  0  0  -0.114414  0  3.983949  0  0  -0.115264  0  4.001858  0  0  -0.088041  -0.113851  0  3.972273  0
C  C26  1  0.09158981  0.88578786  0.51285205  1  0  -0.095099  0  3.73652  0  0  -0.114172  0  3.984101  0  0  -0.115007  0  4.001989  0  0  -0.088052  -0.113642  0  3.97247  0
C  C27  1  0.52741305  0.36796288  0.43630585  1  0  -0.109519  0  3.742628  0  0  -0.129223  0  3.989457  0  0  -0.132065  0  4.011115  0  0  -0.089833  -0.126696  0  3.974897  0
C  C28  1  0.47250909  0.63205546  0.56392571  1  0  -0.109962  0  3.740865  0  0  -0.130041  0  3.98769  0  0  -0.132803  0  4.009362  0  0  -0.090034  -0.127588  0  3.973108  0
C  C29  1  0.02470736  0.09622822  0.41298798  1  0  0.040811  0  3.773889  0  0  0.055844  0  4.005271  0  0  0.055402  0  4.026116  0  0  -0.008703  0.055958  0  3.991398  0
C  C30  1  0.97527954  0.90385843  0.58698344  1  0  0.040083  0  3.774677  0  0  0.054949  0  4.006105  0  0  0.054475  0  4.026969  0  0  -0.009076  0.055085  0  3.992232  0
C  C31  1  0.48733810  0.36404771  0.54907976  1  0  -0.094748  0  3.725864  0  0  -0.112939  0  3.971803  0  0  -0.115825  0  3.993419  0  0  -0.086087  -0.111511  0  3.957776  0
C  C32  1  0.51257037  0.63595158  0.45114711  1  0  -0.094401  0  3.724709  0  0  -0.11269  0  3.970794  0  0  -0.11566  0  3.992395  0  0  -0.085813  -0.111159  0  3.956785  0
C  C33  1  0.29266423  0.80860687  0.17391444  1  0  0.256131  0  4.032124  0  0  0.246802  0  4.341228  0  0  0.271699  0  4.349657  0  0  0.132939  0.230536  0  4.334176  0
C  C34  1  0.70806205  0.19148804  0.82611208  1  0  0.256693  0  4.031089  0  0  0.247349  0  4.340096  0  0  0.272219  0  4.348492  0  0  0.132735  0.231115  0  4.33307  0
C  C35  1  0.54116887  0.50357786  0.38509645  1  0  0.04307  0  3.767051  0  0  0.059185  0  3.996065  0  0  0.058848  0  4.018907  0  0  -0.008041  0.059341  0  3.981128  0
C  C36  1  0.45872518  0.49641416  0.61514121  1  0  0.042892  0  3.766928  0  0  0.059738  0  3.995617  0  0  0.059208  0  4.018484  0  0  -0.007425  0.060113  0  3.980635  0
C  C37  1  0.64831240  0.37789802  0.08567298  1  0  0.126683  0  3.687243  0  0  0.097654  0  3.940528  0  0  0.106665  0  3.959106  0  0  0.045427  0.090362  0  3.929277  0
C  C38  1  0.35086372  0.62222500  0.91426806  1  0  0.12726  0  3.682436  0  0  0.09764  0  3.935839  0  0  0.107004  0  3.954111  0  0  0.044988  0.090058  0  3.924966  0
C  C39  1  0.04729020  0.19594817  0.32181943  1  0  0.107574  0  3.772107  0  0  0.117955  0  4.001908  0  0  0.125821  0  4.021266  0  0  0.010862  0.112431  0  3.988876  0
C  C40  1  0.95265208  0.80404252  0.67806066  1  0  0.107832  0  3.772554  0  0  0.11873  0  4.001627  0  0  0.126646  0  4.020967  0  0  0.01088  0.113164  0  3.988635  0
C  C41  1  0.59600178  0.50860639  0.26995018  1  0  0.113444  0  3.73766  0  0  0.12431  0  3.965705  0  0  0.129611  0  3.987206  0  0  0.013434  0.11924  0  3.953173  0
C  C42  1  0.40381510  0.49139131  0.73026299  1  0  0.113832  0  3.736927  0  0  0.123401  0  3.966683  0  0  0.129068  0  3.987906  0  0  0.012782  0.117959  0  3.954416  0
C  C43  1  0.88364413  0.01983257  0.57277264  1  0  -0.101864  0  3.724706  0  0  -0.119594  0  3.972377  0  0  -0.121203  0  3.99138  0  0  -0.089317  -0.118945  0  3.960343  0
C  C44  1  0.11635584  0.98026001  0.42721068  1  0  -0.102834  0  3.725731  0  0  -0.120384  0  3.97311  0  0  -0.122017  0  3.992147  0  0  -0.089653  -0.119757  0  3.961127  0
C  C45  1  0.05154011  0.35515744  0.34775733  1  0  -0.160002  0  3.730016  0  0  -0.179017  0  3.98116  0  0  -0.187679  0  4.001195  0  0  -0.084236  -0.173614  0  3.968127  0
C  C46  1  0.94837658  0.64485212  0.65190824  1  0  -0.160502  0  3.732188  0  0  -0.179595  0  3.983313  0  0  -0.188259  0  4.003308  0  0  -0.084405  -0.174169  0  3.970322  0
C  C47  1  0.69548812  0.65266326  0.24942708  1  0  -0.161604  0  3.709659  0  0  -0.179328  0  3.955956  0  0  -0.188327  0  3.97976  0  0  -0.084824  -0.173142  0  3.940549  0
C  C48  1  0.30433234  0.34742876  0.75092238  1  0  -0.159824  0  3.709976  0  0  -0.177506  0  3.957063  0  0  -0.186526  0  3.980584  0  0  -0.084287  -0.171349  0  3.941965  0
C  C49  1  0.06490146  0.13777620  0.20450114  1  0  -0.162162  0  3.714858  0  0  -0.180165  0  3.962056  0  0  -0.188515  0  3.981474  0  0  -0.083249  -0.174848  0  3.949764  0
C  C50  1  0.93505979  0.86199447  0.79543851  1  0  -0.162913  0  3.714285  0  0  -0.181122  0  3.961434  0  0  -0.189549  0  3.98079  0  0  -0.083538  -0.175754  0  3.949194  0
C  C51  1  0.06919153  0.23233687  0.11725324  1  0  0.128339  0  3.678265  0  0  0.099305  0  3.932  0  0  0.110062  0  3.947077  0  0  0.046106  0.091375  0  3.923247  0
C  C52  1  0.93130126  0.76737594  0.88268890  1  0  0.128095  0  3.675659  0  0  0.099055  0  3.929533  0  0  0.109858  0  3.944598  0  0  0.046236  0.091108  0  3.920798  0
C  C53  1  0.06356292  0.44441214  0.25788322  1  0  0.12394  0  3.6888  0  0  0.093345  0  3.942713  0  0  0.104549  0  3.958319  0  0  0.043616  0.085777  0  3.932538  0
C  C54  1  0.93678304  0.55552503  0.74173929  1  0  0.124178  0  3.691421  0  0  0.093797  0  3.944954  0  0  0.105055  0  3.9606  0  0  0.044006  0.086167  0  3.934721  0
C  C55  1  0.77547092  0.65059073  0.15308104  1  0  0.113831  0  3.71935  0  0  0.084822  0  3.979911  0  0  0.093393  0  3.99845  0  0  0.043985  0.077942  0  3.968442  0
C  C56  1  0.22379176  0.34950587  0.84699201  1  0  0.113855  0  3.715878  0  0  0.084376  0  3.976618  0  0  0.093281  0  3.994811  0  0  0.043523  0.077248  0  3.965547  0
C  C57  1  0.56510419  0.36975007  0.18026665  1  0  -0.161516  0  3.700771  0  0  -0.179226  0  3.94902  0  0  -0.18765  0  3.970504  0  0  -0.086127  -0.173278  0  3.936196  0
C  C58  1  0.43456020  0.63020649  0.81993955  1  0  -0.160755  0  3.700073  0  0  -0.178254  0  3.949139  0  0  -0.186718  0  3.970343  0  0  -0.085604  -0.172288  0  3.936607  0
S  S59  1  0.47242544  0.96188055  0.25569475  1  0  -0.380084  0  2.048261  0  0  -0.366306  0  2.341006  0  0  -0.378984  0  2.332937  0  0  -0.175104  -0.355268  0  2.345782  0
S  S60  1  0.52770348  0.03842886  0.74473078  1  0  -0.381264  0  2.04675  0  0  -0.367161  0  2.339179  0  0  -0.379796  0  2.331155  0  0  -0.175681  -0.356215  0  2.344007  0
N  N61  1  0.06272494  0.38296724  0.14051252  1  0  -0.228584  0  3.311984  0  0  -0.17695  0  3.58831  0  0  -0.201298  0  3.605445  0  0  -0.323487  -0.16173  0  3.576028  0
N  N62  1  0.93830710  0.61690118  0.85929211  1  0  -0.227858  0  3.313781  0  0  -0.176551  0  3.590633  0  0  -0.200998  0  3.607826  0  0  -0.324363  -0.161273  0  3.578304  0
N  N63  1  0.76005998  0.51537039  0.07517657  1  0  -0.2515  0  3.212698  0  0  -0.202112  0  3.48273  0  0  -0.229053  0  3.504315  0  0  -0.297327  -0.182314  0  3.468478  0
N  N64  1  0.23828619  0.48484087  0.92457529  1  0  -0.249203  0  3.223891  0  0  -0.199561  0  3.494935  0  0  -0.226874  0  3.516339  0  0  -0.298681  -0.179788  0  3.480934  0
N  N65  1  0.16257446  0.69504464  0.11311829  1  0  -0.48944  0  3.251514  0  0  -0.464549  0  3.572163  0  0  -0.485588  0  3.571948  0  0  -0.429761  -0.451672  0  3.570005  0
N  N66  1  0.83865220  0.30484442  0.88657306  1  0  -0.489724  0  3.25129  0  0  -0.464612  0  3.571623  0  0  -0.485602  0  3.571355  0  0  -0.429123  -0.451805  0  3.569567  0
