# generated using pymatgen
data_RbH5C7SN4
_symmetry_space_group_name_H-M   'P 1'
_cell_length_a   6.52931491
_cell_length_b   7.14015494
_cell_length_c   21.11365903
_cell_angle_alpha   90.00012044
_cell_angle_beta   89.99933852
_cell_angle_gamma   111.21480744
_symmetry_Int_Tables_number   1
_chemical_formula_structural   RbH5C7SN4
_chemical_formula_sum   'Rb4 H20 C28 S4 N16'
_cell_volume   917.61810711
_cell_formula_units_Z   4
loop_
 _symmetry_equiv_pos_site_id
 _symmetry_equiv_pos_as_xyz
  1  'x, y, z'
loop_
 _atom_site_type_symbol
 _atom_site_label
 _atom_site_symmetry_multiplicity
 _atom_site_fract_x
 _atom_site_fract_y
 _atom_site_fract_z
 _atom_site_occupancy
 _atom_site_hle17_bader_spin_density
 _atom_site_hle17_ddec_charge
 _atom_site_hle17_ddec_spin_density
 _atom_site_hle17_ddec_sum_bond_order
 _atom_site_hle17_magmom
 _atom_site_hse06_10hf_bader_spin_density
 _atom_site_hse06_10hf_ddec_charge
 _atom_site_hse06_10hf_ddec_spin_density
 _atom_site_hse06_10hf_ddec_sum_bond_order
 _atom_site_hse06_10hf_magmom
 _atom_site_hse06_bader_spin_density
 _atom_site_hse06_ddec_charge
 _atom_site_hse06_ddec_spin_density
 _atom_site_hse06_ddec_sum_bond_order
 _atom_site_hse06_magmom
 _atom_site_pbe_bader_spin_density
 _atom_site_pbe_cm5_charge
 _atom_site_pbe_ddec_charge
 _atom_site_pbe_ddec_spin_density
 _atom_site_pbe_ddec_sum_bond_order
 _atom_site_pbe_magmom
Rb  Rb0  1  0.78511450  0.60241892  0.55099720  1  0  0.822314  0  0.593319  0  0  0.738794  0  0.843287  0  0  0.752202  0  0.825854  0  0  0.717678  0.728882  0  0.855683  0
Rb  Rb1  1  0.21489298  0.89759193  0.05099698  1  0  0.822273  0  0.593276  0  0  0.738773  0  0.843216  0  0  0.752177  0  0.825781  0  0  0.717583  0.728859  0  0.855612  0
Rb  Rb2  1  0.21488970  0.39762608  0.44899975  1  0  0.822236  0  0.59343  0  0  0.73878  0  0.843289  0  0  0.752185  0  0.825857  0  0  0.717632  0.72887  0  0.855685  0
Rb  Rb3  1  0.78511201  0.10238234  0.94899428  1  0  0.822251  0  0.593331  0  0  0.738825  0  0.84317  0  0  0.752228  0  0.825739  0  0  0.717562  0.728911  0  0.855566  0
H  H4  1  0.37348707  0.92319409  0.72726746  1  0  0.10736  0  0.94539  0  0  0.119458  0  1.005249  0  0  0.122082  0  1.004238  0  0  0.108182  0.117498  0  1.006162  0
H  H5  1  0.62657188  0.57680107  0.22728286  1  0  0.107401  0  0.945268  0  0  0.119492  0  1.005138  0  0  0.122131  0  1.004103  0  0  0.108253  0.117525  0  1.006073  0
H  H6  1  0.62651985  0.07681177  0.27273139  1  0  0.107385  0  0.945436  0  0  0.119489  0  1.005307  0  0  0.122101  0  1.004313  0  0  0.108219  0.11754  0  1.006208  0
H  H7  1  0.37339458  0.42321850  0.77271741  1  0  0.107316  0  0.94539  0  0  0.119432  0  1.005252  0  0  0.122054  0  1.004233  0  0  0.108258  0.117496  0  1.006142  0
H  H8  1  0.63206842  0.95642937  0.81610569  1  0  0.070953  0  0.983124  0  0  0.077358  0  1.056413  0  0  0.080307  0  1.054469  0  0  0.093682  0.075193  0  1.057949  0
H  H9  1  0.36798403  0.54357539  0.31612250  1  0  0.07087  0  0.982997  0  0  0.077312  0  1.056262  0  0  0.080276  0  1.054284  0  0  0.093702  0.075129  0  1.057838  0
H  H10  1  0.36793041  0.04355244  0.18389221  1  0  0.07102  0  0.98305  0  0  0.077402  0  1.056374  0  0  0.080361  0  1.054408  0  0  0.093723  0.075236  0  1.057907  0
H  H11  1  0.63196529  0.45644728  0.68386830  1  0  0.070713  0  0.983171  0  0  0.077154  0  1.056487  0  0  0.080114  0  1.054519  0  0  0.09365  0.07499  0  1.05802  0
H  H12  1  0.03845555  0.08874952  0.79625091  1  0  0.080819  0  0.998936  0  0  0.087016  0  1.071686  0  0  0.090003  0  1.070607  0  0  0.087238  0.084835  0  1.072509  0
H  H13  1  0.96160123  0.41127537  0.29626694  1  0  0.080867  0  0.998985  0  0  0.087063  0  1.071715  0  0  0.090054  0  1.070632  0  0  0.087233  0.084884  0  1.072541  0
H  H14  1  0.96154132  0.91125036  0.20375457  1  0  0.080844  0  0.9988  0  0  0.087047  0  1.071562  0  0  0.090035  0  1.070482  0  0  0.087235  0.084866  0  1.072386  0
H  H15  1  0.03836178  0.58871262  0.70372101  1  0  0.080911  0  0.998829  0  0  0.087119  0  1.071539  0  0  0.090115  0  1.070469  0  0  0.087256  0.084936  0  1.072367  0
H  H16  1  0.17903507  0.18874248  0.68664916  1  0  0.092412  0  0.946519  0  0  0.104963  0  1.002894  0  0  0.107168  0  1.002708  0  0  0.101622  0.103314  0  1.003241  0
H  H17  1  0.82101670  0.31131974  0.18666415  1  0  0.092226  0  0.946431  0  0  0.104783  0  1.002833  0  0  0.106988  0  1.002648  0  0  0.101507  0.103139  0  1.003171  0
H  H18  1  0.82098054  0.81128893  0.31336058  1  0  0.09238  0  0.94652  0  0  0.104881  0  1.002964  0  0  0.107086  0  1.00278  0  0  0.101626  0.103237  0  1.003302  0
H  H19  1  0.17895564  0.68864564  0.81332570  1  0  0.092217  0  0.94639  0  0  0.104752  0  1.002833  0  0  0.106959  0  1.002642  0  0  0.101525  0.103111  0  1.003167  0
H  H20  1  0.91609253  0.14875506  0.59726834  1  0  0.110159  0  0.957316  0  0  0.114925  0  1.029266  0  0  0.118571  0  1.026544  0  0  0.114444  0.112255  0  1.031289  0
H  H21  1  0.08396811  0.35128401  0.09728344  1  0  0.110175  0  0.95741  0  0  0.114922  0  1.029349  0  0  0.118562  0  1.026638  0  0  0.114434  0.112252  0  1.031371  0
H  H22  1  0.08394165  0.85128830  0.40273951  1  0  0.110267  0  0.95735  0  0  0.115027  0  1.02927  0  0  0.118675  0  1.026549  0  0  0.114448  0.112358  0  1.031295  0
H  H23  1  0.91601431  0.64863768  0.90271446  1  0  0.110057  0  0.957644  0  0  0.114828  0  1.029514  0  0  0.118473  0  1.026812  0  0  0.114395  0.11216  0  1.031536  0
C  C24  1  0.33068768  0.84689681  0.58001768  1  0  0.298604  0  3.877845  0  0  0.266023  0  4.174857  0  0  0.284622  0  4.185651  0  0  0.196257  0.253572  0  4.167202  0
C  C25  1  0.66934551  0.65311511  0.08002708  1  0  0.298539  0  3.877702  0  0  0.265957  0  4.174731  0  0  0.284549  0  4.185533  0  0  0.196303  0.253509  0  4.167061  0
C  C26  1  0.66933492  0.15314058  0.41998401  1  0  0.298611  0  3.877679  0  0  0.266026  0  4.174707  0  0  0.284624  0  4.185498  0  0  0.196171  0.253575  0  4.167057  0
C  C27  1  0.33068645  0.34685001  0.91998266  1  0  0.298298  0  3.878089  0  0  0.265777  0  4.17501  0  0  0.284375  0  4.185806  0  0  0.196159  0.253327  0  4.16735  0
C  C28  1  0.63161576  0.03166475  0.65784578  1  0  0.156399  0  3.806989  0  0  0.148493  0  4.057867  0  0  0.151984  0  4.080275  0  0  0.092141  0.146  0  4.042861  0
C  C29  1  0.36844587  0.46832851  0.15786264  1  0  0.156803  0  3.80678  0  0  0.148921  0  4.057602  0  0  0.152411  0  4.080011  0  0  0.092709  0.146411  0  4.042625  0
C  C30  1  0.36841454  0.96836508  0.34215638  1  0  0.156757  0  3.806827  0  0  0.148849  0  4.057678  0  0  0.152342  0  4.080081  0  0  0.092373  0.146348  0  4.042689  0
C  C31  1  0.63153035  0.53165040  0.84213242  1  0  0.156969  0  3.80658  0  0  0.14899  0  4.057514  0  0  0.152485  0  4.079919  0  0  0.092564  0.146489  0  4.042524  0
C  C32  1  0.55005028  0.97778527  0.71895650  1  0  -0.125803  0  3.724094  0  0  -0.147731  0  3.97389  0  0  -0.149678  0  3.993541  0  0  -0.081263  -0.146324  0  3.960787  0
C  C33  1  0.44998830  0.52221910  0.21897235  1  0  -0.12601  0  3.724518  0  0  -0.147857  0  3.974161  0  0  -0.149817  0  3.993821  0  0  -0.081568  -0.146446  0  3.961053  0
C  C34  1  0.44996499  0.02220701  0.28104614  1  0  -0.125938  0  3.724641  0  0  -0.147842  0  3.974334  0  0  -0.149785  0  3.993991  0  0  -0.081413  -0.14644  0  3.961228  0
C  C35  1  0.54997985  0.47777789  0.78102649  1  0  -0.126046  0  3.724713  0  0  -0.147885  0  3.974368  0  0  -0.149828  0  3.994029  0  0  -0.081538  -0.146501  0  3.961253  0
C  C36  1  0.69732959  0.99864531  0.76854680  1  0  -0.05061  0  3.772805  0  0  -0.058661  0  4.012595  0  0  -0.061255  0  4.03567  0  0  -0.085017  -0.056935  0  3.997168  0
C  C37  1  0.30270751  0.50134649  0.26856145  1  0  -0.050728  0  3.772695  0  0  -0.058791  0  4.0125  0  0  -0.061388  0  4.035595  0  0  -0.085177  -0.05706  0  3.997073  0
C  C38  1  0.30268038  0.00136054  0.23145631  1  0  -0.050474  0  3.772571  0  0  -0.058477  0  4.012326  0  0  -0.061067  0  4.035403  0  0  -0.084886  -0.056748  0  3.9969  0
C  C39  1  0.69724650  0.49866110  0.73143361  1  0  -0.050334  0  3.772641  0  0  -0.058388  0  4.012356  0  0  -0.060978  0  4.035444  0  0  -0.084973  -0.056662  0  3.996928  0
C  C40  1  0.92357627  0.07315384  0.75717366  1  0  -0.072546  0  3.756931  0  0  -0.083896  0  3.996671  0  0  -0.085677  0  4.01867  0  0  -0.087658  -0.082584  0  3.981869  0
C  C41  1  0.07648224  0.42687899  0.25719241  1  0  -0.072505  0  3.756378  0  0  -0.083898  0  3.996201  0  0  -0.085684  0  4.018201  0  0  -0.087575  -0.082588  0  3.981403  0
C  C42  1  0.07642644  0.92684150  0.24283134  1  0  -0.072761  0  3.756732  0  0  -0.084154  0  3.996524  0  0  -0.085938  0  4.018525  0  0  -0.087783  -0.08284  0  3.981724  0
C  C43  1  0.92348175  0.57309997  0.74280075  1  0  -0.072721  0  3.756508  0  0  -0.084105  0  3.996306  0  0  -0.085906  0  4.018318  0  0  -0.087679  -0.082794  0  3.981512  0
C  C44  1  0.00271123  0.12778885  0.69575868  1  0  -0.052796  0  3.7525  0  0  -0.062405  0  3.996027  0  0  -0.0648  0  4.017944  0  0  -0.085776  -0.060799  0  3.981275  0
C  C45  1  0.99735138  0.37224463  0.19577601  1  0  -0.052535  0  3.752055  0  0  -0.06216  0  3.995657  0  0  -0.064554  0  4.017572  0  0  -0.085654  -0.060554  0  3.980906  0
C  C46  1  0.99730967  0.87222899  0.30424822  1  0  -0.052602  0  3.752543  0  0  -0.062167  0  3.996063  0  0  -0.064566  0  4.017988  0  0  -0.085725  -0.060563  0  3.981316  0
C  C47  1  0.00264008  0.62774173  0.80421053  1  0  -0.052569  0  3.751942  0  0  -0.062213  0  3.995589  0  0  -0.064606  0  4.017505  0  0  -0.085722  -0.06061  0  3.980848  0
C  C48  1  0.85711458  0.10672097  0.64545957  1  0  -0.148065  0  3.72854  0  0  -0.166965  0  3.976762  0  0  -0.169549  0  3.997047  0  0  -0.083448  -0.165099  0  3.963097  0
C  C49  1  0.14293542  0.39330859  0.14547247  1  0  -0.148224  0  3.728252  0  0  -0.167072  0  3.97639  0  0  -0.16965  0  3.996669  0  0  -0.083553  -0.165198  0  3.962728  0
C  C50  1  0.14290715  0.89331041  0.35454401  1  0  -0.148499  0  3.728554  0  0  -0.167379  0  3.976771  0  0  -0.169969  0  3.997062  0  0  -0.083583  -0.16551  0  3.963113  0
C  C51  1  0.85705045  0.60664468  0.85452495  1  0  -0.148155  0  3.72781  0  0  -0.166971  0  3.975975  0  0  -0.169559  0  3.996263  0  0  -0.083428  -0.165108  0  3.962318  0
S  S52  1  0.28536096  0.60358636  0.59881022  1  0  -0.612923  0  1.91182  0  0  -0.596741  0  2.242743  0  0  -0.61277  0  2.237156  0  0  -0.32063  -0.584752  0  2.246156  0
S  S53  1  0.71465520  0.89642092  0.09882205  1  0  -0.612946  0  1.911724  0  0  -0.596804  0  2.242688  0  0  -0.612826  0  2.237098  0  0  -0.320664  -0.584814  0  2.246097  0
S  S54  1  0.71465891  0.39644804  0.40119099  1  0  -0.612947  0  1.911813  0  0  -0.596791  0  2.242765  0  0  -0.612817  0  2.237169  0  0  -0.320663  -0.5848  0  2.24618  0
S  S55  1  0.28537087  0.10355626  0.90118532  1  0  -0.612912  0  1.911991  0  0  -0.596812  0  2.242963  0  0  -0.612824  0  2.237359  0  0  -0.320704  -0.584822  0  2.246376  0
N  N56  1  0.48083377  0.01521289  0.60749337  1  0  -0.060149  0  3.537364  0  0  0.023489  0  3.75763  0  0  0.009949  0  3.780546  0  0  -0.120655  0.032304  0  3.742357  0
N  N57  1  0.51920604  0.48478402  0.10750583  1  0  -0.060229  0  3.537176  0  0  0.023384  0  3.757478  0  0  0.009855  0  3.780373  0  0  -0.12082  0.032204  0  3.742205  0
N  N58  1  0.51919074  0.98481396  0.39250927  1  0  -0.060391  0  3.537545  0  0  0.02324  0  3.757879  0  0  0.009706  0  3.780784  0  0  -0.120717  0.03206  0  3.742606  0
N  N59  1  0.48078650  0.51517826  0.89249348  1  0  -0.060366  0  3.537263  0  0  0.023264  0  3.757575  0  0  0.009716  0  3.780513  0  0  -0.120867  0.032088  0  3.742284  0
N  N60  1  0.46799919  0.18223949  0.57942748  1  0  -0.161003  0  2.95034  0  0  -0.153559  0  3.24125  0  0  -0.152618  0  3.250779  0  0  -0.159927  -0.153997  0  3.234722  0
N  N61  1  0.53202893  0.31777282  0.07943082  1  0  -0.160816  0  2.95021  0  0  -0.153371  0  3.241109  0  0  -0.152431  0  3.250635  0  0  -0.159815  -0.153811  0  3.23458  0
N  N62  1  0.53201920  0.81778739  0.42057705  1  0  -0.160729  0  2.9504  0  0  -0.153308  0  3.241331  0  0  -0.15237  0  3.250863  0  0  -0.159823  -0.153745  0  3.234801  0
N  N63  1  0.46796814  0.68219696  0.92056471  1  0  -0.16075  0  2.950489  0  0  -0.153334  0  3.241401  0  0  -0.152389  0  3.250933  0  0  -0.15984  -0.153776  0  3.234871  0
N  N64  1  0.31532130  0.11813273  0.53663572  1  0  -0.085496  0  3.102203  0  0  -0.068665  0  3.414003  0  0  -0.065511  0  3.422569  0  0  -0.171305  -0.070256  0  3.407835  0
N  N65  1  0.68468771  0.38189066  0.03663107  1  0  -0.085708  0  3.10254  0  0  -0.068889  0  3.414355  0  0  -0.065738  0  3.422921  0  0  -0.171399  -0.070482  0  3.408186  0
N  N66  1  0.68469425  0.88190619  0.46337118  1  0  -0.085719  0  3.102608  0  0  -0.068881  0  3.414437  0  0  -0.06573  0  3.423006  0  0  -0.171457  -0.070472  0  3.408269  0
N  N67  1  0.31532154  0.61808659  0.96336683  1  0  -0.085654  0  3.102374  0  0  -0.068794  0  3.41415  0  0  -0.065643  0  3.422713  0  0  -0.171235  -0.070384  0  3.407982  0
N  N68  1  0.22712278  0.91588588  0.53506375  1  0  -0.369549  0  2.977682  0  0  -0.341848  0  3.275633  0  0  -0.354988  0  3.285846  0  0  -0.315496  -0.333062  0  3.268632  0
N  N69  1  0.77287201  0.58412971  0.03506054  1  0  -0.369489  0  2.978194  0  0  -0.341796  0  3.276158  0  0  -0.354932  0  3.286371  0  0  -0.315477  -0.333014  0  3.269162  0
N  N70  1  0.77288426  0.08414707  0.46494172  1  0  -0.36944  0  2.978039  0  0  -0.341752  0  3.276002  0  0  -0.354891  0  3.286221  0  0  -0.315417  -0.332958  0  3.268984  0
N  N71  1  0.22714096  0.41584151  0.96494162  1  0  -0.369269  0  2.977749  0  0  -0.341646  0  3.275777  0  0  -0.354791  0  3.28601  0  0  -0.315432  -0.332853  0  3.268756  0
