# generated using pymatgen
data_NaH8C10N2ClO4
_symmetry_space_group_name_H-M   'P 1'
_cell_length_a   5.10172296
_cell_length_b   12.49904662
_cell_length_c   18.18767009
_cell_angle_alpha   89.99894333
_cell_angle_beta   90.00035882
_cell_angle_gamma   89.99955582
_symmetry_Int_Tables_number   1
_chemical_formula_structural   NaH8C10N2ClO4
_chemical_formula_sum   'Na4 H32 C40 N8 Cl4 O16'
_cell_volume   1159.76721230
_cell_formula_units_Z   4
loop_
 _symmetry_equiv_pos_site_id
 _symmetry_equiv_pos_as_xyz
  1  'x, y, z'
loop_
 _atom_site_type_symbol
 _atom_site_label
 _atom_site_symmetry_multiplicity
 _atom_site_fract_x
 _atom_site_fract_y
 _atom_site_fract_z
 _atom_site_occupancy
 _atom_site_hle17_bader_spin_density
 _atom_site_hle17_ddec_charge
 _atom_site_hle17_ddec_spin_density
 _atom_site_hle17_ddec_sum_bond_order
 _atom_site_hle17_magmom
 _atom_site_hse06_10hf_bader_spin_density
 _atom_site_hse06_10hf_ddec_charge
 _atom_site_hse06_10hf_ddec_spin_density
 _atom_site_hse06_10hf_ddec_sum_bond_order
 _atom_site_hse06_10hf_magmom
 _atom_site_hse06_bader_spin_density
 _atom_site_hse06_ddec_charge
 _atom_site_hse06_ddec_spin_density
 _atom_site_hse06_ddec_sum_bond_order
 _atom_site_hse06_magmom
 _atom_site_pbe_bader_charge
 _atom_site_pbe_bader_spin_density
 _atom_site_pbe_cm5_charge
 _atom_site_pbe_ddec_charge
 _atom_site_pbe_ddec_spin_density
 _atom_site_pbe_ddec_sum_bond_order
 _atom_site_pbe_magmom
Na  Na0  1  0.53420356  0.87215722  0.46598602  1  0  0.875295  0  0.414372  0  0  0.809796  0  0.589725  0  0  0.821661  0  0.568687  0  0.880452  0  0.708917  0.801269  0  0.604608  0
Na  Na1  1  0.03418030  0.12785542  0.53402717  1  0  0.875297  0  0.414342  0  0  0.809766  0  0.58973  0  0  0.82163  0  0.568694  0  0.880455  0  0.708969  0.80124  0  0.604608  0
Na  Na2  1  0.03420397  0.62783716  0.96596595  1  0  0.875339  0  0.414274  0  0  0.80979  0  0.589715  0  0  0.821659  0  0.568684  0  0.880514  0  0.708976  0.801267  0  0.604597  0
Na  Na3  1  0.53419949  0.37215787  0.03403350  1  0  0.875319  0  0.414287  0  0  0.809765  0  0.58972  0  0  0.821637  0  0.568694  0  0.880522  0  0.708963  0.801242  0  0.604599  0
H  H4  1  0.09293412  0.65263933  0.24031335  1  0  0.108152  0  0.955033  0  0  0.118511  0  1.016663  0  0  0.121641  0  1.015573  0  0.089221  0  0.10657  0.116284  0  1.017556  0
H  H5  1  0.59288066  0.34737571  0.75968994  1  0  0.108089  0  0.95517  0  0  0.118477  0  1.016755  0  0  0.121618  0  1.015638  0  0.089334  0  0.106583  0.11625  0  1.017652  0
H  H6  1  0.59286681  0.84736076  0.74030098  1  0  0.108204  0  0.955043  0  0  0.1186  0  1.016587  0  0  0.121725  0  1.01551  0  0.089175  0  0.106625  0.116372  0  1.017481  0
H  H7  1  0.09286368  0.15261107  0.25968747  1  0  0.108219  0  0.954945  0  0  0.118623  0  1.016483  0  0  0.121766  0  1.015361  0  0.089317  0  0.10664  0.116386  0  1.017406  0
H  H8  1  0.78942070  0.79227913  0.19730675  1  0  0.092362  0  0.979898  0  0  0.099595  0  1.045996  0  0  0.102259  0  1.043955  0  0.11286  0  0.101199  0.097671  0  1.047441  0
H  H9  1  0.28940248  0.20772230  0.80270480  1  0  0.092464  0  0.979997  0  0  0.099706  0  1.046094  0  0  0.102368  0  1.044054  0  0.112609  0  0.101217  0.097782  0  1.047538  0
H  H10  1  0.28936319  0.70771447  0.69729492  1  0  0.092386  0  0.979903  0  0  0.099661  0  1.045956  0  0  0.102325  0  1.043913  0  0.112117  0  0.101218  0.097736  0  1.047399  0
H  H11  1  0.78938747  0.29226137  0.30269463  1  0  0.092492  0  0.979957  0  0  0.099743  0  1.04603  0  0  0.102405  0  1.043991  0  0.112442  0  0.101234  0.097819  0  1.047473  0
H  H12  1  0.77246771  0.96962044  0.26517910  1  0  0.104758  0  0.970498  0  0  0.113138  0  1.034356  0  0  0.116069  0  1.034072  0  0.10044  0  0.103106  0.11103  0  1.034734  0
H  H13  1  0.27244536  0.03038740  0.73483519  1  0  0.104732  0  0.970449  0  0  0.113118  0  1.034263  0  0  0.116038  0  1.034005  0  0.100119  0  0.103063  0.111013  0  1.034643  0
H  H14  1  0.27244242  0.53037672  0.76517003  1  0  0.10479  0  0.970416  0  0  0.113158  0  1.034277  0  0  0.116081  0  1.034012  0  0.100275  0  0.103105  0.111045  0  1.034651  0
H  H15  1  0.77245693  0.46960552  0.23482942  1  0  0.104803  0  0.970507  0  0  0.113215  0  1.034315  0  0  0.116142  0  1.034037  0  0.100127  0  0.103092  0.111105  0  1.034707  0
H  H16  1  0.08039549  0.99686610  0.36992919  1  0  0.070561  0  0.966526  0  0  0.075285  0  1.039383  0  0  0.078069  0  1.036543  0  0.111054  0  0.112179  0.073196  0  1.041517  0
H  H17  1  0.58037088  0.00315373  0.63008236  1  0  0.070694  0  0.966542  0  0  0.07534  0  1.039432  0  0  0.078122  0  1.036601  0  0.110859  0  0.112239  0.073267  0  1.04155  0
H  H18  1  0.58040202  0.50313183  0.86991296  1  0  0.070646  0  0.96649  0  0  0.075298  0  1.039404  0  0  0.078077  0  1.036578  0  0.110645  0  0.112195  0.073212  0  1.041529  0
H  H19  1  0.08041924  0.49685600  0.13008868  1  0  0.070766  0  0.966467  0  0  0.075453  0  1.039333  0  0  0.078236  0  1.036501  0  0.110776  0  0.112264  0.073351  0  1.041479  0
H  H20  1  0.21774484  0.53074817  0.30965923  1  0  0.096493  0  0.97943  0  0  0.10594  0  1.043061  0  0  0.108333  0  1.0439  0  0.095837  0  0.102457  0.10418  0  1.042658  0
H  H21  1  0.71767385  0.46927727  0.69033746  1  0  0.096797  0  0.979087  0  0  0.106015  0  1.042954  0  0  0.108456  0  1.043741  0  0.095377  0  0.102524  0.104249  0  1.042563  0
H  H22  1  0.71758077  0.96924900  0.80966061  1  0  0.096958  0  0.979137  0  0  0.106149  0  1.043009  0  0  0.108568  0  1.043816  0  0.095353  0  0.102579  0.10438  0  1.042623  0
H  H23  1  0.21766543  0.03072364  0.19033829  1  0  0.096744  0  0.97911  0  0  0.105971  0  1.04298  0  0  0.108404  0  1.043777  0  0.095408  0  0.102513  0.104205  0  1.042589  0
H  H24  1  0.50464593  0.39459621  0.36842102  1  0  0.097449  0  0.948691  0  0  0.109734  0  1.00454  0  0  0.112258  0  1.002863  0  0.094617  0  0.107444  0.107861  0  1.005823  0
H  H25  1  0.00459321  0.60541563  0.63157128  1  0  0.097506  0  0.948646  0  0  0.109734  0  1.004535  0  0  0.112258  0  1.002862  0  0.094329  0  0.107427  0.107864  0  1.005812  0
H  H26  1  0.00448254  0.10540394  0.86842019  1  0  0.097339  0  0.94872  0  0  0.109588  0  1.004612  0  0  0.112112  0  1.002935  0  0.094716  0  0.107381  0.107713  0  1.005899  0
H  H27  1  0.50457822  0.89458790  0.13156990  1  0  0.09741  0  0.948707  0  0  0.109661  0  1.004571  0  0  0.112187  0  1.002895  0  0.094407  0  0.107405  0.107789  0  1.00585  0
H  H28  1  0.86706734  0.45566182  0.45199687  1  0  0.106044  0  0.953706  0  0  0.116625  0  1.011573  0  0  0.119142  0  1.012366  0  0.092412  0  0.106346  0.114787  0  1.011214  0
H  H29  1  0.36701908  0.54432521  0.54801137  1  0  0.105918  0  0.953787  0  0  0.116624  0  1.011527  0  0  0.11916  0  1.012294  0  0.092833  0  0.106365  0.114787  0  1.011169  0
H  H30  1  0.36694155  0.04432184  0.95197075  1  0  0.105984  0  0.953826  0  0  0.116825  0  1.011421  0  0  0.119333  0  1.012223  0  0.092876  0  0.10647  0.114989  0  1.011064  0
H  H31  1  0.86699198  0.95567560  0.04800835  1  0  0.105942  0  0.953733  0  0  0.116686  0  1.011429  0  0  0.119186  0  1.012237  0  0.092815  0  0.106362  0.114849  0  1.011071  0
H  H32  1  0.91159029  0.65235536  0.47689066  1  0  0.074404  0  0.949109  0  0  0.079852  0  1.018906  0  0  0.08243  0  1.016899  0  0.123675  0  0.111815  0.077975  0  1.020318  0
H  H33  1  0.41153272  0.34762528  0.52312418  1  0  0.074627  0  0.949029  0  0  0.080074  0  1.018773  0  0  0.082623  0  1.016842  0  0.123534  0  0.111951  0.078199  0  1.020178  0
H  H34  1  0.41152355  0.84763924  0.97687444  1  0  0.074632  0  0.948785  0  0  0.08012  0  1.018484  0  0  0.082679  0  1.016549  0  0.123832  0  0.111921  0.078244  0  1.01989  0
H  H35  1  0.91155045  0.15237180  0.02311731  1  0  0.074569  0  0.948921  0  0  0.080033  0  1.018666  0  0  0.082588  0  1.016734  0  0.123557  0  0.111904  0.078157  0  1.020073  0
C  C36  1  0.23898892  0.74827538  0.33145147  1  0  0.177886  0  3.768368  0  0  0.179284  0  4.009609  0  0  0.184788  0  4.029907  0  0.458861  0  0.118876  0.175694  0  3.995755  0
C  C37  1  0.73892130  0.25173726  0.66855677  1  0  0.178133  0  3.767638  0  0  0.179343  0  4.009052  0  0  0.184841  0  4.029349  0  0.457127  0  0.11874  0.175757  0  3.995198  0
C  C38  1  0.73892328  0.75172142  0.83144020  1  0  0.177962  0  3.767998  0  0  0.179164  0  4.00935  0  0  0.184665  0  4.029641  0  0.457554  0  0.118772  0.17558  0  3.995498  0
C  C39  1  0.23893401  0.24826161  0.16855485  1  0  0.178002  0  3.767937  0  0  0.179268  0  4.009293  0  0  0.184768  0  4.029587  0  0.457069  0  0.118703  0.17568  0  3.995437  0
C  C40  1  0.08244864  0.72845873  0.26955569  1  0  -0.129581  0  3.676081  0  0  -0.148574  0  3.918134  0  0  -0.154958  0  3.939278  0  -0.021798  0  -0.079267  -0.144444  0  3.903899  0
C  C41  1  0.58237323  0.27155471  0.73045145  1  0  -0.129662  0  3.675976  0  0  -0.148645  0  3.918064  0  0  -0.155025  0  3.939216  0  -0.021463  0  -0.07923  -0.144517  0  3.90383  0
C  C42  1  0.58236461  0.77153980  0.76954332  1  0  -0.12968  0  3.675739  0  0  -0.148656  0  3.917836  0  0  -0.15504  0  3.938979  0  -0.021317  0  -0.07922  -0.144527  0  3.9036  0
C  C43  1  0.08237298  0.22843924  0.23044843  1  0  -0.129767  0  3.675735  0  0  -0.14877  0  3.917846  0  0  -0.155156  0  3.939003  0  -0.021539  0  -0.079257  -0.144642  0  3.903606  0
C  C44  1  0.91323649  0.80799026  0.24469654  1  0  0.000837  0  3.721397  0  0  -0.015166  0  3.966228  0  0  -0.012725  0  3.985606  0  -0.02065  0  -0.070273  -0.016447  0  3.952861  0
C  C45  1  0.41317560  0.19201998  0.75531555  1  0  0.000736  0  3.721474  0  0  -0.015246  0  3.966188  0  0  -0.012802  0  3.985554  0  -0.02137  0  -0.070475  -0.016523  0  3.952824  0
C  C46  1  0.41314430  0.69200960  0.74468307  1  0  0.000689  0  3.721296  0  0  -0.0153  0  3.966036  0  0  -0.012856  0  3.9854  0  -0.02076  0  -0.07057  -0.016575  0  3.952671  0
C  C47  1  0.91316978  0.30797504  0.25530923  1  0  0.000774  0  3.721551  0  0  -0.015195  0  3.966274  0  0  -0.012755  0  3.98565  0  -0.020927  0  -0.070448  -0.016469  0  3.952905  0
C  C48  1  0.90572230  0.90579674  0.28133180  1  0  -0.130614  0  3.741835  0  0  -0.144308  0  3.99225  0  0  -0.150616  0  4.013622  0  -0.077839  0  -0.086504  -0.140194  0  3.977807  0
C  C49  1  0.40567917  0.09422070  0.71867534  1  0  -0.13086  0  3.741762  0  0  -0.144556  0  3.992226  0  0  -0.150859  0  4.013582  0  -0.077221  0  -0.086479  -0.14045  0  3.977798  0
C  C50  1  0.40566127  0.59420835  0.78132438  1  0  -0.130819  0  3.741769  0  0  -0.144527  0  3.992245  0  0  -0.150832  0  4.013609  0  -0.077963  0  -0.086479  -0.140404  0  3.977796  0
C  C51  1  0.90568336  0.40577708  0.21867287  1  0  -0.130788  0  3.742004  0  0  -0.144549  0  3.992455  0  0  -0.150853  0  4.013819  0  -0.077143  0  -0.086462  -0.14044  0  3.978012  0
C  C52  1  0.07469626  0.92059067  0.34077922  1  0  0.122687  0  3.758509  0  0  0.097722  0  4.017877  0  0  0.103262  0  4.034801  0  0.508968  0  0.044174  0.09422  0  4.006369  0
C  C53  1  0.57464457  0.07942757  0.65922408  1  0  0.122707  0  3.758861  0  0  0.097827  0  4.018212  0  0  0.103368  0  4.035125  0  0.510217  0  0.044312  0.094314  0  4.006706  0
C  C54  1  0.57463325  0.57941123  0.84077564  1  0  0.122644  0  3.758862  0  0  0.097737  0  4.018221  0  0  0.103275  0  4.035143  0  0.510016  0  0.044251  0.094237  0  4.006715  0
C  C55  1  0.07467034  0.42057740  0.15922875  1  0  0.122553  0  3.758739  0  0  0.097631  0  4.018081  0  0  0.10317  0  4.035002  0  0.509708  0  0.044143  0.094142  0  4.006577  0
C  C56  1  0.41207785  0.66426892  0.36319715  1  0  0.183097  0  3.762598  0  0  0.183476  0  4.003508  0  0  0.189073  0  4.023361  0  0.560202  0  0.120922  0.17975  0  3.989968  0
C  C57  1  0.91198602  0.33575012  0.63680339  1  0  0.182698  0  3.762484  0  0  0.183332  0  4.003104  0  0  0.188935  0  4.022962  0  0.560778  0  0.120921  0.179596  0  3.989577  0
C  C58  1  0.91196001  0.83573498  0.86318643  1  0  0.183198  0  3.762797  0  0  0.183952  0  4.003211  0  0  0.189568  0  4.023047  0  0.560292  0  0.121067  0.180209  0  3.989692  0
C  C59  1  0.41198624  0.16425846  0.13680587  1  0  0.182754  0  3.762555  0  0  0.183379  0  4.003163  0  0  0.188989  0  4.023006  0  0.560117  0  0.120928  0.179652  0  3.989622  0
C  C60  1  0.37454907  0.55573069  0.34641271  1  0  -0.143601  0  3.70787  0  0  -0.159416  0  3.947747  0  0  -0.166044  0  3.969509  0  -0.073992  0  -0.081316  -0.155045  0  3.933032  0
C  C61  1  0.87447935  0.44428755  0.65359004  1  0  -0.143584  0  3.707295  0  0  -0.159266  0  3.947081  0  0  -0.165933  0  3.968813  0  -0.07339  0  -0.081296  -0.154894  0  3.932376  0
C  C62  1  0.87441732  0.94427571  0.84640363  1  0  -0.14404  0  3.707622  0  0  -0.159771  0  3.94746  0  0  -0.166423  0  3.969197  0  -0.073281  0  -0.081388  -0.155395  0  3.932758  0
C  C63  1  0.37446214  0.05571693  0.15358482  1  0  -0.143498  0  3.707037  0  0  -0.159189  0  3.946847  0  0  -0.165852  0  3.968587  0  -0.073384  0  -0.08125  -0.154816  0  3.932135  0
C  C64  1  0.53577325  0.47940720  0.37888415  1  0  -0.011764  0  3.739659  0  0  -0.027232  0  3.984406  0  0  -0.025056  0  4.003808  0  -0.049011  0  -0.070729  -0.028323  0  3.971027  0
C  C65  1  0.03570368  0.52060064  0.62111419  1  0  -0.011687  0  3.738982  0  0  -0.027071  0  3.983679  0  0  -0.024904  0  4.003108  0  -0.048822  0  -0.070537  -0.028162  0  3.970299  0
C  C66  1  0.03563269  0.02058759  0.87887673  1  0  -0.010697  0  3.738641  0  0  -0.026055  0  3.983255  0  0  -0.023878  0  4.002657  0  -0.049086  0  -0.07005  -0.027147  0  3.969874  0
C  C67  1  0.53568940  0.97940505  0.12110512  1  0  -0.011617  0  3.738933  0  0  -0.027028  0  3.983663  0  0  -0.024859  0  4.003074  0  -0.04873  0  -0.070529  -0.028118  0  3.970283  0
C  C68  1  0.73519257  0.51283408  0.42601608  1  0  -0.124116  0  3.732705  0  0  -0.135911  0  3.981389  0  0  -0.142392  0  4.003766  0  -0.039953  0  -0.08481  -0.131703  0  3.966216  0
C  C69  1  0.23514373  0.48716255  0.57399216  1  0  -0.124257  0  3.732447  0  0  -0.136193  0  3.981171  0  0  -0.142677  0  4.003525  0  -0.039931  0  -0.085075  -0.131986  0  3.966002  0
C  C70  1  0.23508133  0.98715604  0.92599656  1  0  -0.125131  0  3.732821  0  0  -0.137249  0  3.981706  0  0  -0.143714  0  4.004059  0  -0.039352  0  -0.085677  -0.133037  0  3.966533  0
C  C71  1  0.73512169  0.01284059  0.07398254  1  0  -0.12427  0  3.732534  0  0  -0.13624  0  3.981312  0  0  -0.14269  0  4.00367  0  -0.039628  0  -0.085123  -0.132032  0  3.966142  0
C  C72  1  0.75947868  0.62222045  0.43996015  1  0  0.123518  0  3.749816  0  0  0.098875  0  4.009865  0  0  0.10414  0  4.027541  0  0.440783  0  0.043969  0.095583  0  3.997687  0
C  C73  1  0.25942749  0.37777778  0.56005030  1  0  0.123196  0  3.749844  0  0  0.098556  0  4.00995  0  0  0.103814  0  4.027616  0  0.440654  0  0.043739  0.095267  0  3.997775  0
C  C74  1  0.25938727  0.87777533  0.93993953  1  0  0.123363  0  3.749797  0  0  0.098705  0  4.009948  0  0  0.103961  0  4.027609  0  0.43947  0  0.043781  0.095416  0  3.997768  0
C  C75  1  0.75941109  0.12222291  0.06004562  1  0  0.123212  0  3.749543  0  0  0.098537  0  4.009712  0  0  0.103793  0  4.02737  0  0.440196  0  0.043776  0.095248  0  3.997538  0
N  N76  1  0.23657691  0.84428738  0.36569940  1  0  -0.417701  0  3.148473  0  0  -0.376893  0  3.41668  0  0  -0.388978  0  3.431397  0  -1.234701  0  -0.401159  -0.36866  0  3.406609  0
N  N77  1  0.73649965  0.15572766  0.63430335  1  0  -0.417584  0  3.1486  0  0  -0.376735  0  3.416824  0  0  -0.388822  0  3.431551  0  -1.234744  0  -0.401114  -0.368503  0  3.40675  0
N  N78  1  0.73650316  0.65571078  0.86569582  1  0  -0.417512  0  3.148708  0  0  -0.37666  0  3.4169  0  0  -0.38875  0  3.431634  0  -1.234547  0  -0.401065  -0.368426  0  3.40682  0
N  N79  1  0.23653224  0.34427625  0.13430637  1  0  -0.417589  0  3.148549  0  0  -0.376758  0  3.416773  0  0  -0.388852  0  3.431511  0  -1.234351  0  -0.401056  -0.368521  0  3.406685  0
N  N80  1  0.60111247  0.69634690  0.41038736  1  0  -0.406114  0  3.135319  0  0  -0.366175  0  3.402446  0  0  -0.378131  0  3.417895  0  -1.23233  0  -0.388918  -0.358073  0  3.391919  0
N  N81  1  0.10103993  0.30365614  0.58962748  1  0  -0.405929  0  3.135361  0  0  -0.366059  0  3.402444  0  0  -0.378008  0  3.41788  0  -1.23226  0  -0.388838  -0.357949  0  3.391907  0
N  N82  1  0.10101407  0.80364247  0.91036290  1  0  -0.40617  0  3.135497  0  0  -0.366358  0  3.402591  0  0  -0.37831  0  3.418023  0  -1.23147  0  -0.388884  -0.358251  0  3.392069  0
N  N83  1  0.60105208  0.19634857  0.08962940  1  0  -0.405901  0  3.134962  0  0  -0.366027  0  3.402069  0  0  -0.377978  0  3.417504  0  -1.231624  0  -0.388821  -0.357922  0  3.391536  0
Cl  Cl84  1  0.06841878  0.85731607  0.58581390  1  0  1.405476  0  6.21581  0  0  1.345855  0  6.776157  0  0  1.397974  0  6.751851  0  3.047617  0  0.737925  1.309976  0  6.791679  0
Cl  Cl85  1  0.56840079  0.14269657  0.41419489  1  0  1.405417  0  6.21621  0  0  1.345661  0  6.776702  0  0  1.397777  0  6.752418  0  3.047288  0  0.737958  1.309781  0  6.792223  0
Cl  Cl86  1  0.56842512  0.64269872  0.08580153  1  0  1.405424  0  6.216206  0  0  1.345673  0  6.776707  0  0  1.397796  0  6.752402  0  3.046668  0  0.738052  1.309796  0  6.792219  0
Cl  Cl87  1  0.06840424  0.35729872  0.91419516  1  0  1.405352  0  6.216324  0  0  1.34558  0  6.776831  0  0  1.397691  0  6.752561  0  3.046468  0  0.737934  1.309693  0  6.792348  0
O  O88  1  0.17418428  0.94689608  0.54166531  1  0  -0.64296  0  1.870651  0  0  -0.612967  0  2.133819  0  0  -0.628086  0  2.11722  0  -0.977842  0  -0.404435  -0.602348  0  2.144846  0
O  O89  1  0.67419715  0.05311015  0.45833413  1  0  -0.642844  0  1.870649  0  0  -0.612849  0  2.133852  0  0  -0.62795  0  2.117221  0  -0.977682  0  -0.404398  -0.602233  0  2.14488  0
O  O90  1  0.67421951  0.55311067  0.04166724  1  0  -0.642815  0  1.870637  0  0  -0.612839  0  2.133892  0  0  -0.627943  0  2.117262  0  -0.977596  0  -0.404355  -0.602217  0  2.144916  0
O  O91  1  0.17419916  0.44688597  0.95833001  1  0  -0.642759  0  1.870595  0  0  -0.612788  0  2.133861  0  0  -0.627877  0  2.117197  0  -0.977512  0  -0.404346  -0.602205  0  2.14497  0
O  O92  1  0.20802396  0.76037085  0.56441974  1  0  -0.540178  0  1.840791  0  0  -0.512357  0  2.079987  0  0  -0.527362  0  2.066287  0  -0.982687  0  -0.303508  -0.501889  0  2.089045  0
O  O93  1  0.70802676  0.23963939  0.43558246  1  0  -0.540145  0  1.840872  0  0  -0.512328  0  2.080155  0  0  -0.527314  0  2.066431  0  -0.982399  0  -0.3035  -0.501862  0  2.089215  0
O  O94  1  0.70805210  0.73964188  0.06441232  1  0  -0.540133  0  1.840974  0  0  -0.512317  0  2.080198  0  0  -0.527335  0  2.066532  0  -0.982507  0  -0.303538  -0.501853  0  2.089258  0
O  O95  1  0.20804370  0.26035635  0.93558438  1  0  -0.54009  0  1.840922  0  0  -0.51225  0  2.080159  0  0  -0.527253  0  2.066467  0  -0.982374  0  -0.303482  -0.501782  0  2.089219  0
O  O96  1  0.78894975  0.84524757  0.57015164  1  0  -0.581176  0  1.868232  0  0  -0.553588  0  2.121637  0  0  -0.568914  0  2.105659  0  -1.0296  0  -0.368535  -0.542902  0  2.132271  0
O  O97  1  0.28894434  0.15476747  0.42987089  1  0  -0.5811  0  1.868289  0  0  -0.553375  0  2.121623  0  0  -0.568707  0  2.105653  0  -1.029289  0  -0.368586  -0.542684  0  2.132248  0
O  O98  1  0.28896993  0.65477126  0.07011783  1  0  -0.581282  0  1.86829  0  0  -0.553533  0  2.121605  0  0  -0.56886  0  2.105632  0  -1.02901  0  -0.368659  -0.542836  0  2.132226  0
O  O99  1  0.78894963  0.34522698  0.92987886  1  0  -0.581173  0  1.868298  0  0  -0.553432  0  2.121627  0  0  -0.568765  0  2.105665  0  -1.028998  0  -0.368601  -0.542735  0  2.132252  0
O  O100  1  0.10347491  0.87957008  0.66336204  1  0  -0.511147  0  1.860604  0  0  -0.481094  0  2.097637  0  0  -0.497835  0  2.087384  0  -0.976576  0  -0.286419  -0.469441  0  2.104294  0
O  O101  1  0.60340530  0.12044655  0.33664345  1  0  -0.5114  0  1.860981  0  0  -0.481277  0  2.098034  0  0  -0.498025  0  2.08778  0  -0.97697  0  -0.286475  -0.469625  0  2.104694  0
O  O102  1  0.60342134  0.62045014  0.16335517  1  0  -0.511332  0  1.86088  0  0  -0.481202  0  2.097896  0  0  -0.497943  0  2.087641  0  -0.976681  0  -0.286532  -0.469557  0  2.104557  0
O  O103  1  0.10339223  0.37954730  0.83664207  1  0  -0.511433  0  1.860991  0  0  -0.481255  0  2.098004  0  0  -0.497996  0  2.087751  0  -0.976642  0  -0.286493  -0.469597  0  2.104664  0
