# generated using pymatgen
data_Cu3H10C10(NCl3)2
_symmetry_space_group_name_H-M   'P 1'
_cell_length_a   3.78814211
_cell_length_b   9.12186698
_cell_length_c   12.60282411
_cell_angle_alpha   67.70950685
_cell_angle_beta   81.94434875
_cell_angle_gamma   83.15637367
_symmetry_Int_Tables_number   1
_chemical_formula_structural   Cu3H10C10(NCl3)2
_chemical_formula_sum   'Cu3 H10 C10 N2 Cl6'
_cell_volume   397.93372887
_cell_formula_units_Z   1
loop_
 _symmetry_equiv_pos_site_id
 _symmetry_equiv_pos_as_xyz
  1  'x, y, z'
loop_
 _atom_site_type_symbol
 _atom_site_label
 _atom_site_symmetry_multiplicity
 _atom_site_fract_x
 _atom_site_fract_y
 _atom_site_fract_z
 _atom_site_occupancy
 _atom_site_hle17_ddec_charge
 _atom_site_hle17_ddec_spin_density
 _atom_site_hle17_ddec_sum_bond_order
 _atom_site_hle17_magmom
 _atom_site_hse06_10hf_ddec_charge
 _atom_site_hse06_10hf_ddec_spin_density
 _atom_site_hse06_10hf_ddec_sum_bond_order
 _atom_site_hse06_10hf_magmom
 _atom_site_hse06_ddec_charge
 _atom_site_hse06_ddec_spin_density
 _atom_site_hse06_ddec_sum_bond_order
 _atom_site_hse06_magmom
 _atom_site_pbe_cm5_charge
 _atom_site_pbe_ddec_charge
 _atom_site_pbe_ddec_spin_density
 _atom_site_pbe_ddec_sum_bond_order
 _atom_site_pbe_magmom
Cu  Cu0  1  0.50199887  0.99977638  0.49839157  1  0.702697  0.571292  2.024463  0.404  0.723304  0.684047  2.42151  0.529  0.817175  0.764148  2.340444  0.614  0.441842  0.67149  0.627219  2.472146  0.476
Cu  Cu1  1  0.95447477  0.93712386  0.26884734  1  0.703387  0.601693  1.975169  0.427  0.711358  0.712389  2.365029  0.554  0.807676  0.796556  2.28595  0.645  0.515717  0.658764  0.643524  2.413074  0.491
Cu  Cu2  1  0.03795275  0.06371245  0.73072108  1  0.711398  -0.60488  1.971074  -0.426  0.718092  -0.712887  2.360424  -0.554  0.814631  -0.813092  2.280302  -0.647  0.517777  0.665255  -0.622538  2.409026  -0.481
H  H3  1  0.89202101  0.87660358  0.05915433  1  0.083039  0.001367  0.971651  0.002  0.089479  0.001103  1.042325  0.002  0.091834  0.000783  1.038798  0.001  0.101243  0.087509  0.001295  1.045014  0.002
H  H4  1  0.10732754  0.12276439  0.93986771  1  0.08443  -0.001208  0.971175  -0.002  0.090735  -0.000977  1.04167  -0.002  0.093069  -0.000752  1.038198  -0.001  0.102051  0.088897  -0.001039  1.044212  -0.002
H  H5  1  0.06405322  0.65658246  0.98871131  1  0.105861  0.000409  0.957295  0.001  0.115641  0.000268  1.017943  0.001  0.11826  0.000163  1.017395  0.0  0.101963  0.113638  0.000343  1.018645  0.001
H  H6  1  0.93981995  0.34209436  0.01133199  1  0.104861  -0.000509  0.957575  -0.001  0.115348  -0.000308  1.017524  -0.001  0.117909  -0.000213  1.017081  0.0  0.10185  0.113446  -0.000351  1.018052  -0.001
H  H7  1  0.32893216  0.39356723  0.12585190  1  0.097234  0.000515  0.951475  0.001  0.107637  0.000283  1.013438  0.0  0.110567  0.000166  1.010601  0.0  0.099317  0.105524  0.000383  1.015432  0.0
H  H8  1  0.67578845  0.60611622  0.87508942  1  0.096695  -0.000288  0.953298  -0.001  0.108228  2.2e-05  1.013995  0.0  0.111175  8.9e-05  1.01117  0.0  0.099351  0.106072  -4.3e-05  1.016105  0.0
H  H9  1  0.40380047  0.37252911  0.32530208  1  0.108364  0.00054  0.9872  0.001  0.117451  0.000545  1.048308  0.001  0.120615  0.00035  1.046315  0.001  0.087187  0.115206  0.000672  1.04977  0.001
H  H10  1  0.59620350  0.62869510  0.67580587  1  0.108652  -0.000748  0.986597  -0.001  0.118282  -0.000521  1.047341  -0.001  0.121635  -0.000383  1.045066  -0.001  0.087191  0.115956  -0.00057  1.048942  -0.001
H  H11  1  0.21892376  0.60663147  0.38199217  1  0.086341  0.002136  0.953993  0.002  0.09606  0.002161  1.01665  0.002  0.098518  0.001625  1.013288  0.002  0.103033  0.094194  0.00248  1.019048  0.002
H  H12  1  0.77570452  0.39486227  0.61809846  1  0.086383  -0.000331  0.953475  -0.002  0.095197  -6e-05  1.016932  -0.001  0.097674  -2e-05  1.013547  -0.001  0.102691  0.093336  -5.2e-05  1.019368  -0.001
C  C13  1  0.10526731  0.63802985  0.07682706  1  -0.115547  0.00994  3.722101  0.011  -0.123756  0.004165  3.96536  0.006  -0.131569  0.00391  3.986845  0.005  -0.084256  -0.118733  0.004118  3.951019  0.006
C  C14  1  0.89700837  0.36129864  0.92324866  1  -0.113742  -0.008273  3.723641  -0.009  -0.122486  -0.003217  3.966912  -0.005  -0.130296  -0.003259  3.988462  -0.004  -0.084172  -0.11731  -0.002836  3.952301  -0.004
C  C15  1  0.01053939  0.76360897  0.11473827  1  0.137088  -0.008527  3.664299  -0.008  0.107825  -0.001281  3.913674  -0.002  0.117941  -0.002672  3.933035  -0.003  0.043937  0.101552  -9.7e-05  3.901249  0.0
C  C16  1  0.98925108  0.23615121  0.88476529  1  0.133042  0.007985  3.667837  0.008  0.104129  0.001221  3.917002  0.002  0.114167  0.002262  3.936439  0.003  0.042315  0.097806  0.000412  3.904575  0.001
C  C17  1  0.19097782  0.61138150  0.29593604  1  0.120361  -0.005796  3.670632  -0.006  0.089493  0.001134  3.924073  0.0  0.097791  -0.000615  3.945071  -0.002  0.035222  0.084646  0.00252  3.910152  0.002
C  C18  1  0.80605275  0.38964218  0.70410806  1  0.123455  0.009108  3.668793  0.009  0.093331  0.002087  3.922384  0.002  0.101685  0.002792  3.943387  0.003  0.03713  0.088368  0.001471  3.908391  0.001
C  C19  1  0.29300474  0.48190637  0.26349608  1  -0.097438  0.012738  3.709606  0.013  -0.10703  0.005708  3.952409  0.006  -0.113988  0.005001  3.973043  0.006  -0.086138  -0.102291  0.005967  3.937892  0.007
C  C20  1  0.70694473  0.51884558  0.73710150  1  -0.099011  -0.010338  3.709737  -0.011  -0.109463  -0.004239  3.95271  -0.005  -0.116519  -0.004022  3.973216  -0.005  -0.086621  -0.104678  -0.003995  3.938352  -0.005
C  C21  1  0.25095864  0.49503496  0.15197460  1  -0.001857  -0.009127  3.69592  -0.009  -0.018555  -0.002902  3.939172  -0.003  -0.014085  -0.003437  3.956488  -0.004  -0.066894  -0.021309  -0.002269  3.927248  -0.002
C  C22  1  0.75160215  0.50479581  0.84862661  1  -0.001158  0.009656  3.696115  0.009  -0.01878  0.003676  3.939555  0.003  -0.014207  0.0038  3.956829  0.004  -0.066581  -0.021626  0.003317  3.927631  0.003
N  N23  1  0.05402014  0.75009686  0.22224302  1  -0.290335  0.094654  3.382941  0.117  -0.234339  0.067867  3.66976  0.088  -0.27139  0.058286  3.699964  0.08  -0.353737  -0.213497  0.069587  3.652147  0.088
N  N24  1  0.94304426  0.25040059  0.77729224  1  -0.292461  -0.089781  3.385271  -0.111  -0.236984  -0.063922  3.672806  -0.084  -0.274082  -0.056316  3.702656  -0.077  -0.354243  -0.215739  -0.063158  3.655459  -0.081
Cl  Cl25  1  0.89608205  0.12959560  0.34960015  1  -0.396429  0.183151  1.39221  0.214  -0.403339  0.132112  1.742043  0.163  -0.451226  0.107988  1.716108  0.139  -0.216775  -0.377031  0.140784  1.761539  0.169
Cl  Cl26  1  0.10496506  0.87252649  0.64912164  1  -0.40327  0.016389  1.387006  0.022  -0.40675  0.013076  1.734447  0.019  -0.454392  0.011008  1.708335  0.018  -0.21953  -0.380429  0.015099  1.75415  0.02
Cl  Cl27  1  0.60172612  0.79070475  0.43873409  1  -0.416751  0.172569  1.266979  0.2  -0.424962  0.130981  1.595794  0.16  -0.467733  0.107457  1.567636  0.138  -0.228157  -0.401551  0.139974  1.616296  0.166
Cl  Cl28  1  0.40016615  0.20686469  0.56233057  1  -0.426939  0.026298  1.259928  0.03  -0.431337  0.01663  1.585712  0.02  -0.473429  0.01416  1.556959  0.018  -0.232478  -0.408848  0.018177  1.607114  0.02
Cl  Cl29  1  0.41869807  0.06507673  0.14438978  1  -0.468535  0.141818  1.097927  0.165  -0.481084  0.089992  1.41226  0.111  -0.518592  0.069544  1.386358  0.09  -0.270379  -0.459105  0.098806  1.430242  0.119
Cl  Cl30  1  0.58270114  0.93297163  0.85630409  1  -0.469814  -0.122452  1.090417  -0.142  -0.482726  -0.079154  1.403276  -0.099  -0.520814  -0.065308  1.377555  -0.084  -0.269857  -0.459512  -0.079202  1.420878  -0.097
