# generated using pymatgen
data_SmAgH8C14(NO4)2
_symmetry_space_group_name_H-M   'P 1'
_cell_length_a   9.14037052
_cell_length_b   11.91487878
_cell_length_c   17.00976682
_cell_angle_alpha   108.34095027
_cell_angle_beta   89.99607100
_cell_angle_gamma   112.59457775
_symmetry_Int_Tables_number   1
_chemical_formula_structural   SmAgH8C14(NO4)2
_chemical_formula_sum   'Sm4 Ag4 H32 C56 N8 O32'
_cell_volume   1607.90247393
_cell_formula_units_Z   4
loop_
 _symmetry_equiv_pos_site_id
 _symmetry_equiv_pos_as_xyz
  1  'x, y, z'
loop_
 _atom_site_type_symbol
 _atom_site_label
 _atom_site_symmetry_multiplicity
 _atom_site_fract_x
 _atom_site_fract_y
 _atom_site_fract_z
 _atom_site_occupancy
 _atom_site_hle17_bader_spin_density
 _atom_site_hle17_ddec_charge
 _atom_site_hle17_ddec_spin_density
 _atom_site_hle17_ddec_sum_bond_order
 _atom_site_hle17_magmom
 _atom_site_hse06_10hf_bader_spin_density
 _atom_site_hse06_10hf_ddec_charge
 _atom_site_hse06_10hf_ddec_spin_density
 _atom_site_hse06_10hf_ddec_sum_bond_order
 _atom_site_hse06_10hf_magmom
 _atom_site_hse06_bader_spin_density
 _atom_site_hse06_ddec_charge
 _atom_site_hse06_ddec_spin_density
 _atom_site_hse06_ddec_sum_bond_order
 _atom_site_hse06_magmom
 _atom_site_pbe_bader_spin_density
 _atom_site_pbe_cm5_charge
 _atom_site_pbe_ddec_charge
 _atom_site_pbe_ddec_spin_density
 _atom_site_pbe_ddec_sum_bond_order
 _atom_site_pbe_magmom
Sm  Sm0  1  0.80089613  0.96746106  0.42436651  1  0  2.270249  0  1.603447  0  0  2.111879  0  2.071357  0  0  2.227272  0  1.900018  0  0  1.470118  2.076581  0  2.103401  0
Sm  Sm1  1  0.83340390  0.03255619  0.07567283  1  0  2.270025  0  1.603225  0  0  2.111615  0  2.071333  0  0  2.227047  0  1.899803  0  0  1.470262  2.076384  0  2.103259  0
Sm  Sm2  1  0.19910330  0.03254302  0.57563470  1  0  2.270334  0  1.603451  0  0  2.111935  0  2.071451  0  0  2.227379  0  1.900024  0  0  1.470061  2.076638  0  2.103493  0
Sm  Sm3  1  0.16660311  0.96744117  0.92432872  1  0  2.270035  0  1.603178  0  0  2.111668  0  2.071216  0  0  2.22705  0  1.899757  0  0  1.470255  2.076453  0  2.103118  0
Ag  Ag4  1  0.40596202  0.65240226  0.86530983  1  0  0.520838  0  1.374473  0  0  0.363775  0  1.781292  0  0  0.397931  0  1.73658  0  0  0.488496  0.34152  0  1.811217  0
Ag  Ag5  1  0.75379247  0.34756951  0.63474460  1  0  0.521601  0  1.372434  0  0  0.364743  0  1.778925  0  0  0.398909  0  1.734237  0  0  0.488356  0.342235  0  1.809157  0
Ag  Ag6  1  0.59403873  0.34759790  0.13468820  1  0  0.520836  0  1.374505  0  0  0.363797  0  1.78136  0  0  0.397945  0  1.736649  0  0  0.488544  0.341551  0  1.811284  0
Ag  Ag7  1  0.24622595  0.65244626  0.36526260  1  0  0.521658  0  1.372505  0  0  0.3648  0  1.779019  0  0  0.39896  0  1.734336  0  0  0.488382  0.342296  0  1.80926  0
H  H8  1  0.33925491  0.76465774  0.73486852  1  0  0.094377  0  0.956061  0  0  0.103952  0  1.01755  0  0  0.106846  0  1.014803  0  0  0.120392  0.101958  0  1.019321  0
H  H9  1  0.57541464  0.23579136  0.76554105  1  0  0.094194  0  0.955084  0  0  0.104153  0  1.016236  0  0  0.107035  0  1.013493  0  0  0.120445  0.102129  0  1.018074  0
H  H10  1  0.66075310  0.23534817  0.26512896  1  0  0.094322  0  0.9561  0  0  0.103941  0  1.017508  0  0  0.106838  0  1.014756  0  0  0.120378  0.101948  0  1.01928  0
H  H11  1  0.42458671  0.76420782  0.23445618  1  0  0.094208  0  0.955066  0  0  0.104158  0  1.016232  0  0  0.107042  0  1.013482  0  0  0.120456  0.102133  0  1.01807  0
H  H12  1  0.49461377  0.87818692  0.64143802  1  0  0.126292  0  0.943259  0  0  0.134451  0  1.004405  0  0  0.137943  0  1.003089  0  0  0.11633  0.132022  0  1.005235  0
H  H13  1  0.61719997  0.12199778  0.85872619  1  0  0.126807  0  0.942418  0  0  0.134696  0  1.00394  0  0  0.138088  0  1.002709  0  0  0.11618  0.132324  0  1.004717  0
H  H14  1  0.50539874  0.12182579  0.35856206  1  0  0.126154  0  0.943415  0  0  0.134344  0  1.004536  0  0  0.137836  0  1.00322  0  0  0.116302  0.131916  0  1.005366  0
H  H15  1  0.38279434  0.87800044  0.14127143  1  0  0.126805  0  0.942431  0  0  0.134689  0  1.003962  0  0  0.138081  0  1.002731  0  0  0.11618  0.132317  0  1.004741  0
H  H16  1  0.89092084  0.80142588  0.71275830  1  0  0.125751  0  0.960074  0  0  0.134823  0  1.020833  0  0  0.137963  0  1.019719  0  0  0.117835  0.132571  0  1.021719  0
H  H17  1  0.09014458  0.19859305  0.78701438  1  0  0.125485  0  0.960852  0  0  0.134381  0  1.021978  0  0  0.137485  0  1.021006  0  0  0.117855  0.132159  0  1.022729  0
H  H18  1  0.10908532  0.19857415  0.28723500  1  0  0.125688  0  0.960163  0  0  0.134741  0  1.02097  0  0  0.13786  0  1.019913  0  0  0.117837  0.132503  0  1.021825  0
H  H19  1  0.90985272  0.80140239  0.21298735  1  0  0.12549  0  0.960813  0  0  0.134348  0  1.02198  0  0  0.137454  0  1.021002  0  0  0.117848  0.132125  0  1.022734  0
H  H20  1  0.71493978  0.67807577  0.79462594  1  0  0.074743  0  0.94687  0  0  0.086356  0  1.008694  0  0  0.088563  0  1.006043  0  0  0.116771  0.084748  0  1.010588  0
H  H21  1  0.03758425  0.32215681  0.70536660  1  0  0.075279  0  0.94646  0  0  0.08725  0  1.007952  0  0  0.089414  0  1.005319  0  0  0.117106  0.085693  0  1.009764  0
H  H22  1  0.28506628  0.32192625  0.20536954  1  0  0.074743  0  0.947017  0  0  0.086356  0  1.008811  0  0  0.088562  0  1.006161  0  0  0.116754  0.084749  0  1.010705  0
H  H23  1  0.96242144  0.67784447  0.29463754  1  0  0.075292  0  0.946446  0  0  0.087263  0  1.007917  0  0  0.089429  0  1.00528  0  0  0.117079  0.0857  0  1.009732  0
H  H24  1  0.20377488  0.64237510  0.01544579  1  0  0.091982  0  0.929456  0  0  0.101556  0  0.990177  0  0  0.103959  0  0.988704  0  0  0.122291  0.099606  0  0.991509  0
H  H25  1  0.56138412  0.35753054  0.48469924  1  0  0.092058  0  0.930862  0  0  0.101595  0  0.991543  0  0  0.104023  0  0.990054  0  0  0.122463  0.099799  0  0.992671  0
H  H26  1  0.79621947  0.35762320  0.98455478  1  0  0.092009  0  0.92946  0  0  0.101601  0  0.99015  0  0  0.10403  0  0.988649  0  0  0.122321  0.099644  0  0.9915  0
H  H27  1  0.43861792  0.64246780  0.51530311  1  0  0.092084  0  0.930786  0  0  0.101604  0  0.991496  0  0  0.10403  0  0.990009  0  0  0.12248  0.099806  0  0.992625  0
H  H28  1  0.08714146  0.48672016  0.09333080  1  0  0.117232  0  0.943347  0  0  0.126587  0  1.003078  0  0  0.129892  0  1.001985  0  0  0.113618  0.124206  0  1.003934  0
H  H29  1  0.60006466  0.51320993  0.40691061  1  0  0.116072  0  0.944396  0  0  0.126272  0  1.003371  0  0  0.129545  0  1.002264  0  0  0.113167  0.123919  0  1.004191  0
H  H30  1  0.91285314  0.51327425  0.90666837  1  0  0.117241  0  0.943328  0  0  0.126593  0  1.003065  0  0  0.129897  0  1.001972  0  0  0.113619  0.124211  0  1.00392  0
H  H31  1  0.39992580  0.48678059  0.59308656  1  0  0.116104  0  0.94428  0  0  0.126291  0  1.00327  0  0  0.129563  0  1.002161  0  0  0.113173  0.123938  0  1.00409  0
H  H32  1  0.32181694  0.25651804  0.94489769  1  0  0.132112  0  1.00092  0  0  0.138517  0  1.06341  0  0  0.142465  0  1.061512  0  0  0.121615  0.13507  0  1.066141  0
H  H33  1  0.06561628  0.74355382  0.55495863  1  0  0.131243  0  1.001345  0  0  0.137767  0  1.063898  0  0  0.141648  0  1.062089  0  0  0.121098  0.134288  0  1.06674  0
H  H34  1  0.67817529  0.74347818  0.05509715  1  0  0.132124  0  1.000869  0  0  0.138443  0  1.063459  0  0  0.142403  0  1.061543  0  0  0.12158  0.134994  0  1.066192  0
H  H35  1  0.93437782  0.25644616  0.44503230  1  0  0.131217  0  1.001498  0  0  0.137764  0  1.064006  0  0  0.141646  0  1.062201  0  0  0.121094  0.134287  0  1.066851  0
H  H36  1  0.41683624  0.41163976  0.87078935  1  0  0.084464  0  0.922603  0  0  0.095122  0  0.983732  0  0  0.098192  0  0.980238  0  0  0.120784  0.092802  0  0.986325  0
H  H37  1  0.00563521  0.58860098  0.62919435  1  0  0.084711  0  0.922008  0  0  0.095347  0  0.983084  0  0  0.098486  0  0.979529  0  0  0.121023  0.09304  0  0.985633  0
H  H38  1  0.58316061  0.58836135  0.12920829  1  0  0.084454  0  0.922582  0  0  0.095101  0  0.983726  0  0  0.098174  0  0.980235  0  0  0.120748  0.09278  0  0.986326  0
H  H39  1  0.99436735  0.41141371  0.37080791  1  0  0.084806  0  0.921907  0  0  0.095395  0  0.983048  0  0  0.098534  0  0.979491  0  0  0.121058  0.093085  0  0.985602  0
C  C40  1  0.46038863  0.77216145  0.72632092  1  0  0.114521  0  3.681958  0  0  0.084424  0  3.92644  0  0  0.090164  0  3.946041  0  0  0.042849  0.080574  0  3.91311  0
C  C41  1  0.68905265  0.22823742  0.77394315  1  0  0.11497  0  3.683935  0  0  0.084523  0  3.928472  0  0  0.090285  0  3.948041  0  0  0.042909  0.080656  0  3.915167  0
C  C42  1  0.53962022  0.22784831  0.27367678  1  0  0.114552  0  3.68211  0  0  0.084476  0  3.926539  0  0  0.090212  0  3.946136  0  0  0.042887  0.080625  0  3.913218  0
C  C43  1  0.31095081  0.77176377  0.22605803  1  0  0.114976  0  3.684009  0  0  0.084532  0  3.928539  0  0  0.090293  0  3.948108  0  0  0.042927  0.080668  0  3.915234  0
C  C44  1  0.54858737  0.83706728  0.67556620  1  0  -0.123494  0  3.700919  0  0  -0.144992  0  3.950251  0  0  -0.150227  0  3.970502  0  0  -0.077167  -0.1415  0  3.936408  0
C  C45  1  0.71228830  0.16320076  0.82458556  1  0  -0.124684  0  3.701622  0  0  -0.146021  0  3.951214  0  0  -0.151154  0  3.971464  0  0  -0.077083  -0.142635  0  3.93744  0
C  C46  1  0.45142367  0.16294250  0.32443209  1  0  -0.123278  0  3.701015  0  0  -0.144838  0  3.9503  0  0  -0.150072  0  3.970552  0  0  -0.07714  -0.141347  0  3.936456  0
C  C47  1  0.28771199  0.83679847  0.17541403  1  0  -0.124718  0  3.701578  0  0  -0.146054  0  3.951176  0  0  -0.151186  0  3.971421  0  0  -0.077129  -0.14267  0  3.937406  0
C  C48  1  0.70662647  0.84994060  0.67031001  1  0  -0.007727  0  3.70046  0  0  0.009765  0  3.933156  0  0  0.00805  0  3.951106  0  0  0.005896  0.011016  0  3.92031  0
C  C49  1  0.85735773  0.15016870  0.82966344  1  0  -0.006769  0  3.698085  0  0  0.010969  0  3.930126  0  0  0.009273  0  3.948035  0  0  0.005812  0.012201  0  3.917319  0
C  C50  1  0.29338046  0.15006533  0.32968806  1  0  -0.007977  0  3.700416  0  0  0.009652  0  3.933076  0  0  0.007941  0  3.951017  0  0  0.005922  0.010904  0  3.920235  0
C  C51  1  0.14263942  0.84982863  0.17033693  1  0  -0.006718  0  3.697925  0  0  0.010996  0  3.929962  0  0  0.009305  0  3.947865  0  0  0.00589  0.012227  0  3.917158  0
C  C52  1  0.76814595  0.79258744  0.71402572  1  0  -0.102549  0  3.688824  0  0  -0.124838  0  3.933219  0  0  -0.129214  0  3.953595  0  0  -0.071769  -0.121938  0  3.919412  0
C  C53  1  0.97627973  0.20754196  0.78590203  1  0  -0.102363  0  3.687507  0  0  -0.124476  0  3.931895  0  0  -0.128875  0  3.952259  0  0  -0.071257  -0.121524  0  3.918024  0
C  C54  1  0.23185913  0.20741263  0.28596876  1  0  -0.102232  0  3.6888  0  0  -0.124569  0  3.933195  0  0  -0.128944  0  3.953552  0  0  -0.07173  -0.121671  0  3.919395  0
C  C55  1  0.02371916  0.79245448  0.21410109  1  0  -0.102355  0  3.687507  0  0  -0.124437  0  3.931907  0  0  -0.128831  0  3.952265  0  0  -0.07127  -0.121483  0  3.918028  0
C  C56  1  0.67080318  0.72525663  0.76090162  1  0  0.116046  0  3.698763  0  0  0.087869  0  3.940972  0  0  0.094107  0  3.959617  0  0  0.046256  0.08365  0  3.928403  0
C  C57  1  0.94630523  0.27496965  0.73913094  1  0  0.115809  0  3.698869  0  0  0.087235  0  3.941236  0  0  0.09352  0  3.959881  0  0  0.045774  0.082978  0  3.928624  0
C  C58  1  0.32920482  0.27474927  0.23909527  1  0  0.115826  0  3.698951  0  0  0.087695  0  3.941138  0  0  0.093932  0  3.959767  0  0  0.0462  0.083479  0  3.928575  0
C  C59  1  0.05369936  0.72503162  0.26087320  1  0  0.115778  0  3.698813  0  0  0.087211  0  3.941158  0  0  0.093495  0  3.9598  0  0  0.04578  0.082966  0  3.928541  0
C  C60  1  0.80885920  0.92117666  0.61746818  1  0  0.704641  0  3.868542  0  0  0.659571  0  4.157278  0  0  0.695067  0  4.149036  0  0  0.230082  0.635895  0  4.164223  0
C  C61  1  0.88808059  0.07876937  0.88244398  1  0  0.701861  0  3.872524  0  0  0.656947  0  4.160934  0  0  0.692452  0  4.152796  0  0  0.229369  0.633281  0  4.167883  0
C  C62  1  0.19114284  0.07882824  0.38252732  1  0  0.704885  0  3.868189  0  0  0.659579  0  4.157313  0  0  0.695075  0  4.149066  0  0  0.230098  0.635901  0  4.164263  0
C  C63  1  0.11191668  0.92122600  0.11755479  1  0  0.701895  0  3.872535  0  0  0.657017  0  4.160881  0  0  0.692517  0  4.152738  0  0  0.229417  0.63335  0  4.167831  0
C  C64  1  0.22500853  0.55460015  0.00170405  1  0  0.11285  0  3.683453  0  0  0.083152  0  3.929411  0  0  0.088557  0  3.949502  0  0  0.046425  0.079635  0  3.91586  0
C  C65  1  0.67042766  0.44537143  0.49842752  1  0  0.112559  0  3.687378  0  0  0.082843  0  3.933749  0  0  0.088237  0  3.953808  0  0  0.04632  0.079322  0  3.920107  0
C  C66  1  0.77498435  0.44539521  0.99829473  1  0  0.112832  0  3.683442  0  0  0.083117  0  3.92943  0  0  0.088497  0  3.949514  0  0  0.046394  0.079598  0  3.915881  0
C  C67  1  0.32957156  0.55462784  0.50157385  1  0  0.112548  0  3.687253  0  0  0.082847  0  3.933638  0  0  0.088247  0  3.953685  0  0  0.046285  0.079325  0  3.919998  0
C  C68  1  0.16190925  0.46894545  0.04511231  1  0  -0.118373  0  3.699089  0  0  -0.139244  0  3.942317  0  0  -0.144494  0  3.96436  0  0  -0.072728  -0.135667  0  3.927249  0
C  C69  1  0.69279915  0.53102679  0.45504945  1  0  -0.117851  0  3.702431  0  0  -0.139585  0  3.945271  0  0  -0.144798  0  3.967339  0  0  -0.072806  -0.136059  0  3.930128  0
C  C70  1  0.83808314  0.53104893  0.95488567  1  0  -0.118447  0  3.69905  0  0  -0.1393  0  3.942271  0  0  -0.144548  0  3.964324  0  0  -0.072685  -0.135722  0  3.927201  0
C  C71  1  0.30719640  0.46896953  0.54494894  1  0  -0.117859  0  3.702421  0  0  -0.139581  0  3.945259  0  0  -0.144792  0  3.967321  0  0  -0.07279  -0.136058  0  3.930117  0
C  C72  1  0.19160173  0.35689050  0.02413422  1  0  -0.008212  0  3.703834  0  0  0.014022  0  3.931933  0  0  0.011111  0  3.951584  0  0  0.007533  0.016125  0  3.91795  0
C  C73  1  0.83468029  0.64312247  0.47591754  1  0  -0.007762  0  3.705155  0  0  0.014709  0  3.932264  0  0  0.011884  0  3.951798  0  0  0.007795  0.016809  0  3.91831  0
C  C74  1  0.80839064  0.64310382  0.97586140  1  0  -0.008047  0  3.703776  0  0  0.014185  0  3.931831  0  0  0.011267  0  3.951488  0  0  0.00754  0.016288  0  3.91785  0
C  C75  1  0.16531303  0.35687378  0.52407790  1  0  -0.0077  0  3.705066  0  0  0.014773  0  3.932201  0  0  0.011946  0  3.951728  0  0  0.007814  0.016874  0  3.918251  0
C  C76  1  0.29127077  0.33974184  0.96360543  1  0  -0.10751  0  3.687585  0  0  -0.134727  0  3.938608  0  0  -0.139107  0  3.958896  0  0  -0.070818  -0.131924  0  3.92538  0
C  C77  1  0.95174743  0.66029139  0.53633891  1  0  -0.107246  0  3.687693  0  0  -0.134726  0  3.938706  0  0  -0.139026  0  3.958978  0  0  -0.070453  -0.131904  0  3.925533  0
C  C78  1  0.70872036  0.66025440  0.03639001  1  0  -0.107584  0  3.687693  0  0  -0.134703  0  3.938696  0  0  -0.139083  0  3.95897  0  0  -0.070831  -0.131899  0  3.925462  0
C  C79  1  0.04824937  0.33970961  0.46365459  1  0  -0.107314  0  3.687945  0  0  -0.134775  0  3.938879  0  0  -0.139092  0  3.959189  0  0  -0.070464  -0.131935  0  3.925665  0
C  C80  1  0.34655842  0.42751494  0.92166734  1  0  0.113915  0  3.70584  0  0  0.083543  0  3.955236  0  0  0.088783  0  3.974796  0  0  0.0456  0.0802  0  3.941812  0
C  C81  1  0.91934420  0.57260183  0.57833483  1  0  0.114545  0  3.703064  0  0  0.084221  0  3.95276  0  0  0.08938  0  3.972265  0  0  0.045402  0.080872  0  3.93934  0
C  C82  1  0.65343528  0.57248423  0.07832989  1  0  0.11383  0  3.705909  0  0  0.083475  0  3.955284  0  0  0.08871  0  3.974843  0  0  0.045601  0.080137  0  3.941863  0
C  C83  1  0.08065714  0.42740605  0.42166482  1  0  0.114471  0  3.703147  0  0  0.084165  0  3.952844  0  0  0.089324  0  3.972341  0  0  0.045399  0.080817  0  3.93943  0
C  C84  1  0.10467921  0.25076622  0.05853300  1  0  0.652082  0  3.930196  0  0  0.606044  0  4.220684  0  0  0.639261  0  4.21913  0  0  0.205866  0.583191  0  4.226086  0
C  C85  1  0.85371367  0.74922230  0.44153527  1  0  0.65406  0  3.928063  0  0  0.608935  0  4.216834  0  0  0.642177  0  4.215208  0  0  0.20754  0.586181  0  4.222172  0
C  C86  1  0.89532093  0.74922616  0.94146162  1  0  0.651967  0  3.930248  0  0  0.605923  0  4.22075  0  0  0.639144  0  4.219192  0  0  0.205876  0.583069  0  4.226154  0
C  C87  1  0.14627272  0.25077103  0.55845896  1  0  0.653959  0  3.927995  0  0  0.608808  0  4.216795  0  0  0.642054  0  4.215178  0  0  0.207469  0.586053  0  4.22213  0
C  C88  1  0.48188288  0.92931742  0.97303259  1  0  0.567802  0  3.917162  0  0  0.524218  0  4.206089  0  0  0.554388  0  4.203496  0  0  0.211006  0.503348  0  4.211962  0
C  C89  1  0.55270965  0.07063543  0.52708336  1  0  0.568377  0  3.918904  0  0  0.524638  0  4.208432  0  0  0.554835  0  4.205792  0  0  0.210936  0.50373  0  4.214346  0
C  C90  1  0.51811638  0.07067319  0.02696812  1  0  0.568025  0  3.917448  0  0  0.524485  0  4.206288  0  0  0.554658  0  4.203684  0  0  0.211119  0.503612  0  4.212165  0
C  C91  1  0.44730689  0.92937659  0.47292716  1  0  0.568805  0  3.918424  0  0  0.5247  0  4.208371  0  0  0.554901  0  4.205728  0  0  0.211098  0.503792  0  4.214286  0
C  C92  1  0.71545878  0.92666104  0.22739890  1  0  0.558212  0  3.945252  0  0  0.512974  0  4.247798  0  0  0.542847  0  4.24329  0  0  0.212111  0.492261  0  4.255037  0
C  C93  1  0.78894694  0.07353065  0.27272579  1  0  0.558  0  3.944884  0  0  0.512693  0  4.247736  0  0  0.542546  0  4.243277  0  0  0.212648  0.491992  0  4.254969  0
C  C94  1  0.28453444  0.07333935  0.77260859  1  0  0.558303  0  3.945237  0  0  0.513127  0  4.247744  0  0  0.542998  0  4.243235  0  0  0.212158  0.492414  0  4.254985  0
C  C95  1  0.21105067  0.92646978  0.72728346  1  0  0.55813  0  3.94495  0  0  0.512727  0  4.247911  0  0  0.542578  0  4.243463  0  0  0.212622  0.492027  0  4.25514  0
N  N96  1  0.52027275  0.71683087  0.76855722  1  0  -0.297717  0  3.369777  0  0  -0.207412  0  3.649139  0  0  -0.226128  0  3.665224  0  0  -0.351494  -0.194717  0  3.637744  0
N  N97  1  0.80423461  0.28352618  0.73163581  1  0  -0.298299  0  3.370168  0  0  -0.208211  0  3.649991  0  0  -0.226904  0  3.666002  0  0  -0.351601  -0.195489  0  3.638666  0
N  N98  1  0.47973367  0.28317404  0.23143886  1  0  -0.297739  0  3.369922  0  0  -0.207502  0  3.649329  0  0  -0.2262  0  3.665399  0  0  -0.351607  -0.194815  0  3.637942  0
N  N99  1  0.19577457  0.71647989  0.26836757  1  0  -0.298349  0  3.370178  0  0  -0.208262  0  3.650005  0  0  -0.22695  0  3.666013  0  0  -0.351636  -0.195549  0  3.638684  0
N  N100  1  0.31245099  0.53267962  0.93912672  1  0  -0.293001  0  3.382959  0  0  -0.203312  0  3.665163  0  0  -0.221784  0  3.682142  0  0  -0.348055  -0.190824  0  3.653093  0
N  N101  1  0.77997193  0.46737844  0.56094347  1  0  -0.293198  0  3.381815  0  0  -0.203893  0  3.664483  0  0  -0.222357  0  3.681492  0  0  -0.347945  -0.191395  0  3.65252  0
N  N102  1  0.68754271  0.46731957  0.06087110  1  0  -0.292845  0  3.38287  0  0  -0.203193  0  3.665112  0  0  -0.221663  0  3.682104  0  0  -0.348014  -0.190715  0  3.653046  0
N  N103  1  0.22003005  0.53262855  0.43905834  1  0  -0.29327  0  3.381672  0  0  -0.203976  0  3.664364  0  0  -0.22244  0  3.681367  0  0  -0.348  -0.19148  0  3.652403  0
O  O104  1  0.73530220  0.92169400  0.55446663  1  0  -0.715956  0  2.037767  0  0  -0.661939  0  2.28087  0  0  -0.69614  0  2.270477  0  0  -0.37076  -0.643334  0  2.285381  0
O  O105  1  0.81394792  0.07818685  0.94543651  1  0  -0.714573  0  2.038123  0  0  -0.660529  0  2.280847  0  0  -0.694755  0  2.27054  0  0  -0.370074  -0.642053  0  2.285637  0
O  O106  1  0.26470827  0.07831682  0.44553482  1  0  -0.716049  0  2.037397  0  0  -0.661961  0  2.280616  0  0  -0.696174  0  2.270228  0  0  -0.370771  -0.643354  0  2.28513  0
O  O107  1  0.18604939  0.92180861  0.05456581  1  0  -0.714582  0  2.03826  0  0  -0.660549  0  2.280952  0  0  -0.694762  0  2.270645  0  0  -0.370078  -0.642077  0  2.285743  0
O  O108  1  0.95902354  0.97127703  0.63947050  1  0  -0.726074  0  2.05824  0  0  -0.676936  0  2.316196  0  0  -0.712139  0  2.305808  0  0  -0.383631  -0.658477  0  2.321137  0
O  O109  1  0.98794030  0.02855803  0.86040658  1  0  -0.724748  0  2.059514  0  0  -0.676117  0  2.318412  0  0  -0.71127  0  2.307908  0  0  -0.383907  -0.657704  0  2.323236  0
O  O110  1  0.04098764  0.02872210  0.36052496  1  0  -0.726074  0  2.058261  0  0  -0.676821  0  2.316221  0  0  -0.712006  0  2.305827  0  0  -0.383584  -0.658368  0  2.321168  0
O  O111  1  0.01205055  0.97143545  0.13959357  1  0  -0.724769  0  2.059444  0  0  -0.676137  0  2.318315  0  0  -0.711343  0  2.307908  0  0  -0.383978  -0.657725  0  2.323138  0
O  O112  1  0.00879981  0.26670976  0.11037363  1  0  -0.653554  0  1.927189  0  0  -0.607508  0  2.156585  0  0  -0.636567  0  2.144405  0  0  -0.359533  -0.592061  0  2.163572  0
O  O113  1  0.74174874  0.73317731  0.38974832  1  0  -0.654603  0  1.926624  0  0  -0.609158  0  2.155975  0  0  -0.638187  0  2.143721  0  0  -0.35981  -0.593709  0  2.162905  0
O  O114  1  0.99120035  0.73328266  0.88962276  1  0  -0.653559  0  1.927252  0  0  -0.607518  0  2.156654  0  0  -0.636572  0  2.144474  0  0  -0.359568  -0.592074  0  2.16364  0
O  O115  1  0.25823510  0.26682404  0.61025878  1  0  -0.654607  0  1.926344  0  0  -0.609129  0  2.155688  0  0  -0.638179  0  2.143451  0  0  -0.359833  -0.593676  0  2.162619  0
O  O116  1  0.12115882  0.14357032  0.03025181  1  0  -0.791047  0  2.136298  0  0  -0.736108  0  2.398291  0  0  -0.775572  0  2.387478  0  0  -0.397949  -0.718679  0  2.404759  0
O  O117  1  0.97747988  0.85648567  0.46977905  1  0  -0.792212  0  2.136229  0  0  -0.737853  0  2.39828  0  0  -0.777321  0  2.3874  0  0  -0.399364  -0.720395  0  2.404678  0
O  O118  1  0.87884548  0.85642599  0.96974599  1  0  -0.790956  0  2.136161  0  0  -0.736046  0  2.398222  0  0  -0.775522  0  2.387423  0  0  -0.397891  -0.718603  0  2.404659  0
O  O119  1  0.02251400  0.14350950  0.53021205  1  0  -0.792051  0  2.136261  0  0  -0.737748  0  2.39845  0  0  -0.777163  0  2.387461  0  0  -0.399281  -0.720311  0  2.404895  0
O  O120  1  0.36232920  0.87183253  0.91600452  1  0  -0.669227  0  2.075867  0  0  -0.612897  0  2.334613  0  0  -0.646629  0  2.321609  0  0  -0.371354  -0.594898  0  2.341699  0
O  O121  1  0.49063084  0.12798517  0.58414699  1  0  -0.670303  0  2.076927  0  0  -0.613821  0  2.335626  0  0  -0.647601  0  2.32262  0  0  -0.371872  -0.595761  0  2.342728  0
O  O122  1  0.63767339  0.12815817  0.08399974  1  0  -0.669243  0  2.075673  0  0  -0.612925  0  2.334403  0  0  -0.646668  0  2.321398  0  0  -0.371316  -0.594923  0  2.341492  0
O  O123  1  0.50937124  0.87202419  0.41587297  1  0  -0.670284  0  2.077138  0  0  -0.613693  0  2.335982  0  0  -0.647463  0  2.322978  0  0  -0.371897  -0.595637  0  2.343085  0
O  O124  1  0.57389119  0.88057675  0.98933186  1  0  -0.647784  0  2.084234  0  0  -0.59247  0  2.341661  0  0  -0.624557  0  2.329611  0  0  -0.362769  -0.574866  0  2.347917  0
O  O125  1  0.69362693  0.11943429  0.51091785  1  0  -0.647242  0  2.085461  0  0  -0.591475  0  2.342183  0  0  -0.623676  0  2.330357  0  0  -0.361866  -0.573859  0  2.348652  0
O  O126  1  0.42611732  0.11941486  0.01067024  1  0  -0.64801  0  2.084743  0  0  -0.592722  0  2.342153  0  0  -0.6248  0  2.330094  0  0  -0.362933  -0.575124  0  2.348425  0
O  O127  1  0.30636760  0.88057965  0.48909307  1  0  -0.647516  0  2.084973  0  0  -0.591642  0  2.341891  0  0  -0.623844  0  2.330045  0  0  -0.361956  -0.574022  0  2.348359  0
O  O128  1  0.70069200  0.85534321  0.27107681  1  0  -0.645518  0  2.006612  0  0  -0.599586  0  2.249007  0  0  -0.629105  0  2.23623  0  0  -0.353048  -0.584118  0  2.256159  0
O  O129  1  0.84548882  0.14490531  0.22907272  1  0  -0.646156  0  2.005511  0  0  -0.600196  0  2.247882  0  0  -0.629675  0  2.235084  0  0  -0.35357  -0.58476  0  2.255  0
O  O130  1  0.29929067  0.14465797  0.72892378  1  0  -0.645722  0  2.006409  0  0  -0.599788  0  2.248777  0  0  -0.629318  0  2.235997  0  0  -0.353125  -0.584317  0  2.255929  0
O  O131  1  0.15453247  0.85510090  0.77093658  1  0  -0.646135  0  2.005928  0  0  -0.600152  0  2.248335  0  0  -0.629624  0  2.235525  0  0  -0.353514  -0.584719  0  2.255462  0
O  O132  1  0.67142504  0.88990155  0.14942004  1  0  -0.6708  0  2.076721  0  0  -0.620749  0  2.323753  0  0  -0.651882  0  2.313585  0  0  -0.371323  -0.604027  0  2.329431  0
O  O133  1  0.78170481  0.11020698  0.35070557  1  0  -0.669394  0  2.07699  0  0  -0.619436  0  2.323897  0  0  -0.650566  0  2.313789  0  0  -0.370336  -0.602779  0  2.329628  0
O  O134  1  0.32857498  0.11010150  0.85057860  1  0  -0.670709  0  2.076987  0  0  -0.620703  0  2.324005  0  0  -0.651826  0  2.313836  0  0  -0.37126  -0.603986  0  2.329684  0
O  O135  1  0.21828401  0.88978464  0.64929712  1  0  -0.669518  0  2.07667  0  0  -0.619516  0  2.323615  0  0  -0.650656  0  2.313503  0  0  -0.370361  -0.602855  0  2.329345  0
