# generated using pymatgen
data_Ag2H9C6S2BrO10
_symmetry_space_group_name_H-M   'P 1'
_cell_length_a   7.44375579
_cell_length_b   8.67479880
_cell_length_c   11.03042741
_cell_angle_alpha   102.40761684
_cell_angle_beta   104.27846070
_cell_angle_gamma   92.08259782
_symmetry_Int_Tables_number   1
_chemical_formula_structural   Ag2H9C6S2BrO10
_chemical_formula_sum   'Ag4 H18 C12 S4 Br2 O20'
_cell_volume   671.13407699
_cell_formula_units_Z   2
loop_
 _symmetry_equiv_pos_site_id
 _symmetry_equiv_pos_as_xyz
  1  'x, y, z'
loop_
 _atom_site_type_symbol
 _atom_site_label
 _atom_site_symmetry_multiplicity
 _atom_site_fract_x
 _atom_site_fract_y
 _atom_site_fract_z
 _atom_site_occupancy
 _atom_site_hle17_bader_spin_density
 _atom_site_hle17_ddec_charge
 _atom_site_hle17_ddec_spin_density
 _atom_site_hle17_ddec_sum_bond_order
 _atom_site_hle17_magmom
 _atom_site_hse06_10hf_bader_spin_density
 _atom_site_hse06_10hf_ddec_charge
 _atom_site_hse06_10hf_ddec_spin_density
 _atom_site_hse06_10hf_ddec_sum_bond_order
 _atom_site_hse06_10hf_magmom
 _atom_site_hse06_bader_spin_density
 _atom_site_hse06_ddec_charge
 _atom_site_hse06_ddec_spin_density
 _atom_site_hse06_ddec_sum_bond_order
 _atom_site_hse06_magmom
 _atom_site_pbe_bader_spin_density
 _atom_site_pbe_cm5_charge
 _atom_site_pbe_ddec_charge
 _atom_site_pbe_ddec_spin_density
 _atom_site_pbe_ddec_sum_bond_order
 _atom_site_pbe_magmom
Ag  Ag0  1  0.79929295  0.89946251  0.95653848  1  0  0.719231  0  1.080439  0  0  0.61854  0  1.469904  0  0  0.650161  0  1.416234  0  0  0.425616  0.595046  0  1.508047  0
Ag  Ag1  1  0.20071320  0.10053571  0.04346573  1  0  0.719249  0  1.08045  0  0  0.618571  0  1.469916  0  0  0.650191  0  1.416246  0  0  0.425624  0.59508  0  1.508057  0
Ag  Ag2  1  0.50177093  0.20876726  0.78839764  1  0  0.678949  0  1.158897  0  0  0.571592  0  1.564309  0  0  0.602515  0  1.512518  0  0  0.409584  0.549034  0  1.600662  0
Ag  Ag3  1  0.49822722  0.79123342  0.21160381  1  0  0.678953  0  1.158904  0  0  0.571574  0  1.564334  0  0  0.602494  0  1.512545  0  0  0.40958  0.549013  0  1.600682  0
H  H4  1  0.63970928  0.18662813  0.05652654  1  0  0.425425  0  0.875793  0  0  0.397439  0  0.934552  0  0  0.407146  0  0.920491  0  0  0.293075  0.390454  0  0.944636  0
H  H5  1  0.36029389  0.81336780  0.94347222  1  0  0.425409  0  0.875797  0  0  0.397412  0  0.934573  0  0  0.407119  0  0.920511  0  0  0.293082  0.390413  0  0.944672  0
H  H6  1  0.82147438  0.24678975  0.02640631  1  0  0.43571  0  0.85461  0  0  0.408775  0  0.91106  0  0  0.418286  0  0.897229  0  0  0.29864  0.402001  0  0.920879  0
H  H7  1  0.17852863  0.75320499  0.97359312  1  0  0.435661  0  0.854674  0  0  0.408746  0  0.911086  0  0  0.418257  0  0.897254  0  0  0.29867  0.401971  0  0.920904  0
H  H8  1  0.94873406  0.01175901  0.22142753  1  0  0.436348  0  0.863364  0  0  0.407308  0  0.924267  0  0  0.416948  0  0.910105  0  0  0.292038  0.400472  0  0.934286  0
H  H9  1  0.05127208  0.98823920  0.77857759  1  0  0.4363  0  0.863439  0  0  0.407338  0  0.924253  0  0  0.416984  0  0.910076  0  0  0.292034  0.4005  0  0.934278  0
H  H10  1  0.06579483  0.86508407  0.19409687  1  0  0.439427  0  0.845106  0  0  0.412119  0  0.904179  0  0  0.421518  0  0.8905  0  0  0.299589  0.405354  0  0.914039  0
H  H11  1  0.93420674  0.13491063  0.80590593  1  0  0.439498  0  0.845104  0  0  0.412184  0  0.904117  0  0  0.421585  0  0.890435  0  0  0.299585  0.405417  0  0.913984  0
H  H12  1  0.19124116  0.33603680  0.89254451  1  0  0.420468  0  0.888053  0  0  0.3897  0  0.952601  0  0  0.399571  0  0.938181  0  0  0.287367  0.382804  0  0.962591  0
H  H13  1  0.80875645  0.66395915  0.10745421  1  0  0.420431  0  0.888111  0  0  0.389655  0  0.952674  0  0  0.399525  0  0.938255  0  0  0.287348  0.382758  0  0.962662  0
H  H14  1  0.35125180  0.39023986  0.01815412  1  0  0.432594  0  0.860073  0  0  0.40783  0  0.912949  0  0  0.41741  0  0.899082  0  0  0.295447  0.401189  0  0.922526  0
H  H15  1  0.64874889  0.60975848  0.98184373  1  0  0.432558  0  0.860085  0  0  0.407796  0  0.91299  0  0  0.417378  0  0.899121  0  0  0.295436  0.401155  0  0.922568  0
H  H16  1  0.39842120  0.86092678  0.48756279  1  0  0.390463  0  0.871773  0  0  0.365748  0  0.942616  0  0  0.376158  0  0.931283  0  0  0.308344  0.358382  0  0.95055  0
H  H17  1  0.60158144  0.13907629  0.51243622  1  0  0.39044  0  0.871834  0  0  0.365726  0  0.94268  0  0  0.376135  0  0.931347  0  0  0.308321  0.35836  0  0.950614  0
H  H18  1  0.11747164  0.25986640  0.32407822  1  0  0.133533  0  0.948447  0  0  0.140313  0  1.013759  0  0  0.144497  0  1.009802  0  0  0.112002  0.137204  0  1.016755  0
H  H19  1  0.88251615  0.74014028  0.67592161  1  0  0.133559  0  0.948439  0  0  0.140313  0  1.013782  0  0  0.1445  0  1.009821  0  0  0.111977  0.137209  0  1.016782  0
H  H20  1  0.31808413  0.50845875  0.72290727  1  0  0.128353  0  0.931673  0  0  0.13551  0  0.997066  0  0  0.140297  0  0.992034  0  0  0.111637  0.132031  0  1.000754  0
H  H21  1  0.68191543  0.49154194  0.27709262  1  0  0.128341  0  0.931693  0  0  0.135492  0  0.99709  0  0  0.140277  0  0.992062  0  0  0.111632  0.132012  0  1.000775  0
C  C22  1  0.31968773  0.64621452  0.58237509  1  0  -0.235648  0  3.710305  0  0  -0.208087  0  3.963455  0  0  -0.221201  0  3.985393  0  0  -0.034269  -0.199703  0  3.949104  0
C  C23  1  0.68030808  0.35378974  0.41762569  1  0  -0.235642  0  3.710376  0  0  -0.208137  0  3.96357  0  0  -0.221247  0  3.985499  0  0  -0.034271  -0.199754  0  3.949214  0
C  C24  1  0.28661382  0.64857518  0.45115086  1  0  0.345446  0  3.783622  0  0  0.316086  0  4.049574  0  0  0.332553  0  4.063723  0  0  0.093291  0.304927  0  4.040024  0
C  C25  1  0.71338202  0.35142910  0.54884811  1  0  0.345405  0  3.783569  0  0  0.316112  0  4.049451  0  0  0.332573  0  4.063607  0  0  0.093304  0.304953  0  4.039903  0
C  C26  1  0.20824146  0.50740103  0.35953348  1  0  -0.22362  0  3.686031  0  0  -0.198912  0  3.942342  0  0  -0.211574  0  3.963576  0  0  -0.030148  -0.190837  0  3.928248  0
C  C27  1  0.79175036  0.49260445  0.64046592  1  0  -0.223634  0  3.685936  0  0  -0.19895  0  3.942223  0  0  -0.211607  0  3.963468  0  0  -0.030197  -0.190874  0  3.928136  0
C  C28  1  0.17522062  0.36764462  0.39691763  1  0  -0.064045  0  3.719018  0  0  -0.105206  0  3.978393  0  0  -0.099768  0  3.994896  0  0  -0.085512  -0.108473  0  3.96724  0
C  C29  1  0.82477117  0.63236084  0.60308357  1  0  -0.064071  0  3.718881  0  0  -0.105246  0  3.978293  0  0  -0.099817  0  3.994803  0  0  -0.085515  -0.108503  0  3.967106  0
C  C30  1  0.21824170  0.36844952  0.52735086  1  0  0.070342  0  3.69679  0  0  0.085571  0  3.973121  0  0  0.083803  0  3.996109  0  0  -0.028027  0.086342  0  3.957602  0
C  C31  1  0.78175410  0.63155473  0.47265082  1  0  0.070288  0  3.696799  0  0  0.085605  0  3.972998  0  0  0.083839  0  3.995985  0  0  -0.028017  0.086378  0  3.957483  0
C  C32  1  0.28725256  0.50703018  0.62085255  1  0  -0.067442  0  3.73443  0  0  -0.109646  0  3.997471  0  0  -0.10468  0  4.014238  0  0  -0.086154  -0.11291  0  3.98646  0
C  C33  1  0.71274436  0.49297170  0.37914800  1  0  -0.06741  0  3.734416  0  0  -0.109625  0  3.997459  0  0  -0.104661  0  4.014228  0  0  -0.086154  -0.112885  0  3.986438  0
S  S34  1  0.38230391  0.82740307  0.69973697  1  0  1.307453  0  5.649182  0  0  1.204659  0  6.160652  0  0  1.252972  0  6.138531  0  0  0.508592  1.171373  0  6.174761  0
S  S35  1  0.61769439  0.17259880  0.30026381  1  0  1.307573  0  5.648904  0  0  1.204823  0  6.160359  0  0  1.253132  0  6.138234  0  0  0.508705  1.171546  0  6.174464  0
S  S36  1  0.14675437  0.50717292  0.19304089  1  0  1.357544  0  5.571721  0  0  1.250297  0  6.086363  0  0  1.299173  0  6.063595  0  0  0.525201  1.216676  0  6.100952  0
S  S37  1  0.85324787  0.49282661  0.80695562  1  0  1.357441  0  5.571987  0  0  1.250245  0  6.086567  0  0  1.299118  0  6.063817  0  0  0.525177  1.216623  0  6.101159  0
Br  Br38  1  0.18346445  0.17561331  0.57847096  1  0  0.005928  0  1.525954  0  0  0.022059  0  1.852208  0  0  0.01671  0  1.838163  0  0  0.092727  0.025546  0  1.862121  0
Br  Br39  1  0.81653226  0.82438627  0.42152370  1  0  0.005941  0  1.526045  0  0  0.022062  0  1.852268  0  0  0.016716  0  1.838219  0  0  0.092738  0.025546  0  1.862177  0
O  O40  1  0.70854596  0.17175382  0.98899045  1  0  -0.833491  0  1.944122  0  0  -0.761202  0  2.16103  0  0  -0.78683  0  2.125821  0  0  -0.580167  -0.74258  0  2.185679  0
O  O41  1  0.29145584  0.82824213  0.01100717  1  0  -0.833439  0  1.944172  0  0  -0.761151  0  2.161091  0  0  -0.786778  0  2.125879  0  0  -0.580209  -0.742515  0  2.185776  0
O  O42  1  0.47342273  0.78946638  0.82292346  1  0  -0.669218  0  2.078577  0  0  -0.599699  0  2.341811  0  0  -0.623589  0  2.325277  0  0  -0.325303  -0.582866  0  2.352848  0
O  O43  1  0.52657976  0.21053549  0.17707622  1  0  -0.669231  0  2.078505  0  0  -0.599743  0  2.341754  0  0  -0.623623  0  2.325215  0  0  -0.32532  -0.582929  0  2.352799  0
O  O44  1  0.20658365  0.89828834  0.70091789  1  0  -0.675966  0  2.044174  0  0  -0.618942  0  2.30515  0  0  -0.641439  0  2.290268  0  0  -0.333392  -0.602947  0  2.31488  0
O  O45  1  0.79341323  0.10171350  0.29908537  1  0  -0.676018  0  2.04401  0  0  -0.618987  0  2.304991  0  0  -0.641483  0  2.290113  0  0  -0.33347  -0.602992  0  2.314718  0
O  O46  1  0.03595882  0.96666539  0.17198831  1  0  -0.857532  0  1.90054  0  0  -0.79371  0  2.115649  0  0  -0.817284  0  2.08029  0  0  -0.589156  -0.77664  0  2.140406  0
O  O47  1  0.96404734  0.03333284  0.82801590  1  0  -0.857522  0  1.900656  0  0  -0.793789  0  2.115525  0  0  -0.817361  0  2.080163  0  0  -0.589148  -0.776722  0  2.140282  0
O  O48  1  0.50920080  0.92134840  0.65262451  1  0  -0.673162  0  2.01959  0  0  -0.615194  0  2.282882  0  0  -0.638084  0  2.267658  0  0  -0.332105  -0.598868  0  2.292846  0
O  O49  1  0.49079517  0.07865706  0.34737559  1  0  -0.673123  0  2.019471  0  0  -0.615175  0  2.282767  0  0  -0.638062  0  2.267542  0  0  -0.332117  -0.598853  0  2.292729  0
O  O50  1  0.31378242  0.30752338  0.93720064  1  0  -0.857241  0  1.942199  0  0  -0.791084  0  2.158545  0  0  -0.815676  0  2.122942  0  0  -0.592667  -0.773142  0  2.182608  0
O  O51  1  0.68621686  0.69247494  0.06279878  1  0  -0.857188  0  1.942187  0  0  -0.791035  0  2.158608  0  0  -0.81561  0  2.122963  0  0  -0.592639  -0.773093  0  2.182668  0
O  O52  1  0.03342114  0.64099897  0.18081842  1  0  -0.686369  0  2.054391  0  0  -0.623568  0  2.305042  0  0  -0.646047  0  2.290085  0  0  -0.328408  -0.607701  0  2.314964  0
O  O53  1  0.96658070  0.35899598  0.81916543  1  0  -0.686445  0  2.054546  0  0  -0.623621  0  2.305136  0  0  -0.646103  0  2.290185  0  0  -0.328362  -0.607736  0  2.315044  0
O  O54  1  0.04366926  0.35211597  0.12650177  1  0  -0.684631  0  2.036273  0  0  -0.620686  0  2.302004  0  0  -0.643554  0  2.284508  0  0  -0.331512  -0.604589  0  2.313688  0
O  O55  1  0.95633482  0.64787635  0.87350014  1  0  -0.68456  0  2.036393  0  0  -0.620631  0  2.3021  0  0  -0.643504  0  2.284611  0  0  -0.331507  -0.604538  0  2.313785  0
O  O56  1  0.32378303  0.52937751  0.15813455  1  0  -0.684881  0  2.062476  0  0  -0.617947  0  2.334726  0  0  -0.642284  0  2.31724  0  0  -0.335303  -0.600762  0  2.346065  0
O  O57  1  0.67622701  0.47061834  0.84186900  1  0  -0.68479  0  2.062408  0  0  -0.617939  0  2.334745  0  0  -0.642263  0  2.31723  0  0  -0.335328  -0.600754  0  2.346085  0
O  O58  1  0.32575701  0.77942797  0.41105389  1  0  -0.513991  0  2.198478  0  0  -0.469657  0  2.442331  0  0  -0.48772  0  2.429566  0  0  -0.341011  -0.456815  0  2.450955  0
O  O59  1  0.67423962  0.22057153  0.58894710  1  0  -0.513952  0  2.198368  0  0  -0.469629  0  2.442185  0  0  -0.487693  0  2.429422  0  0  -0.340976  -0.456789  0  2.450813  0
