# generated using pymatgen
data_KCoH22C24N2O3
_symmetry_space_group_name_H-M   'P 1'
_cell_length_a   7.45658081
_cell_length_b   12.11680331
_cell_length_c   12.11685646
_cell_angle_alpha   79.52617047
_cell_angle_beta   87.42449728
_cell_angle_gamma   87.42595818
_symmetry_Int_Tables_number   1
_chemical_formula_structural   KCoH22C24N2O3
_chemical_formula_sum   'K2 Co2 H44 C48 N4 O6'
_cell_volume   1074.67635882
_cell_formula_units_Z   2
loop_
 _symmetry_equiv_pos_site_id
 _symmetry_equiv_pos_as_xyz
  1  'x, y, z'
loop_
 _atom_site_type_symbol
 _atom_site_label
 _atom_site_symmetry_multiplicity
 _atom_site_fract_x
 _atom_site_fract_y
 _atom_site_fract_z
 _atom_site_occupancy
 _atom_site_hle17_bader_spin_density
 _atom_site_hle17_ddec_charge
 _atom_site_hle17_ddec_spin_density
 _atom_site_hle17_ddec_sum_bond_order
 _atom_site_hle17_magmom
 _atom_site_hse06_10hf_bader_spin_density
 _atom_site_hse06_10hf_ddec_charge
 _atom_site_hse06_10hf_ddec_spin_density
 _atom_site_hse06_10hf_ddec_sum_bond_order
 _atom_site_hse06_10hf_magmom
 _atom_site_hse06_bader_spin_density
 _atom_site_hse06_ddec_charge
 _atom_site_hse06_ddec_spin_density
 _atom_site_hse06_ddec_sum_bond_order
 _atom_site_hse06_magmom
 _atom_site_pbe_bader_spin_density
 _atom_site_pbe_cm5_charge
 _atom_site_pbe_ddec_charge
 _atom_site_pbe_ddec_spin_density
 _atom_site_pbe_ddec_sum_bond_order
 _atom_site_pbe_magmom
K  K0  1  0.84408950  0.45030399  0.46153976  1  0  0.907828  0  0.560108  0  0  0.850941  0  0.75891  0  0  0.86822  0  0.735324  0  0  0.84144  0.83801  0  0.775785  0
K  K1  1  0.34409012  0.46153375  0.45030286  1  0  0.907829  0  0.560107  0  0  0.85095  0  0.758893  0  0  0.868249  0  0.735281  0  0  0.841416  0.83802  0  0.77577  0
Co  Co2  1  0.61734872  0.27793676  0.65590158  1  0  0.363601  0  2.79109  0  0  0.30129  0  3.331037  0  0  0.309531  0  3.292507  0  0  0.53609  0.303226  0  3.349268  0
Co  Co3  1  0.11734497  0.65589185  0.27794333  1  0  0.363494  0  2.791303  0  0  0.301147  0  3.331298  0  0  0.309471  0  3.292749  0  0  0.536023  0.303073  0  3.349624  0
H  H4  1  0.67428036  0.34648633  0.94702829  1  0  0.063288  0  0.964186  0  0  0.0768  0  1.025976  0  0  0.077088  0  1.022451  0  0  0.109007  0.076824  0  1.028422  0
H  H5  1  0.17427640  0.94703048  0.34648095  1  0  0.063285  0  0.964177  0  0  0.076789  0  1.025977  0  0  0.077077  0  1.022456  0  0  0.108989  0.076815  0  1.028434  0
H  H6  1  0.70176685  0.96877412  0.63869450  1  0  0.060767  0  0.974454  0  0  0.071778  0  1.043079  0  0  0.071693  0  1.040085  0  0  0.108121  0.072052  0  1.04514  0
H  H7  1  0.20177055  0.63869141  0.96877509  1  0  0.060703  0  0.974568  0  0  0.071762  0  1.043149  0  0  0.071682  0  1.040151  0  0  0.108096  0.072031  0  1.045225  0
H  H8  1  0.63953288  0.53405660  0.96288995  1  0  0.083297  0  0.963672  0  0  0.09862  0  1.020774  0  0  0.10065  0  1.020528  0  0  0.097389  0.09701  0  1.021141  0
H  H9  1  0.13953300  0.96289110  0.53405459  1  0  0.083293  0  0.963784  0  0  0.098631  0  1.020867  0  0  0.100677  0  1.020602  0  0  0.097415  0.09702  0  1.021235  0
H  H10  1  0.75785083  0.90670127  0.79076776  1  0  0.093704  0  0.979759  0  0  0.105299  0  1.042033  0  0  0.107154  0  1.041543  0  0  0.100588  0.104074  0  1.042348  0
H  H11  1  0.25784581  0.79076858  0.90669963  1  0  0.093752  0  0.979718  0  0  0.105336  0  1.042004  0  0  0.10719  0  1.041515  0  0  0.100611  0.104112  0  1.042322  0
H  H12  1  0.49712170  0.79124358  0.68204225  1  0  0.079361  0  0.950866  0  0  0.093337  0  1.007247  0  0  0.095626  0  1.005623  0  0  0.095512  0.091521  0  1.008702  0
H  H13  1  0.99711724  0.68204391  0.79124495  1  0  0.079378  0  0.950808  0  0  0.093349  0  1.007196  0  0  0.095639  0  1.005572  0  0  0.095497  0.09153  0  1.008657  0
H  H14  1  0.65675261  0.91760465  0.46771687  1  0  0.086615  0  0.950325  0  0  0.101201  0  1.005945  0  0  0.103532  0  1.005461  0  0  0.098625  0.099548  0  1.006218  0
H  H15  1  0.15675322  0.46771659  0.91760557  1  0  0.08662  0  0.950309  0  0  0.101209  0  1.005927  0  0  0.10355  0  1.005428  0  0  0.098622  0.099556  0  1.006203  0
H  H16  1  0.72637945  0.19881844  0.03271294  1  0  0.091943  0  0.980335  0  0  0.102435  0  1.044078  0  0  0.104484  0  1.04309  0  0  0.100179  0.101073  0  1.0447  0
H  H17  1  0.22637836  0.03271475  0.19881646  1  0  0.091965  0  0.980272  0  0  0.102448  0  1.044022  0  0  0.104506  0  1.04303  0  0  0.100189  0.101086  0  1.044643  0
H  H18  1  0.50915839  0.31221922  0.28896836  1  0  0.091018  0  0.969645  0  0  0.103122  0  1.031629  0  0  0.106796  0  1.030233  0  0  0.101293  0.10039  0  1.032941  0
H  H19  1  0.00914532  0.28896169  0.31221911  1  0  0.091072  0  0.969524  0  0  0.103112  0  1.031581  0  0  0.106801  0  1.030169  0  0  0.1013  0.10038  0  1.032895  0
H  H20  1  0.57714127  0.96165317  0.26674015  1  0  0.086152  0  0.988479  0  0  0.098928  0  1.050291  0  0  0.101428  0  1.05084  0  0  0.093639  0.09693  0  1.050307  0
H  H21  1  0.07714408  0.26673625  0.96165406  1  0  0.086248  0  0.988551  0  0  0.099004  0  1.050371  0  0  0.101512  0  1.05091  0  0  0.093687  0.096998  0  1.050397  0
H  H22  1  0.49903894  0.64842753  0.56039427  1  0  0.091023  0  0.972125  0  0  0.103126  0  1.035358  0  0  0.106462  0  1.03436  0  0  0.10232  0.10051  0  1.036555  0
H  H23  1  0.99903312  0.56039432  0.64842880  1  0  0.090978  0  0.972229  0  0  0.10312  0  1.035421  0  0  0.106456  0  1.034422  0  0  0.102305  0.100508  0  1.036613  0
H  H24  1  0.57359464  0.73565391  0.88396463  1  0  0.079461  0  0.98854  0  0  0.090497  0  1.053816  0  0  0.093271  0  1.053699  0  0  0.090889  0.088332  0  1.054271  0
H  H25  1  0.07359586  0.88396752  0.73565195  1  0  0.079421  0  0.988543  0  0  0.090472  0  1.053807  0  0  0.093249  0  1.053684  0  0  0.090858  0.088307  0  1.054264  0
H  H26  1  0.50137296  0.16006651  0.17865686  1  0  0.081563  0  0.955805  0  0  0.097259  0  1.010634  0  0  0.099492  0  1.009212  0  0  0.09707  0.095444  0  1.011959  0
H  H27  1  0.00137119  0.17864582  0.16006742  1  0  0.081613  0  0.955739  0  0  0.097269  0  1.010624  0  0  0.09953  0  1.009166  0  0  0.097049  0.095451  0  1.011955  0
H  H28  1  0.06690727  0.17371942  0.82246544  1  0  0.070721  0  0.964597  0  0  0.087431  0  1.026973  0  0  0.087196  0  1.029667  0  0  0.088422  0.087552  0  1.025178  0
H  H29  1  0.56691015  0.82246328  0.17371926  1  0  0.070562  0  0.964615  0  0  0.087267  0  1.026979  0  0  0.087034  0  1.029669  0  0  0.088327  0.087384  0  1.025183  0
H  H30  1  0.29712007  0.20561505  0.79272798  1  0  0.073895  0  0.96185  0  0  0.082836  0  1.03725  0  0  0.085146  0  1.035476  0  0  0.0889  0.081042  0  1.038653  0
H  H31  1  0.79711774  0.79272629  0.20561270  1  0  0.073883  0  0.961861  0  0  0.082755  0  1.037304  0  0  0.085061  0  1.035535  0  0  0.088871  0.080964  0  1.038698  0
H  H32  1  0.97164149  0.34739618  0.72098489  1  0  0.039258  0  0.961907  0  0  0.042488  0  1.04632  0  0  0.04474  0  1.043149  0  0  0.092409  0.04089  0  1.048419  0
H  H33  1  0.47163534  0.72097729  0.34739544  1  0  0.039332  0  0.961881  0  0  0.042605  0  1.046234  0  0  0.044857  0  1.043067  0  0  0.092456  0.041007  0  1.048335  0
H  H34  1  0.20188746  0.38791696  0.70975872  1  0  0.056845  0  0.9285  0  0  0.070546  0  0.991768  0  0  0.071199  0  0.990991  0  0  0.105623  0.070038  0  0.992411  0
H  H35  1  0.70187914  0.70975787  0.38791405  1  0  0.056958  0  0.928453  0  0  0.070589  0  0.991792  0  0  0.071246  0  0.991011  0  0  0.105641  0.070082  0  0.992434  0
H  H36  1  0.16983415  0.19901788  0.48155299  1  0  0.052393  0  0.928545  0  0  0.068453  0  0.989333  0  0  0.068181  0  0.98976  0  0  0.105128  0.068635  0  0.989105  0
H  H37  1  0.66983442  0.48155095  0.19901363  1  0  0.052398  0  0.928584  0  0  0.068431  0  0.989396  0  0  0.068177  0  0.989805  0  0  0.105128  0.068626  0  0.989153  0
H  H38  1  0.95373257  0.19389150  0.55422671  1  0  0.038245  0  0.97445  0  0  0.041894  0  1.058343  0  0  0.043866  0  1.056125  0  0  0.091975  0.040307  0  1.060037  0
H  H39  1  0.45373311  0.55421975  0.19389259  1  0  0.038242  0  0.974508  0  0  0.041907  0  1.058384  0  0  0.043877  0  1.056169  0  0  0.091967  0.040318  0  1.060083  0
H  H40  1  0.82594023  0.85646301  0.99107082  1  0  0.089847  0  0.95705  0  0  0.104528  0  1.012023  0  0  0.106351  0  1.012407  0  0  0.100675  0.103371  0  1.011585  0
H  H41  1  0.32593544  0.99107385  0.85645817  1  0  0.089835  0  0.957066  0  0  0.104537  0  1.012007  0  0  0.106362  0  1.012391  0  0  0.100672  0.10338  0  1.011568  0
H  H42  1  0.31523685  0.10715585  0.64549497  1  0  0.073262  0  0.970001  0  0  0.083865  0  1.041539  0  0  0.084646  0  1.04194  0  0  0.088501  0.083229  0  1.041326  0
H  H43  1  0.81523482  0.64549701  0.10714962  1  0  0.073273  0  0.969919  0  0  0.083843  0  1.04152  0  0  0.084622  0  1.041924  0  0  0.088501  0.083206  0  1.041311  0
H  H44  1  0.09782536  0.05689415  0.68832574  1  0  0.071206  0  0.968162  0  0  0.090221  0  1.028934  0  0  0.089659  0  1.031152  0  0  0.090547  0.090659  0  1.02739  0
H  H45  1  0.59782195  0.68832343  0.05689367  1  0  0.07112  0  0.9682  0  0  0.090156  0  1.028983  0  0  0.089599  0  1.031192  0  0  0.090505  0.090592  0  1.027441  0
H  H46  1  0.80749878  0.00217777  0.11241015  1  0  0.085351  0  0.960424  0  0  0.095872  0  1.023362  0  0  0.097869  0  1.023467  0  0  0.097946  0.094591  0  1.023167  0
H  H47  1  0.30749557  0.11241408  0.00217433  1  0  0.085355  0  0.96039  0  0  0.095868  0  1.023341  0  0  0.097864  0  1.023446  0  0  0.097924  0.094588  0  1.023144  0
C  C48  1  0.56912072  0.50846521  0.69083578  1  0  0.312286  0  3.8537  0  0  0.30388  0  4.102965  0  0  0.321899  0  4.116954  0  0  0.077747  0.291822  0  4.093593  0
C  C49  1  0.06912167  0.69083889  0.50846285  1  0  0.312385  0  3.853531  0  0  0.303932  0  4.102861  0  0  0.32195  0  4.116851  0  0  0.077734  0.291873  0  4.093501  0
C  C50  1  0.64477508  0.36181316  0.85789396  1  0  0.086238  0  3.68342  0  0  0.0518  0  3.937488  0  0  0.075504  0  3.940677  0  0  0.034414  0.034412  0  3.937102  0
C  C51  1  0.14477314  0.85789737  0.36180993  1  0  0.086132  0  3.682991  0  0  0.051684  0  3.937014  0  0  0.075366  0  3.940203  0  0  0.034302  0.034288  0  3.936679  0
C  C52  1  0.60629908  0.47569133  0.80753001  1  0  -0.088833  0  3.840861  0  0  -0.070771  0  4.072972  0  0  -0.08491  0  4.098969  0  0  -0.035356  -0.061468  0  4.056051  0
C  C53  1  0.10629905  0.80753295  0.47568907  1  0  -0.088818  0  3.840831  0  0  -0.070754  0  4.072961  0  0  -0.084889  0  4.098952  0  0  -0.035351  -0.061448  0  4.056065  0
C  C54  1  0.58406319  0.20326796  0.44333471  1  0  0.314585  0  3.855494  0  0  0.30687  0  4.102277  0  0  0.324598  0  4.117005  0  0  0.079627  0.294938  0  4.092541  0
C  C55  1  0.08404433  0.44333342  0.20326807  1  0  0.314547  0  3.855708  0  0  0.306801  0  4.102484  0  0  0.324527  0  4.117218  0  0  0.079727  0.294869  0  4.092759  0
C  C56  1  0.62464640  0.08892789  0.49429853  1  0  -0.092807  0  3.849622  0  0  -0.072696  0  4.079099  0  0  -0.086865  0  4.105631  0  0  -0.036741  -0.063493  0  4.061818  0
C  C57  1  0.12464226  0.49429437  0.08893371  1  0  -0.093021  0  3.849572  0  0  -0.072889  0  4.07905  0  0  -0.087059  0  4.105586  0  0  -0.036814  -0.063681  0  4.061793  0
C  C58  1  0.66607022  0.05737874  0.60969947  1  0  0.075603  0  3.695422  0  0  0.038984  0  3.95441  0  0  0.062637  0  3.956247  0  0  0.03055  0.022318  0  3.953909  0
C  C59  1  0.16606725  0.60969841  0.05737771  1  0  0.075761  0  3.69515  0  0  0.039119  0  3.954077  0  0  0.062765  0  3.955932  0  0  0.030594  0.022448  0  3.953608  0
C  C60  1  0.69616056  0.16599783  0.86442124  1  0  0.129049  0  3.783343  0  0  0.129393  0  4.021686  0  0  0.131944  0  4.04623  0  0  0.08287  0.127966  0  4.004761  0
C  C61  1  0.19615754  0.86441871  0.16599531  1  0  0.129304  0  3.783396  0  0  0.129583  0  4.02176  0  0  0.132127  0  4.046301  0  0  0.082984  0.128167  0  4.004837  0
C  C62  1  0.60758266  0.55999294  0.87466572  1  0  -0.093985  0  3.786696  0  0  -0.111692  0  4.030553  0  0  -0.108842  0  4.054113  0  0  -0.094548  -0.11361  0  4.014857  0
C  C63  1  0.10758280  0.87467022  0.55999081  1  0  -0.093949  0  3.786532  0  0  -0.111672  0  4.030401  0  0  -0.108836  0  4.053955  0  0  -0.094542  -0.113592  0  4.014716  0
C  C64  1  0.75046106  0.97179847  0.84215546  1  0  -0.155523  0  3.761482  0  0  -0.175108  0  4.009831  0  0  -0.178407  0  4.032098  0  0  -0.097704  -0.172369  0  3.993785  0
C  C65  1  0.25045322  0.84215379  0.97179803  1  0  -0.155519  0  3.7614  0  0  -0.175096  0  4.00975  0  0  -0.178396  0  4.032014  0  0  -0.097697  -0.172354  0  3.993699  0
C  C66  1  0.70495220  0.08337583  0.79626852  1  0  0.129358  0  3.780929  0  0  0.131093  0  4.017447  0  0  0.133337  0  4.042236  0  0  0.083283  0.129601  0  4.000475  0
C  C67  1  0.20494766  0.79626667  0.08337728  1  0  0.129264  0  3.781247  0  0  0.131014  0  4.017752  0  0  0.133262  0  4.042548  0  0  0.083278  0.129527  0  4.000778  0
C  C68  1  0.52973002  0.70362129  0.71722994  1  0  -0.030965  0  3.811279  0  0  -0.045075  0  4.060654  0  0  -0.040721  0  4.079998  0  0  -0.094051  -0.047972  0  4.048136  0
C  C69  1  0.02972790  0.71723068  0.70361970  1  0  -0.030954  0  3.811254  0  0  -0.045057  0  4.06062  0  0  -0.040707  0  4.079969  0  0  -0.094015  -0.047953  0  4.048116  0
C  C70  1  0.62279553  0.00395541  0.42796468  1  0  -0.089916  0  3.7853  0  0  -0.107562  0  4.02693  0  0  -0.104832  0  4.050445  0  0  -0.094818  -0.109176  0  4.010932  0
C  C71  1  0.12278748  0.42796185  0.00395329  1  0  -0.089824  0  3.785095  0  0  -0.107472  0  4.026691  0  0  -0.104751  0  4.05021  0  0  -0.094771  -0.10909  0  4.010704  0
C  C72  1  0.73191911  0.13627923  0.97850823  1  0  -0.158809  0  3.762852  0  0  -0.178688  0  4.014801  0  0  -0.182317  0  4.037383  0  0  -0.097472  -0.175721  0  3.998438  0
C  C73  1  0.23191422  0.97850398  0.13627881  1  0  -0.158854  0  3.76261  0  0  -0.178701  0  4.014571  0  0  -0.182344  0  4.037143  0  0  -0.097406  -0.175732  0  3.998204  0
C  C74  1  0.54031733  0.22553777  0.32860526  1  0  -0.230675  0  3.788019  0  0  -0.248074  0  4.039783  0  0  -0.256292  0  4.058672  0  0  -0.118177  -0.243159  0  4.02761  0
C  C75  1  0.04030529  0.32860331  0.22554029  1  0  -0.230592  0  3.787906  0  0  -0.247925  0  4.039672  0  0  -0.256156  0  4.058564  0  0  -0.11822  -0.243016  0  4.02752  0
C  C76  1  0.57937794  0.02816273  0.31597212  1  0  -0.133637  0  3.848  0  0  -0.14956  0  4.10252  0  0  -0.157278  0  4.126089  0  0  -0.123145  -0.144699  0  4.087229  0
C  C77  1  0.07937687  0.31596750  0.02816236  1  0  -0.133652  0  3.848107  0  0  -0.149567  0  4.102592  0  0  -0.157294  0  4.126173  0  0  -0.123164  -0.144703  0  4.087321  0
C  C78  1  0.52930869  0.62338246  0.64889039  1  0  -0.218406  0  3.773022  0  0  -0.236435  0  4.024172  0  0  -0.244657  0  4.044079  0  0  -0.113795  -0.231533  0  4.011469  0
C  C79  1  0.02930500  0.64888995  0.62338095  1  0  -0.218448  0  3.772918  0  0  -0.236501  0  4.024094  0  0  -0.244725  0  4.044001  0  0  -0.113819  -0.231606  0  4.011401  0
C  C80  1  0.57093037  0.67219979  0.83099516  1  0  -0.137916  0  3.853567  0  0  -0.154279  0  4.112803  0  0  -0.162182  0  4.136216  0  0  -0.121576  -0.149328  0  4.097802  0
C  C81  1  0.07092907  0.83099632  0.67220093  1  0  -0.137893  0  3.853377  0  0  -0.154265  0  4.112589  0  0  -0.162168  0  4.136008  0  0  -0.121564  -0.149317  0  4.097602  0
C  C82  1  0.53715303  0.13999819  0.26652485  1  0  -0.043358  0  3.819152  0  0  -0.057545  0  4.067829  0  0  -0.052852  0  4.086623  0  0  -0.098627  -0.060599  0  4.05563  0
C  C83  1  0.03714730  0.26651916  0.13999819  1  0  -0.043581  0  3.819181  0  0  -0.057734  0  4.067838  0  0  -0.053067  0  4.086643  0  0  -0.09864  -0.06079  0  4.055654  0
C  C84  1  0.16559260  0.20538988  0.75571877  1  0  -0.142014  0  3.63623  0  0  -0.180848  0  3.894798  0  0  -0.182048  0  3.904714  0  0  -0.169093  -0.179975  0  3.888232  0
C  C85  1  0.66559087  0.75571644  0.20538645  1  0  -0.141877  0  3.636292  0  0  -0.180599  0  3.894795  0  0  -0.181795  0  3.904712  0  0  -0.168979  -0.179721  0  3.888224  0
C  C86  1  0.11001139  0.32377683  0.69589395  1  0  0.092798  0  3.591339  0  0  0.039352  0  3.868319  0  0  0.047135  0  3.870142  0  0  -0.077329  0.034042  0  3.867132  0
C  C87  1  0.61000828  0.69589029  0.32377551  1  0  0.092611  0  3.591426  0  0  0.039181  0  3.868368  0  0  0.046963  0  3.870187  0  0  -0.077394  0.033869  0  3.867179  0
C  C88  1  0.09763958  0.20820431  0.56070411  1  0  0.091553  0  3.619205  0  0  0.038196  0  3.892011  0  0  0.045116  0  3.896211  0  0  -0.079024  0.033569  0  3.889118  0
C  C89  1  0.59763810  0.56069995  0.20820375  1  0  0.091495  0  3.619247  0  0  0.038156  0  3.892044  0  0  0.045064  0  3.896247  0  0  -0.079021  0.033521  0  3.88915  0
C  C90  1  0.78858488  0.94312134  0.95578300  1  0  -0.062793  0  3.785883  0  0  -0.07842  0  4.038206  0  0  -0.080311  0  4.061493  0  0  -0.095603  -0.076867  0  4.021738  0
C  C91  1  0.28857855  0.95578727  0.94311823  1  0  -0.062792  0  3.785851  0  0  -0.078436  0  4.038176  0  0  -0.08033  0  4.061465  0  0  -0.095608  -0.076881  0  4.021704  0
C  C92  1  0.17557969  0.13255191  0.66336611  1  0  -0.140488  0  3.645665  0  0  -0.178085  0  3.899271  0  0  -0.17918  0  3.911325  0  0  -0.169147  -0.17724  0  3.890955  0
C  C93  1  0.67557651  0.66336474  0.13254960  1  0  -0.140303  0  3.645668  0  0  -0.177931  0  3.899231  0  0  -0.179029  0  3.911292  0  0  -0.169088  -0.177091  0  3.890915  0
C  C94  1  0.77862328  0.02482504  0.02367363  1  0  -0.063578  0  3.78637  0  0  -0.080222  0  4.042423  0  0  -0.082508  0  4.066369  0  0  -0.095318  -0.0783  0  4.025453  0
C  C95  1  0.27861851  0.02367574  0.02482081  1  0  -0.063639  0  3.786279  0  0  -0.080289  0  4.042368  0  0  -0.082575  0  4.066318  0  0  -0.095364  -0.078365  0  4.025396  0
N  N96  1  0.66426175  0.12720673  0.68249453  1  0  -0.296521  0  3.498248  0  0  -0.243885  0  3.804187  0  0  -0.262126  0  3.818055  0  0  -0.385547  -0.23269  0  3.793538  0
N  N97  1  0.16426080  0.68249945  0.12720415  1  0  -0.296506  0  3.498228  0  0  -0.243869  0  3.804159  0  0  -0.262144  0  3.818067  0  0  -0.385518  -0.232673  0  3.793534  0
N  N98  1  0.65110431  0.27539981  0.80413154  1  0  -0.301022  0  3.496755  0  0  -0.249612  0  3.805656  0  0  -0.268389  0  3.819257  0  0  -0.38436  -0.238272  0  3.795402  0
N  N99  1  0.15110239  0.80413141  0.27539120  1  0  -0.301086  0  3.496458  0  0  -0.249585  0  3.805288  0  0  -0.268352  0  3.818876  0  0  -0.384349  -0.238266  0  3.795083  0
O  O100  1  0.58664344  0.28778999  0.49886287  1  0  -0.617711  0  2.297569  0  0  -0.562266  0  2.59139  0  0  -0.589131  0  2.585982  0  0  -0.467476  -0.54417  0  2.593516  0
O  O101  1  0.08663594  0.49886183  0.28779007  1  0  -0.617575  0  2.297717  0  0  -0.562117  0  2.591574  0  0  -0.588992  0  2.586175  0  0  -0.467497  -0.544013  0  2.593686  0
O  O102  1  0.57147474  0.43585261  0.62099335  1  0  -0.624469  0  2.31718  0  0  -0.568415  0  2.613991  0  0  -0.595597  0  2.608514  0  0  -0.479819  -0.550029  0  2.616  0
O  O103  1  0.07148109  0.62099285  0.43585443  1  0  -0.624525  0  2.317395  0  0  -0.568471  0  2.614297  0  0  -0.595665  0  2.608833  0  0  -0.479823  -0.550078  0  2.616294  0
O  O104  1  0.11941643  0.32237638  0.57623899  1  0  -0.418702  0  2.257862  0  0  -0.35311  0  2.52589  0  0  -0.367035  0  2.52104  0  0  -0.382029  -0.343253  0  2.52908  0
O  O105  1  0.61941714  0.57623480  0.32237562  1  0  -0.418685  0  2.257814  0  0  -0.353086  0  2.525799  0  0  -0.367012  0  2.52096  0  0  -0.382044  -0.343232  0  2.528997  0
