# generated using pymatgen
data_CuH6(C3N2)2
_symmetry_space_group_name_H-M   'P 1'
_cell_length_a   3.99662320
_cell_length_b   9.82416650
_cell_length_c   18.26332142
_cell_angle_alpha   90.00032036
_cell_angle_beta   89.99986040
_cell_angle_gamma   93.12976392
_symmetry_Int_Tables_number   1
_chemical_formula_structural   CuH6(C3N2)2
_chemical_formula_sum   'Cu4 H24 C24 N16'
_cell_volume   716.01220093
_cell_formula_units_Z   4
loop_
 _symmetry_equiv_pos_site_id
 _symmetry_equiv_pos_as_xyz
  1  'x, y, z'
loop_
 _atom_site_type_symbol
 _atom_site_label
 _atom_site_symmetry_multiplicity
 _atom_site_fract_x
 _atom_site_fract_y
 _atom_site_fract_z
 _atom_site_occupancy
 _atom_site_hle17_bader_spin_density
 _atom_site_hle17_ddec_charge
 _atom_site_hle17_ddec_spin_density
 _atom_site_hle17_ddec_sum_bond_order
 _atom_site_hle17_magmom
 _atom_site_hse06_10hf_bader_spin_density
 _atom_site_hse06_10hf_ddec_charge
 _atom_site_hse06_10hf_ddec_spin_density
 _atom_site_hse06_10hf_ddec_sum_bond_order
 _atom_site_hse06_10hf_magmom
 _atom_site_hse06_bader_spin_density
 _atom_site_hse06_ddec_charge
 _atom_site_hse06_ddec_spin_density
 _atom_site_hse06_ddec_sum_bond_order
 _atom_site_hse06_magmom
 _atom_site_pbe_bader_spin_density
 _atom_site_pbe_cm5_charge
 _atom_site_pbe_ddec_charge
 _atom_site_pbe_ddec_spin_density
 _atom_site_pbe_ddec_sum_bond_order
 _atom_site_pbe_magmom
Cu  Cu0  1  0.87521973  0.71632657  0.86211238  1  0  0.621156  0  1.973678  0  0  0.521366  0  2.475906  0  0  0.515489  0  2.431521  0  0  0.615686  0.527966  0  2.503372  0
Cu  Cu1  1  0.87523789  0.21632887  0.63789064  1  0  0.62115  0  1.973685  0  0  0.52137  0  2.475953  0  0  0.515494  0  2.431554  0  0  0.615686  0.527984  0  2.503288  0
Cu  Cu2  1  0.12477488  0.28366842  0.13788988  1  0  0.621068  0  1.973807  0  0  0.521249  0  2.476081  0  0  0.515338  0  2.431683  0  0  0.615661  0.527864  0  2.50347  0
Cu  Cu3  1  0.12476264  0.78367429  0.36210942  1  0  0.62114  0  1.973729  0  0  0.521376  0  2.476016  0  0  0.515475  0  2.431595  0  0  0.615719  0.527999  0  2.503478  0
H  H4  1  0.45445650  0.80490384  0.01423180  1  0  0.13043  0  0.943851  0  0  0.152962  0  1.00136  0  0  0.153953  0  1.002173  0  0  0.09973  0.152096  0  1.001182  0
H  H5  1  0.45445334  0.30490761  0.48576850  1  0  0.130506  0  0.943752  0  0  0.153  0  1.001306  0  0  0.15399  0  1.002118  0  0  0.099741  0.152129  0  1.001132  0
H  H6  1  0.54554346  0.19509422  0.98577265  1  0  0.130501  0  0.943779  0  0  0.153006  0  1.001337  0  0  0.154  0  1.002142  0  0  0.099758  0.152137  0  1.001163  0
H  H7  1  0.54555436  0.69509252  0.51423102  1  0  0.130495  0  0.9438  0  0  0.153011  0  1.001322  0  0  0.154  0  1.002136  0  0  0.099749  0.152142  0  1.001149  0
H  H8  1  0.08698193  0.82496811  0.06646119  1  0  0.128195  0  0.959544  0  0  0.142693  0  1.027107  0  0  0.144398  0  1.027611  0  0  0.095409  0.14156  0  1.026422  0
H  H9  1  0.08697418  0.32497030  0.43353990  1  0  0.128238  0  0.959577  0  0  0.142725  0  1.027141  0  0  0.144425  0  1.027653  0  0  0.095404  0.141591  0  1.026456  0
H  H10  1  0.91301279  0.17502790  0.93354380  1  0  0.128231  0  0.959583  0  0  0.142754  0  1.02712  0  0  0.144451  0  1.027631  0  0  0.095432  0.141621  0  1.026436  0
H  H11  1  0.91303637  0.67503289  0.56645853  1  0  0.128288  0  0.959527  0  0  0.142762  0  1.027103  0  0  0.14446  0  1.027614  0  0  0.095426  0.14163  0  1.026417  0
H  H12  1  0.07686947  0.84123969  0.96911302  1  0  0.116381  0  0.973706  0  0  0.134102  0  1.039783  0  0  0.137978  0  1.036219  0  0  0.089922  0.131436  0  1.042085  0
H  H13  1  0.07686415  0.34124489  0.53088749  1  0  0.116398  0  0.973838  0  0  0.134138  0  1.039882  0  0  0.138013  0  1.03632  0  0  0.08995  0.131484  0  1.042166  0
H  H14  1  0.92312764  0.15875531  0.03089088  1  0  0.116389  0  0.97381  0  0  0.134138  0  1.039855  0  0  0.138015  0  1.036288  0  0  0.089945  0.131489  0  1.042136  0
H  H15  1  0.92314639  0.65875831  0.46911148  1  0  0.116431  0  0.973888  0  0  0.134153  0  1.039938  0  0  0.138033  0  1.03637  0  0  0.089961  0.131495  0  1.042231  0
H  H16  1  0.52540858  0.49607353  0.84586756  1  0  0.113517  0  0.973005  0  0  0.128305  0  1.047129  0  0  0.1319  0  1.043582  0  0  0.09079  0.125875  0  1.049371  0
H  H17  1  0.52542112  0.99607837  0.65413484  1  0  0.113505  0  0.973007  0  0  0.128259  0  1.047155  0  0  0.131854  0  1.043606  0  0  0.09078  0.125832  0  1.049388  0
H  H18  1  0.47460571  0.50391847  0.15413306  1  0  0.11356  0  0.972975  0  0  0.128333  0  1.047096  0  0  0.131931  0  1.043546  0  0  0.090817  0.125908  0  1.049327  0
H  H19  1  0.47457167  0.00392272  0.34586195  1  0  0.113535  0  0.972964  0  0  0.128307  0  1.047078  0  0  0.131906  0  1.043526  0  0  0.090776  0.125876  0  1.049327  0
H  H20  1  0.49879435  0.32275219  0.87678611  1  0  0.124332  0  0.974287  0  0  0.141377  0  1.038501  0  0  0.142478  0  1.04001  0  0  0.095454  0.141177  0  1.036352  0
H  H21  1  0.49880721  0.82275671  0.62321633  1  0  0.124188  0  0.974461  0  0  0.141237  0  1.03869  0  0  0.142337  0  1.040201  0  0  0.095397  0.141037  0  1.03654  0
H  H22  1  0.50121744  0.67723980  0.12321560  1  0  0.124233  0  0.974395  0  0  0.141273  0  1.038632  0  0  0.142372  0  1.040146  0  0  0.095416  0.141073  0  1.036485  0
H  H23  1  0.50119309  0.17724441  0.37677990  1  0  0.124266  0  0.974448  0  0  0.141307  0  1.03866  0  0  0.142407  0  1.040171  0  0  0.095437  0.141106  0  1.036513  0
H  H24  1  0.84995217  0.38581444  0.82618524  1  0  0.136815  0  0.925909  0  0  0.160692  0  0.978305  0  0  0.161276  0  0.980052  0  0  0.102458  0.16005  0  0.977365  0
H  H25  1  0.84996940  0.88581848  0.67381611  1  0  0.136743  0  0.925931  0  0  0.160626  0  0.978321  0  0  0.161206  0  0.980074  0  0  0.102448  0.159983  0  0.977383  0
H  H26  1  0.15006247  0.61418062  0.17381866  1  0  0.136789  0  0.92589  0  0  0.160697  0  0.978254  0  0  0.161292  0  0.979989  0  0  0.102498  0.160057  0  0.977314  0
H  H27  1  0.15002601  0.11418364  0.32618122  1  0  0.136779  0  0.925895  0  0  0.160644  0  0.978308  0  0  0.161221  0  0.980065  0  0  0.102453  0.160013  0  0.977357  0
C  C28  1  0.49057705  0.97377658  0.84836783  1  0  0.514784  0  3.976825  0  0  0.483266  0  4.250579  0  0  0.50565  0  4.262814  0  0  0.310799  0.468334  0  4.242208  0
C  C29  1  0.49061225  0.47377603  0.65163561  1  0  0.514809  0  3.977016  0  0  0.483321  0  4.250737  0  0  0.505695  0  4.262971  0  0  0.310889  0.468383  0  4.242354  0
C  C30  1  0.50940299  0.02622243  0.15163443  1  0  0.514851  0  3.976928  0  0  0.483357  0  4.250659  0  0  0.505738  0  4.26289  0  0  0.310829  0.468419  0  4.242278  0
C  C31  1  0.50940353  0.52622922  0.34836391  1  0  0.51464  0  3.976938  0  0  0.483132  0  4.250695  0  0  0.505504  0  4.262929  0  0  0.310737  0.468199  0  4.24234  0
C  C32  1  0.20199661  0.12224474  0.77971373  1  0  0.506117  0  3.982104  0  0  0.475693  0  4.255263  0  0  0.497523  0  4.268417  0  0  0.308719  0.46074  0  4.246315  0
C  C33  1  0.20200459  0.62223801  0.72028936  1  0  0.506193  0  3.982046  0  0  0.475792  0  4.255205  0  0  0.497614  0  4.268356  0  0  0.308814  0.460845  0  4.246266  0
C  C34  1  0.79800346  0.87775434  0.22028689  1  0  0.506127  0  3.98218  0  0  0.475728  0  4.255308  0  0  0.497552  0  4.268458  0  0  0.30879  0.460778  0  4.246383  0
C  C35  1  0.79799821  0.37776312  0.27970907  1  0  0.50613  0  3.982128  0  0  0.475713  0  4.255293  0  0  0.497531  0  4.268438  0  0  0.308808  0.460761  0  4.24635  0
C  C36  1  0.09038486  0.63552387  0.00701882  1  0  0.215611  0  3.679592  0  0  0.216017  0  3.93186  0  0  0.220936  0  3.94953  0  0  0.112999  0.212128  0  3.920753  0
C  C37  1  0.09038401  0.13552670  0.49297842  1  0  0.215642  0  3.679305  0  0  0.216039  0  3.93164  0  0  0.220953  0  3.949319  0  0  0.112981  0.212149  0  3.920531  0
C  C38  1  0.90960998  0.36447316  0.99298070  1  0  0.21558  0  3.6794  0  0  0.215978  0  3.931681  0  0  0.22089  0  3.949355  0  0  0.112958  0.21209  0  3.920573  0
C  C39  1  0.90961880  0.86447443  0.50701946  1  0  0.215762  0  3.679471  0  0  0.216166  0  3.931761  0  0  0.221094  0  3.949423  0  0  0.113047  0.21224  0  3.920706  0
C  C40  1  0.18155957  0.78453699  0.01474653  1  0  -0.37077  0  3.701751  0  0  -0.449641  0  3.937734  0  0  -0.452915  0  3.943527  0  0  -0.242499  -0.447074  0  3.934004  0
C  C41  1  0.18155414  0.28454278  0.48525275  1  0  -0.37093  0  3.701913  0  0  -0.449756  0  3.937873  0  0  -0.453025  0  3.943671  0  0  -0.242549  -0.447199  0  3.934128  0
C  C42  1  0.81844004  0.21545802  0.98525628  1  0  -0.370919  0  3.701884  0  0  -0.449811  0  3.937848  0  0  -0.453073  0  3.94364  0  0  -0.242583  -0.447259  0  3.934099  0
C  C43  1  0.81845641  0.71546042  0.51474568  1  0  -0.371001  0  3.701978  0  0  -0.449836  0  3.937946  0  0  -0.453108  0  3.943735  0  0  -0.242567  -0.447263  0  3.934227  0
C  C44  1  0.84004394  0.45743236  0.93751012  1  0  0.215489  0  3.683306  0  0  0.216687  0  3.932276  0  0  0.221034  0  3.95133  0  0  0.11233  0.213426  0  3.919917  0
C  C45  1  0.84006197  0.95743220  0.56248872  1  0  0.215244  0  3.683359  0  0  0.216441  0  3.932369  0  0  0.220781  0  3.951422  0  0  0.112149  0.213192  0  3.920014  0
C  C46  1  0.15994362  0.54256667  0.06249050  1  0  0.215463  0  3.683101  0  0  0.216608  0  3.932171  0  0  0.22095  0  3.951225  0  0  0.112284  0.213349  0  3.919808  0
C  C47  1  0.15993606  0.04257095  0.43750697  1  0  0.215303  0  3.683438  0  0  0.216488  0  3.932506  0  0  0.220838  0  3.951559  0  0  0.112255  0.213229  0  3.920149  0
C  C48  1  0.66754948  0.41297675  0.86822423  1  0  -0.370792  0  3.698586  0  0  -0.448404  0  3.93141  0  0  -0.452374  0  3.93978  0  0  -0.243779  -0.445736  0  3.924964  0
C  C49  1  0.66755713  0.91298033  0.63177675  1  0  -0.370473  0  3.698643  0  0  -0.448035  0  3.931456  0  0  -0.451999  0  3.939832  0  0  -0.243655  -0.445371  0  3.925001  0
C  C50  1  0.33246515  0.58701830  0.13177748  1  0  -0.370734  0  3.698528  0  0  -0.448331  0  3.931382  0  0  -0.452308  0  3.939747  0  0  -0.243821  -0.44567  0  3.924929  0
C  C51  1  0.33244078  0.08702180  0.36822003  1  0  -0.370623  0  3.69862  0  0  -0.448176  0  3.931474  0  0  -0.452139  0  3.939847  0  0  -0.243715  -0.445523  0  3.925024  0
N  N52  1  0.63931425  0.87655249  0.86184493  1  0  -0.624362  0  3.123371  0  0  -0.579277  0  3.472973  0  0  -0.59096  0  3.465327  0  0  -0.444882  -0.572313  0  3.478128  0
N  N53  1  0.63934276  0.37655790  0.63815650  1  0  -0.624432  0  3.123718  0  0  -0.579361  0  3.473319  0  0  -0.591041  0  3.46567  0  0  -0.444964  -0.572393  0  3.478422  0
N  N54  1  0.36066045  0.12344344  0.13815842  1  0  -0.62445  0  3.123642  0  0  -0.579374  0  3.47326  0  0  -0.59105  0  3.465592  0  0  -0.444958  -0.572411  0  3.478381  0
N  N55  1  0.36066609  0.62345243  0.36184411  1  0  -0.624308  0  3.123321  0  0  -0.579231  0  3.472966  0  0  -0.590906  0  3.465302  0  0  -0.444858  -0.572276  0  3.478153  0
N  N56  1  0.33093078  0.08393447  0.84082793  1  0  -0.46954  0  3.300566  0  0  -0.410661  0  3.551864  0  0  -0.435295  0  3.560996  0  0  -0.306557  -0.393686  0  3.544113  0
N  N57  1  0.33096581  0.58393944  0.65917716  1  0  -0.469542  0  3.300508  0  0  -0.410697  0  3.551831  0  0  -0.43531  0  3.560943  0  0  -0.306642  -0.393724  0  3.544088  0
N  N58  1  0.66905177  0.91606455  0.15917378  1  0  -0.469577  0  3.300489  0  0  -0.410721  0  3.551776  0  0  -0.435344  0  3.560906  0  0  -0.306602  -0.393742  0  3.544034  0
N  N59  1  0.66904817  0.41607191  0.34082290  1  0  -0.46957  0  3.300662  0  0  -0.410701  0  3.551956  0  0  -0.43531  0  3.561084  0  0  -0.306653  -0.393719  0  3.544211  0
N  N60  1  0.07248794  0.16738627  0.72779884  1  0  -0.613928  0  3.090528  0  0  -0.56812  0  3.430473  0  0  -0.580059  0  3.424404  0  0  -0.439793  -0.561236  0  3.434872  0
N  N61  1  0.07248822  0.66738310  0.77220389  1  0  -0.613968  0  3.090415  0  0  -0.568155  0  3.430332  0  0  -0.580095  0  3.424267  0  0  -0.439792  -0.56127  0  3.43478  0
N  N62  1  0.92750690  0.83261076  0.27220013  1  0  -0.61386  0  3.090556  0  0  -0.568071  0  3.430503  0  0  -0.58  0  3.424421  0  0  -0.439787  -0.561197  0  3.434978  0
N  N63  1  0.92749968  0.33261899  0.22779563  1  0  -0.613807  0  3.090671  0  0  -0.567983  0  3.430593  0  0  -0.579914  0  3.424511  0  0  -0.439734  -0.561104  0  3.43501  0
N  N64  1  0.93225019  0.59181052  0.94478389  1  0  -0.373431  0  3.320591  0  0  -0.31705  0  3.623484  0  0  -0.321006  0  3.626042  0  0  -0.356773  -0.314743  0  3.621525  0
N  N65  1  0.93225464  0.09181601  0.55521600  1  0  -0.373345  0  3.320145  0  0  -0.316978  0  3.62308  0  0  -0.32093  0  3.625643  0  0  -0.356698  -0.314668  0  3.621075  0
N  N66  1  0.06775158  0.40818143  0.05521727  1  0  -0.37329  0  3.320182  0  0  -0.316876  0  3.623041  0  0  -0.320817  0  3.625583  0  0  -0.356699  -0.314568  0  3.621051  0
N  N67  1  0.06774851  0.90818818  0.44478079  1  0  -0.373354  0  3.320442  0  0  -0.317041  0  3.623442  0  0  -0.320999  0  3.625996  0  0  -0.356731  -0.314726  0  3.621509  0
