# generated using pymatgen
data_CdH35C24(N3O2)2
_symmetry_space_group_name_H-M   'P 1'
_cell_length_a   8.06618116
_cell_length_b   10.57526960
_cell_length_c   17.67128877
_cell_angle_alpha   105.13616696
_cell_angle_beta   92.87152383
_cell_angle_gamma   91.53129826
_symmetry_Int_Tables_number   1
_chemical_formula_structural   CdH35C24(N3O2)2
_chemical_formula_sum   'Cd2 H70 C48 N12 O8'
_cell_volume   1452.03619049
_cell_formula_units_Z   2
loop_
 _symmetry_equiv_pos_site_id
 _symmetry_equiv_pos_as_xyz
  1  'x, y, z'
loop_
 _atom_site_type_symbol
 _atom_site_label
 _atom_site_symmetry_multiplicity
 _atom_site_fract_x
 _atom_site_fract_y
 _atom_site_fract_z
 _atom_site_occupancy
 _atom_site_hle17_bader_spin_density
 _atom_site_hle17_ddec_charge
 _atom_site_hle17_ddec_spin_density
 _atom_site_hle17_ddec_sum_bond_order
 _atom_site_hle17_magmom
 _atom_site_hse06_10hf_bader_spin_density
 _atom_site_hse06_10hf_ddec_charge
 _atom_site_hse06_10hf_ddec_spin_density
 _atom_site_hse06_10hf_ddec_sum_bond_order
 _atom_site_hse06_10hf_magmom
 _atom_site_hse06_bader_spin_density
 _atom_site_hse06_ddec_charge
 _atom_site_hse06_ddec_spin_density
 _atom_site_hse06_ddec_sum_bond_order
 _atom_site_hse06_magmom
 _atom_site_pbe_bader_spin_density
 _atom_site_pbe_cm5_charge
 _atom_site_pbe_ddec_charge
 _atom_site_pbe_ddec_spin_density
 _atom_site_pbe_ddec_sum_bond_order
 _atom_site_pbe_magmom
Cd  Cd0  1  0.47464938  0.00224034  0.23734844  1  0  1.062924  0  1.747231  0  0  0.865998  0  2.192802  0  0  0.922531  0  2.144777  0  0  0.76141  0.826157  0  2.225448  0
Cd  Cd1  1  0.52534977  0.99775810  0.76264975  1  0  1.062983  0  1.747111  0  0  0.866048  0  2.192657  0  0  0.922583  0  2.144633  0  0  0.761407  0.826203  0  2.225314  0
H  H2  1  0.58161099  0.46877863  0.29492009  1  0  0.079124  0  0.942314  0  0  0.097207  0  1.001659  0  0  0.098846  0  1.001382  0  0  0.090025  0.096036  0  1.001891  0
H  H3  1  0.41834932  0.53121563  0.70507665  1  0  0.079252  0  0.942234  0  0  0.097339  0  1.001559  0  0  0.09898  0  1.001279  0  0  0.09005  0.096163  0  1.0018  0
H  H4  1  0.79075172  0.43305819  0.27490873  1  0  0.075589  0  0.940013  0  0  0.090241  0  1.002105  0  0  0.09271  0  1.000308  0  0  0.083478  0.088209  0  1.003896  0
H  H5  1  0.20921780  0.56695638  0.72509664  1  0  0.075498  0  0.940006  0  0  0.090186  0  1.002043  0  0  0.092657  0  1.000246  0  0  0.083402  0.088155  0  1.003829  0
H  H6  1  0.50225769  0.41929191  0.15191073  1  0  0.062563  0  0.938566  0  0  0.079387  0  1.003331  0  0  0.081023  0  1.002061  0  0  0.085096  0.078036  0  1.004485  0
H  H7  1  0.49772805  0.58070975  0.84808659  1  0  0.062623  0  0.93874  0  0  0.07945  0  1.003398  0  0  0.081086  0  1.002126  0  0  0.085063  0.078089  0  1.004571  0
H  H8  1  0.65498260  0.54838215  0.18287527  1  0  0.050596  0  0.960408  0  0  0.069334  0  1.026392  0  0  0.069758  0  1.027241  0  0  0.082683  0.069066  0  1.025555  0
H  H9  1  0.34500060  0.45161855  0.81712298  1  0  0.050697  0  0.96039  0  0  0.06937  0  1.02639  0  0  0.069786  0  1.027245  0  0  0.082696  0.0691  0  1.025551  0
H  H10  1  0.71032510  0.26537468  0.09317735  1  0  0.052973  0  0.95535  0  0  0.072697  0  1.017616  0  0  0.073335  0  1.018034  0  0  0.083334  0.072557  0  1.016555  0
H  H11  1  0.28966816  0.73462669  0.90682630  1  0  0.052993  0  0.955304  0  0  0.072743  0  1.017543  0  0  0.073385  0  1.017964  0  0  0.08333  0.072603  0  1.016475  0
H  H12  1  0.87521700  0.37839873  0.13521203  1  0  0.053311  0  0.928918  0  0  0.075594  0  0.983943  0  0  0.076139  0  0.984399  0  0  0.08385  0.074992  0  0.983989  0
H  H13  1  0.12477021  0.62160363  0.86479562  1  0  0.053315  0  0.928964  0  0  0.075634  0  0.98393  0  0  0.076181  0  0.984393  0  0  0.083862  0.075024  0  0.983981  0
H  H14  1  0.60872198  0.42974864  0.01794936  1  0  0.050463  0  0.95611  0  0  0.069747  0  1.022912  0  0  0.069811  0  1.024502  0  0  0.08162  0.069528  0  1.022007  0
H  H15  1  0.39128611  0.57025255  0.98205059  1  0  0.05048  0  0.956032  0  0  0.06975  0  1.022857  0  0  0.069814  0  1.024441  0  0  0.0816  0.069532  0  1.021949  0
H  H16  1  0.79320941  0.52450429  0.05377595  1  0  0.053841  0  0.952192  0  0  0.076038  0  1.013629  0  0  0.075842  0  1.015474  0  0  0.084602  0.076402  0  1.011529  0
H  H17  1  0.20679975  0.47549380  0.94622860  1  0  0.053818  0  0.952257  0  0  0.076054  0  1.013638  0  0  0.075832  0  1.015516  0  0  0.084584  0.07642  0  1.011537  0
H  H18  1  0.95573676  0.32051361  0.99103091  1  0  0.046011  0  0.956687  0  0  0.06323  0  1.026689  0  0  0.063895  0  1.026872  0  0  0.080204  0.062579  0  1.026809  0
H  H19  1  0.04427101  0.67948252  0.00897442  1  0  0.046039  0  0.956699  0  0  0.063242  0  1.0267  0  0  0.063905  0  1.026884  0  0  0.080188  0.06259  0  1.026822  0
H  H20  1  0.76535293  0.24160449  0.94972802  1  0  0.065328  0  0.951971  0  0  0.084178  0  1.013371  0  0  0.084887  0  1.014369  0  0  0.086272  0.083514  0  1.012862  0
H  H21  1  0.23465617  0.75839258  0.05027806  1  0  0.065358  0  0.95193  0  0  0.084195  0  1.013333  0  0  0.084902  0  1.01433  0  0  0.086236  0.08353  0  1.012827  0
H  H22  1  0.92576687  0.48722446  0.91815172  1  0  0.054018  0  0.960742  0  0  0.07392  0  1.024131  0  0  0.074199  0  1.025189  0  0  0.084201  0.073622  0  1.023522  0
H  H23  1  0.07423732  0.51277374  0.08185218  1  0  0.053949  0  0.960763  0  0  0.073887  0  1.024151  0  0  0.074167  0  1.025204  0  0  0.084189  0.073591  0  1.023541  0
H  H24  1  0.72279915  0.42694859  0.88168945  1  0  0.058589  0  0.939323  0  0  0.077665  0  1.001436  0  0  0.078552  0  1.001437  0  0  0.085224  0.076922  0  1.001529  0
H  H25  1  0.27720812  0.57304169  0.11831377  1  0  0.058569  0  0.939365  0  0  0.077669  0  1.001473  0  0  0.078543  0  1.00149  0  0  0.085248  0.076929  0  1.001565  0
H  H26  1  0.94732653  0.35440685  0.78539808  1  0  0.082635  0  0.944543  0  0  0.09611  0  1.007214  0  0  0.098157  0  1.006309  0  0  0.086258  0.094611  0  1.008026  0
H  H27  1  0.05268107  0.64558733  0.21460636  1  0  0.082635  0  0.944576  0  0  0.096101  0  1.007283  0  0  0.098161  0  1.006362  0  0  0.086262  0.09461  0  1.00809  0
H  H28  1  0.02970957  0.25958596  0.84745860  1  0  0.092879  0  0.936753  0  0  0.106013  0  1.000557  0  0  0.10804  0  1.000552  0  0  0.089647  0.104577  0  1.000538  0
H  H29  1  0.97029800  0.74040827  0.15254415  1  0  0.092899  0  0.936881  0  0  0.106038  0  1.000674  0  0  0.108064  0  1.000673  0  0  0.089654  0.104607  0  1.000661  0
H  H30  1  0.57899156  0.69782581  0.10868969  1  0  0.1019  0  0.955879  0  0  0.112497  0  1.016953  0  0  0.114648  0  1.016217  0  0  0.118441  0.111234  0  1.016886  0
H  H31  1  0.42102333  0.30216737  0.89131020  1  0  0.101798  0  0.955898  0  0  0.112413  0  1.016968  0  0  0.114566  0  1.01623  0  0  0.118425  0.111152  0  1.016897  0
H  H32  1  0.73606817  0.68405290  0.96971901  1  0  0.112544  0  0.957498  0  0  0.12278  0  1.020636  0  0  0.125577  0  1.018911  0  0  0.123895  0.12089  0  1.021554  0
H  H33  1  0.26393587  0.31594445  0.03027966  1  0  0.112585  0  0.957498  0  0  0.122807  0  1.020654  0  0  0.125603  0  1.018926  0  0  0.12393  0.12092  0  1.021562  0
H  H34  1  0.62449152  0.07704707  0.07583978  1  0  0.093252  0  0.95936  0  0  0.099791  0  1.028993  0  0  0.102523  0  1.025941  0  0  0.132421  0.098436  0  1.029978  0
H  H35  1  0.37550873  0.92294934  0.92415979  1  0  0.093219  0  0.959322  0  0  0.099759  0  1.02897  0  0  0.102493  0  1.025914  0  0  0.132404  0.098404  0  1.029965  0
H  H36  1  0.73361454  0.02875234  0.93998551  1  0  0.080526  0  0.946732  0  0  0.091271  0  1.017959  0  0  0.092239  0  1.017774  0  0  0.110015  0.090521  0  1.018184  0
H  H37  1  0.26638719  0.97124699  0.06001457  1  0  0.080485  0  0.946773  0  0  0.091219  0  1.017994  0  0  0.092187  0  1.017808  0  0  0.110007  0.090469  0  1.018209  0
H  H38  1  0.75322436  0.86478502  0.88684511  1  0  0.095489  0  0.913465  0  0  0.112692  0  0.968975  0  0  0.114183  0  0.967435  0  0  0.11506  0.111434  0  0.970359  0
H  H39  1  0.24677225  0.13521246  0.11315400  1  0  0.095395  0  0.913538  0  0  0.112615  0  0.969018  0  0  0.114109  0  0.967475  0  0  0.114998  0.111347  0  0.970405  0
H  H40  1  0.02785219  0.85705176  0.95563307  1  0  0.062014  0  0.955267  0  0  0.079613  0  1.021815  0  0  0.079663  0  1.023183  0  0  0.088923  0.07957  0  1.020814  0
H  H41  1  0.97214262  0.14293887  0.04436544  1  0  0.062065  0  0.95511  0  0  0.079637  0  1.021706  0  0  0.079686  0  1.023074  0  0  0.088911  0.079583  0  1.02072  0
H  H42  1  0.02193531  0.99001592  0.91220613  1  0  0.088473  0  0.925704  0  0  0.108006  0  0.980409  0  0  0.109228  0  0.980322  0  0  0.099357  0.107059  0  0.98055  0
H  H43  1  0.97806338  0.00997660  0.08779277  1  0  0.088478  0  0.925681  0  0  0.108019  0  0.980381  0  0  0.109242  0  0.980294  0  0  0.099363  0.107072  0  0.98053  0
H  H44  1  0.54018236  0.00545890  0.43086627  1  0  0.095359  0  0.982216  0  0  0.103834  0  1.046446  0  0  0.105719  0  1.046433  0  0  0.114749  0.102416  0  1.046631  0
H  H45  1  0.45983469  0.99454724  0.56912675  1  0  0.095389  0  0.982187  0  0  0.103829  0  1.046453  0  0  0.105715  0  1.046452  0  0  0.114768  0.102416  0  1.046632  0
H  H46  1  0.45846793  0.20870233  0.55856671  1  0  0.113673  0  0.966029  0  0  0.123705  0  1.027545  0  0  0.126357  0  1.026435  0  0  0.121771  0.121718  0  1.0285  0
H  H47  1  0.54154640  0.79129979  0.44143124  1  0  0.11367  0  0.966062  0  0  0.123744  0  1.027546  0  0  0.126356  0  1.026485  0  0  0.121812  0.121761  0  1.028492  0
H  H48  1  0.25785983  0.27328111  0.34620091  1  0  0.10264  0  0.911923  0  0  0.115257  0  0.96736  0  0  0.118086  0  0.963984  0  0  0.143714  0.113046  0  0.969991  0
H  H49  1  0.74212958  0.72671945  0.65379857  1  0  0.102648  0  0.911923  0  0  0.11529  0  0.967332  0  0  0.118133  0  0.963938  0  0  0.143749  0.113083  0  0.969956  0
H  H50  1  0.22583418  0.39898163  0.55996328  1  0  0.067792  0  0.938111  0  0  0.083108  0  1.003904  0  0  0.083709  0  1.003251  0  0  0.10899  0.082426  0  1.004747  0
H  H51  1  0.77417372  0.60101764  0.44003465  1  0  0.067732  0  0.938098  0  0  0.083029  0  1.003896  0  0  0.083639  0  1.003237  0  0  0.108944  0.082345  0  1.004735  0
H  H52  1  0.20832933  0.44345446  0.46963234  1  0  0.073318  0  0.902718  0  0  0.094202  0  0.955621  0  0  0.094767  0  0.955284  0  0  0.116101  0.093667  0  0.956034  0
H  H53  1  0.79167900  0.55654965  0.53036866  1  0  0.073329  0  0.902704  0  0  0.094245  0  0.955544  0  0  0.094813  0  0.95521  0  0  0.116079  0.093708  0  0.955958  0
H  H54  1  0.40694044  0.59412440  0.56507122  1  0  0.092618  0  0.929298  0  0  0.110711  0  0.985811  0  0  0.111329  0  0.987155  0  0  0.102255  0.110202  0  0.984943  0
H  H55  1  0.59306854  0.40587176  0.43493187  1  0  0.092725  0  0.929136  0  0  0.110773  0  0.985695  0  0  0.11139  0  0.987034  0  0  0.10229  0.110262  0  0.984822  0
H  H56  1  0.52367775  0.46174880  0.57797588  1  0  0.067855  0  0.929743  0  0  0.088289  0  0.98688  0  0  0.088863  0  0.987191  0  0  0.094598  0.087809  0  0.986767  0
H  H57  1  0.47632748  0.53824748  0.42202546  1  0  0.067824  0  0.929677  0  0  0.088277  0  0.986801  0  0  0.088847  0  0.987109  0  0  0.094555  0.087794  0  0.986687  0
H  H58  1  0.58387672  0.71271446  0.27985342  1  0  0.115975  0  0.976207  0  0  0.123854  0  1.038585  0  0  0.12711  0  1.035771  0  0  0.115815  0.121488  0  1.040676  0
H  H59  1  0.41611964  0.28729588  0.72014385  1  0  0.116054  0  0.976171  0  0  0.123907  0  1.038573  0  0  0.127165  0  1.035755  0  0  0.115823  0.121539  0  1.040667  0
H  H60  1  0.89369125  0.67821824  0.35072944  1  0  0.100331  0  0.965144  0  0  0.113547  0  1.022521  0  0  0.1165  0  1.020611  0  0  0.117755  0.111217  0  1.024379  0
H  H61  1  0.10630475  0.32178826  0.64926435  1  0  0.100387  0  0.964953  0  0  0.113602  0  1.022346  0  0  0.116555  0  1.020438  0  0  0.117762  0.111275  0  1.024202  0
H  H62  1  0.87044556  0.06481121  0.32461910  1  0  0.116417  0  0.945003  0  0  0.124745  0  1.008698  0  0  0.128469  0  1.003356  0  0  0.13599  0.121954  0  1.012643  0
H  H63  1  0.12955560  0.93519707  0.67537848  1  0  0.116258  0  0.945151  0  0  0.124647  0  1.008781  0  0  0.128372  0  1.003436  0  0  0.135968  0.121851  0  1.012721  0
H  H64  1  0.17280845  0.83813147  0.37842481  1  0  0.086798  0  0.918082  0  0  0.103126  0  0.97526  0  0  0.104426  0  0.97418  0  0  0.110694  0.102133  0  0.976096  0
H  H65  1  0.82718854  0.16187094  0.62157399  1  0  0.086754  0  0.918156  0  0  0.103109  0  0.975271  0  0  0.104407  0  0.974176  0  0  0.11069  0.102118  0  0.976102  0
H  H66  1  0.13852116  0.00349003  0.38355834  1  0  0.080328  0  0.948541  0  0  0.093521  0  1.014132  0  0  0.09379  0  1.015326  0  0  0.111292  0.09324  0  1.013425  0
H  H67  1  0.86148095  0.99651424  0.61644087  1  0  0.080455  0  0.948497  0  0  0.093562  0  1.014166  0  0  0.093827  0  1.015358  0  0  0.111309  0.093282  0  1.013454  0
H  H68  1  0.00698921  0.85397699  0.49804239  1  0  0.064342  0  0.927862  0  0  0.082969  0  0.987411  0  0  0.083566  0  0.987963  0  0  0.088132  0.082479  0  0.987092  0
H  H69  1  0.99300280  0.14602555  0.50195463  1  0  0.064406  0  0.927853  0  0  0.083081  0  0.987408  0  0  0.083681  0  0.987961  0  0  0.088208  0.082581  0  0.987104  0
H  H70  1  0.17996208  0.96556862  0.51708262  1  0  0.066885  0  0.960184  0  0  0.08363  0  1.026539  0  0  0.083611  0  1.028572  0  0  0.091149  0.083613  0  1.025131  0
H  H71  1  0.82003089  0.03442991  0.48291659  1  0  0.066802  0  0.960131  0  0  0.0836  0  1.026511  0  0  0.083581  0  1.028547  0  0  0.091136  0.083583  0  1.025097  0
C  C72  1  0.62307082  0.26547434  0.25150347  1  0  0.673059  0  3.903236  0  0  0.633952  0  4.199992  0  0  0.666235  0  4.195456  0  0  0.180156  0.612162  0  4.201827  0
C  C73  1  0.37692982  0.73452701  0.74849523  1  0  0.673209  0  3.902989  0  0  0.634092  0  4.199766  0  0  0.66638  0  4.195224  0  0  0.180202  0.612305  0  4.201598  0
C  C74  1  0.66130648  0.40851576  0.25174220  1  0  -0.24906  0  3.694739  0  0  -0.286003  0  3.946889  0  0  -0.291756  0  3.956772  0  0  -0.17138  -0.281854  0  3.93994  0
C  C75  1  0.33866721  0.59149001  0.74825726  1  0  -0.249141  0  3.694827  0  0  -0.286154  0  3.946949  0  0  -0.291912  0  3.956821  0  0  -0.171323  -0.282  0  3.939992  0
C  C76  1  0.63307927  0.44197780  0.17320728  1  0  -0.084376  0  3.709919  0  0  -0.126378  0  3.970926  0  0  -0.126515  0  3.985005  0  0  -0.169836  -0.12631  0  3.961458  0
C  C77  1  0.36690426  0.55802679  0.82679275  1  0  -0.084597  0  3.710506  0  0  -0.126467  0  3.971304  0  0  -0.126587  0  3.985382  0  0  -0.169851  -0.126387  0  3.961825  0
C  C78  1  0.74574080  0.37078218  0.11032251  1  0  -0.098706  0  3.69438  0  0  -0.135893  0  3.954634  0  0  -0.137148  0  3.969996  0  0  -0.166941  -0.135167  0  3.944173  0
C  C79  1  0.25425479  0.62921716  0.88968141  1  0  -0.098811  0  3.694715  0  0  -0.136073  0  3.954947  0  0  -0.137346  0  3.970327  0  0  -0.167002  -0.135348  0  3.944487  0
C  C80  1  0.73950143  0.42333600  0.03758237  1  0  -0.118643  0  3.721485  0  0  -0.161311  0  3.984575  0  0  -0.162581  0  4.000842  0  0  -0.173289  -0.160366  0  3.97313  0
C  C81  1  0.26050274  0.57666224  0.96241984  1  0  -0.118466  0  3.721423  0  0  -0.16116  0  3.984555  0  0  -0.162411  0  4.000825  0  0  -0.173164  -0.160222  0  3.973109  0
C  C82  1  0.82980855  0.33869884  0.96988455  1  0  -0.112028  0  3.702416  0  0  -0.149842  0  3.962916  0  0  -0.151143  0  3.977957  0  0  -0.172838  -0.148951  0  3.952937  0
C  C83  1  0.17019807  0.66129828  0.03012149  1  0  -0.112235  0  3.702513  0  0  -0.149987  0  3.963023  0  0  -0.151278  0  3.978042  0  0  -0.172851  -0.14909  0  3.953045  0
C  C84  1  0.84526107  0.39744576  0.90014946  1  0  -0.084911  0  3.686011  0  0  -0.122444  0  3.939416  0  0  -0.122934  0  3.954093  0  0  -0.164084  -0.121904  0  3.929331  0
C  C85  1  0.15474767  0.60254745  0.09985371  1  0  -0.084727  0  3.685922  0  0  -0.122342  0  3.939467  0  0  -0.12283  0  3.954145  0  0  -0.164044  -0.121813  0  3.929388  0
C  C86  1  0.91623490  0.30169270  0.82908068  1  0  -0.256992  0  3.676415  0  0  -0.294625  0  3.9283  0  0  -0.300504  0  3.93699  0  0  -0.173338  -0.290514  0  3.922205  0
C  C87  1  0.08377385  0.69830050  0.17092249  1  0  -0.256934  0  3.676578  0  0  -0.294605  0  3.928575  0  0  -0.300486  0  3.937246  0  0  -0.173365  -0.290501  0  3.922497  0
C  C88  1  0.78577949  0.19348893  0.79160694  1  0  0.680683  0  3.882814  0  0  0.640209  0  4.178103  0  0  0.673243  0  4.172497  0  0  0.182538  0.617832  0  4.181003  0
C  C89  1  0.21423106  0.80651111  0.20839740  1  0  0.680519  0  3.882804  0  0  0.64007  0  4.178079  0  0  0.673094  0  4.172486  0  0  0.182481  0.617679  0  4.181001  0
C  C90  1  0.61217777  0.77493742  0.08142233  1  0  0.00426  0  3.757567  0  0  -0.029191  0  4.027828  0  0  -0.026801  0  4.047788  0  0  -0.002786  -0.030761  0  4.013653  0
C  C91  1  0.38783869  0.22505964  0.91857880  1  0  0.004364  0  3.757378  0  0  -0.029096  0  4.027664  0  0  -0.026705  0  4.047622  0  0  -0.002845  -0.030668  0  4.013485  0
C  C92  1  0.69029599  0.76645093  0.01281268  1  0  -0.071956  0  3.675394  0  0  -0.111443  0  3.934761  0  0  -0.110167  0  3.953387  0  0  0.001032  -0.11217  0  3.921795  0
C  C93  1  0.30971429  0.23354622  0.98718948  1  0  -0.071987  0  3.675265  0  0  -0.111492  0  3.934673  0  0  -0.110205  0  3.953285  0  0  0.000972  -0.112227  0  3.921706  0
C  C94  1  0.63302385  0.97209191  0.06686613  1  0  0.152623  0  3.685987  0  0  0.09171  0  3.956682  0  0  0.104738  0  3.970335  0  0  0.139066  0.082949  0  3.946924  0
C  C95  1  0.36697617  0.02790155  0.93313351  1  0  0.152689  0  3.685981  0  0  0.091742  0  3.95671  0  0  0.104771  0  3.970366  0  0  0.139059  0.082974  0  3.946951  0
C  C96  1  0.78615679  0.93572904  0.94339822  1  0  -0.004807  0  3.618278  0  0  -0.066332  0  3.877431  0  0  -0.061821  0  3.887503  0  0  -0.05301  -0.069306  0  3.870659  0
C  C97  1  0.21384469  0.06426737  0.05660081  1  0  -0.004591  0  3.618319  0  0  -0.066066  0  3.877352  0  0  -0.061555  0  3.88743  0  0  -0.052936  -0.069032  0  3.870571  0
C  C98  1  0.97416877  0.95317176  0.96003258  1  0  -0.127715  0  3.679342  0  0  -0.171422  0  3.943701  0  0  -0.172802  0  3.957663  0  0  -0.16496  -0.170244  0  3.933928  0
C  C99  1  0.02583001  0.04682173  0.03996704  1  0  -0.127737  0  3.679106  0  0  -0.17148  0  3.94352  0  0  -0.172861  0  3.957484  0  0  -0.164928  -0.170301  0  3.933766  0
C  C100  1  0.46826881  0.09096288  0.43249275  1  0  0.006114  0  3.76244  0  0  -0.026082  0  4.028246  0  0  -0.023875  0  4.048175  0  0  0.000411  -0.027607  0  4.014901  0
C  C101  1  0.53173519  0.90903566  0.56749819  1  0  0.006369  0  3.762229  0  0  -0.025796  0  4.028022  0  0  -0.023597  0  4.047946  0  0  0.000659  -0.027319  0  4.014679  0
C  C102  1  0.43024022  0.19042382  0.49589299  1  0  -0.083124  0  3.68628  0  0  -0.121762  0  3.943043  0  0  -0.120725  0  3.962221  0  0  -0.004984  -0.122416  0  3.930235  0
C  C103  1  0.56976448  0.80958246  0.50410321  1  0  -0.083069  0  3.686334  0  0  -0.121751  0  3.943074  0  0  -0.120677  0  3.962278  0  0  -0.005019  -0.122412  0  3.93027  0
C  C104  1  0.32239581  0.22541808  0.38576722  1  0  0.153936  0  3.670945  0  0  0.091042  0  3.942334  0  0  0.104184  0  3.955011  0  0  0.144353  0.082488  0  3.93357  0
C  C105  1  0.67759984  0.77458340  0.61423027  1  0  0.154018  0  3.670858  0  0  0.091083  0  3.942257  0  0  0.104212  0  3.954939  0  0  0.14437  0.082524  0  3.93349  0
C  C106  1  0.29303217  0.40606038  0.50864073  1  0  0.013695  0  3.646761  0  0  -0.052944  0  3.913762  0  0  -0.047908  0  3.924717  0  0  -0.045964  -0.05621  0  3.90631  0
C  C107  1  0.70697492  0.59394377  0.49135969  1  0  0.013674  0  3.646692  0  0  -0.052904  0  3.913592  0  0  -0.047889  0  3.924558  0  0  -0.04593  -0.056163  0  3.906136  0
C  C108  1  0.44789421  0.49653551  0.53435750  1  0  -0.136579  0  3.689331  0  0  -0.179653  0  3.957551  0  0  -0.181468  0  3.97217  0  0  -0.163062  -0.178203  0  3.947267  0
C  C109  1  0.55210749  0.50346275  0.46564580  1  0  -0.136713  0  3.689104  0  0  -0.179817  0  3.957362  0  0  -0.181604  0  3.97196  0  0  -0.163079  -0.178374  0  3.947085  0
C  C110  1  0.69072150  0.77949297  0.30031581  1  0  -0.013055  0  3.769001  0  0  -0.046387  0  4.038298  0  0  -0.043868  0  4.058167  0  0  -0.007878  -0.048003  0  4.024783  0
C  C111  1  0.30927102  0.22051541  0.69968389  1  0  -0.013188  0  3.769341  0  0  -0.0465  0  4.038638  0  0  -0.043981  0  4.058507  0  0  -0.007884  -0.048116  0  4.025127  0
C  C112  1  0.84074746  0.76250320  0.33614441  1  0  -0.090401  0  3.720644  0  0  -0.132604  0  3.987305  0  0  -0.132715  0  4.007834  0  0  -0.009853  -0.132317  0  3.973473  0
C  C113  1  0.15925075  0.23749922  0.66385272  1  0  -0.090552  0  3.72074  0  0  -0.132764  0  3.987433  0  0  -0.132876  0  4.007966  0  0  -0.009887  -0.132486  0  3.97361  0
C  C114  1  0.83415017  0.96419550  0.32232743  1  0  0.165832  0  3.638355  0  0  0.104852  0  3.900389  0  0  0.119254  0  3.911886  0  0  0.145729  0.095556  0  3.892458  0
C  C115  1  0.16584729  0.03581281  0.67767123  1  0  0.166008  0  3.638371  0  0  0.105005  0  3.900377  0  0  0.119405  0  3.911877  0  0  0.1458  0.095713  0  3.892437  0
C  C116  1  0.08538673  0.91641425  0.39753081  1  0  -0.006918  0  3.628858  0  0  -0.067647  0  3.886986  0  0  -0.063652  0  3.898588  0  0  -0.054788  -0.070227  0  3.879075  0
C  C117  1  0.91461159  0.08358910  0.60246874  1  0  -0.00719  0  3.629017  0  0  -0.067801  0  3.88714  0  0  -0.063779  0  3.898712  0  0  -0.05486  -0.070383  0  3.87923  0
C  C118  1  0.05755256  0.94366172  0.48523249  1  0  -0.129029  0  3.696291  0  0  -0.172335  0  3.963491  0  0  -0.173825  0  3.978005  0  0  -0.166773  -0.171115  0  3.953341  0
C  C119  1  0.94244574  0.05634166  0.51476593  1  0  -0.128863  0  3.696085  0  0  -0.172438  0  3.963475  0  0  -0.173944  0  3.977992  0  0  -0.166847  -0.171212  0  3.95333  0
N  N120  1  0.57667567  0.90384960  0.11436897  1  0  -0.381096  0  3.24461  0  0  -0.308754  0  3.526859  0  0  -0.329068  0  3.544464  0  0  -0.356283  -0.295057  0  3.514962  0
N  N121  1  0.42333170  0.09614274  0.88563063  1  0  -0.381057  0  3.244649  0  0  -0.308726  0  3.526922  0  0  -0.329043  0  3.54453  0  0  -0.356213  -0.295028  0  3.515026  0
N  N122  1  0.70216572  0.89249009  0.00433240  1  0  -0.063512  0  3.582975  0  0  0.03214  0  3.798546  0  0  0.017322  0  3.825804  0  0  -0.244922  0.04178  0  3.780444  0
N  N123  1  0.29783825  0.10750626  0.99566723  1  0  -0.063645  0  3.583108  0  0  0.032037  0  3.798656  0  0  0.017213  0  3.825929  0  0  -0.244859  0.041685  0  3.780543  0
N  N124  1  0.40006097  0.11380957  0.36458395  1  0  -0.355684  0  3.250901  0  0  -0.285975  0  3.53134  0  0  -0.30486  0  3.547761  0  0  -0.346678  -0.273134  0  3.51999  0
N  N125  1  0.59993470  0.88619301  0.63540920  1  0  -0.355979  0  3.250759  0  0  -0.286214  0  3.531147  0  0  -0.305099  0  3.54757  0  0  -0.34687  -0.273372  0  3.519804  0
N  N126  1  0.33605308  0.27489976  0.46532215  1  0  -0.080349  0  3.58923  0  0  0.014808  0  3.813658  0  0  -0.000307  0  3.840915  0  0  -0.252421  0.024892  0  3.795006  0
N  N127  1  0.66394405  0.72510465  0.53467529  1  0  -0.080458  0  3.589316  0  0  0.014668  0  3.813773  0  0  -0.000446  0  3.84103  0  0  -0.252514  0.024757  0  3.795116  0
N  N128  1  0.68869870  0.90580164  0.29235700  1  0  -0.370929  0  3.256161  0  0  -0.295988  0  3.535338  0  0  -0.317108  0  3.553204  0  0  -0.355515  -0.281587  0  3.522861  0
N  N129  1  0.31129878  0.09420665  0.70764278  1  0  -0.370953  0  3.256092  0  0  -0.29602  0  3.535259  0  0  -0.317139  0  3.553124  0  0  -0.355536  -0.28162  0  3.52278  0
N  N130  1  0.93014083  0.88039512  0.34982247  1  0  -0.060223  0  3.576409  0  0  0.036523  0  3.791699  0  0  0.021498  0  3.819042  0  0  -0.247558  0.046468  0  3.773002  0
N  N131  1  0.06985639  0.11961026  0.65017570  1  0  -0.059956  0  3.576397  0  0  0.036769  0  3.791647  0  0  0.021743  0  3.818987  0  0  -0.247522  0.046717  0  3.772945  0
O  O132  1  0.71509441  0.21481036  0.29430096  1  0  -0.67054  0  1.890521  0  0  -0.628112  0  2.110503  0  0  -0.651423  0  2.100644  0  0  -0.363877  -0.611791  0  2.116766  0
O  O133  1  0.28491877  0.78519500  0.70568676  1  0  -0.670605  0  1.890211  0  0  -0.628197  0  2.110217  0  0  -0.651511  0  2.100352  0  0  -0.363953  -0.611875  0  2.116481  0
O  O134  1  0.49478576  0.20660778  0.20906619  1  0  -0.676863  0  1.925598  0  0  -0.611984  0  2.16664  0  0  -0.641314  0  2.156577  0  0  -0.356238  -0.591281  0  2.172492  0
O  O135  1  0.50520941  0.79338669  0.79093579  1  0  -0.676865  0  1.925697  0  0  -0.611969  0  2.166688  0  0  -0.641296  0  2.156625  0  0  -0.356188  -0.591268  0  2.172543  0
O  O136  1  0.79380142  0.08352045  0.80944940  1  0  -0.664234  0  1.915444  0  0  -0.600065  0  2.153269  0  0  -0.628732  0  2.14347  0  0  -0.351737  -0.580025  0  2.159199  0
O  O137  1  0.20619674  0.91647981  0.19055529  1  0  -0.664181  0  1.915545  0  0  -0.600007  0  2.153356  0  0  -0.628673  0  2.143561  0  0  -0.351744  -0.579954  0  2.159283  0
O  O138  1  0.66927076  0.21966993  0.74783271  1  0  -0.677921  0  1.886283  0  0  -0.628575  0  2.116571  0  0  -0.65357  0  2.106148  0  0  -0.361319  -0.610964  0  2.123018  0
O  O139  1  0.33073962  0.78032817  0.25217073  1  0  -0.677835  0  1.886176  0  0  -0.628497  0  2.116464  0  0  -0.653476  0  2.10602  0  0  -0.361225  -0.610873  0  2.122906  0
