# generated using pymatgen
data_K2H8C9SO11
_symmetry_space_group_name_H-M   'P 1'
_cell_length_a   7.19304288
_cell_length_b   11.39495232
_cell_length_c   16.92267746
_cell_angle_alpha   95.87861400
_cell_angle_beta   89.99994699
_cell_angle_gamma   90.00002127
_symmetry_Int_Tables_number   1
_chemical_formula_structural   K2H8C9SO11
_chemical_formula_sum   'K8 H32 C36 S4 O44'
_cell_volume   1379.76240533
_cell_formula_units_Z   4
loop_
 _symmetry_equiv_pos_site_id
 _symmetry_equiv_pos_as_xyz
  1  'x, y, z'
loop_
 _atom_site_type_symbol
 _atom_site_label
 _atom_site_symmetry_multiplicity
 _atom_site_fract_x
 _atom_site_fract_y
 _atom_site_fract_z
 _atom_site_occupancy
 _atom_site_hle17_bader_spin_density
 _atom_site_hle17_ddec_charge
 _atom_site_hle17_ddec_spin_density
 _atom_site_hle17_ddec_sum_bond_order
 _atom_site_hle17_magmom
 _atom_site_hse06_10hf_bader_spin_density
 _atom_site_hse06_10hf_ddec_charge
 _atom_site_hse06_10hf_ddec_spin_density
 _atom_site_hse06_10hf_ddec_sum_bond_order
 _atom_site_hse06_10hf_magmom
 _atom_site_hse06_bader_spin_density
 _atom_site_hse06_ddec_charge
 _atom_site_hse06_ddec_spin_density
 _atom_site_hse06_ddec_sum_bond_order
 _atom_site_hse06_magmom
 _atom_site_pbe_bader_spin_density
 _atom_site_pbe_cm5_charge
 _atom_site_pbe_ddec_charge
 _atom_site_pbe_ddec_spin_density
 _atom_site_pbe_ddec_sum_bond_order
 _atom_site_pbe_magmom
K  K0  1  0.65639180  0.37348234  0.83765958  1  0  0.944907  0  0.465602  0  0  0.90989  0  0.642106  0  0  0.922203  0  0.620636  0  0  0.827303  0.900229  0  0.657964  0
K  K1  1  0.15638378  0.12652324  0.66234169  1  0  0.944915  0  0.465583  0  0  0.909914  0  0.642066  0  0  0.922225  0  0.620599  0  0  0.827326  0.900255  0  0.657917  0
K  K2  1  0.34361118  0.62652179  0.16233502  1  0  0.944895  0  0.465618  0  0  0.90991  0  0.642091  0  0  0.922211  0  0.620632  0  0  0.827323  0.900249  0  0.657948  0
K  K3  1  0.84361086  0.87348267  0.33766130  1  0  0.944924  0  0.465547  0  0  0.909922  0  0.642041  0  0  0.922232  0  0.620569  0  0  0.827303  0.90026  0  0.657896  0
K  K4  1  0.15685354  0.57279274  0.90592359  1  0  0.945799  0  0.453043  0  0  0.912488  0  0.619982  0  0  0.924423  0  0.59973  0  0  0.796641  0.903055  0  0.63502  0
K  K5  1  0.65684681  0.92719885  0.59407719  1  0  0.945816  0  0.453023  0  0  0.912494  0  0.61998  0  0  0.924443  0  0.599712  0  0  0.796639  0.90307  0  0.635003  0
K  K6  1  0.84314666  0.42720258  0.09407513  1  0  0.9458  0  0.453052  0  0  0.912491  0  0.619987  0  0  0.924431  0  0.59973  0  0  0.796642  0.903064  0  0.635016  0
K  K7  1  0.34316035  0.07279384  0.40593080  1  0  0.945809  0  0.453025  0  0  0.912506  0  0.619971  0  0  0.924446  0  0.599707  0  0  0.796641  0.903053  0  0.635031  0
H  H8  1  0.86008983  0.19424695  0.97198819  1  0  0.390899  0  0.942731  0  0  0.357378  0  1.012051  0  0  0.370598  0  0.994185  0  0  0.298591  0.348257  0  1.024326  0
H  H9  1  0.36008079  0.30575338  0.52801263  1  0  0.390855  0  0.942739  0  0  0.357342  0  1.012084  0  0  0.370561  0  0.994221  0  0  0.298601  0.348222  0  1.024357  0
H  H10  1  0.13991454  0.80575278  0.02801142  1  0  0.39091  0  0.942686  0  0  0.357407  0  1.011997  0  0  0.370627  0  0.994132  0  0  0.298628  0.348286  0  1.024271  0
H  H11  1  0.63991385  0.69424723  0.47198408  1  0  0.390778  0  0.942776  0  0  0.357263  0  1.012181  0  0  0.370482  0  0.994317  0  0  0.298549  0.34814  0  1.024457  0
H  H12  1  0.77156861  0.64335349  0.67281846  1  0  0.398369  0  0.886392  0  0  0.366741  0  0.965569  0  0  0.380331  0  0.951282  0  0  0.304807  0.357202  0  0.975545  0
H  H13  1  0.27156315  0.85664871  0.82718182  1  0  0.398391  0  0.886337  0  0  0.366677  0  0.965645  0  0  0.380268  0  0.951355  0  0  0.304773  0.357141  0  0.975618  0
H  H14  1  0.22844271  0.35664801  0.32718127  1  0  0.398423  0  0.88632  0  0  0.366718  0  0.965621  0  0  0.380311  0  0.951325  0  0  0.304768  0.35718  0  0.975597  0
H  H15  1  0.72843427  0.14335014  0.17281773  1  0  0.398489  0  0.886194  0  0  0.366715  0  0.965611  0  0  0.380305  0  0.951321  0  0  0.30478  0.357178  0  0.975586  0
H  H16  1  0.51006989  0.14948525  0.75480206  1  0  0.41281  0  0.898676  0  0  0.38093  0  0.965459  0  0  0.391784  0  0.949497  0  0  0.284133  0.373284  0  0.976689  0
H  H17  1  0.01007154  0.35051589  0.74519659  1  0  0.412812  0  0.898678  0  0  0.380933  0  0.965462  0  0  0.391787  0  0.949498  0  0  0.284135  0.373287  0  0.97669  0
H  H18  1  0.48992614  0.85051449  0.24519814  1  0  0.412812  0  0.898717  0  0  0.380929  0  0.965504  0  0  0.391783  0  0.949539  0  0  0.28412  0.373282  0  0.976732  0
H  H19  1  0.98992588  0.64948472  0.25480189  1  0  0.412773  0  0.898733  0  0  0.380894  0  0.965516  0  0  0.391748  0  0.949551  0  0  0.284103  0.373248  0  0.976744  0
H  H20  1  0.39639886  0.09017897  0.82145593  1  0  0.434286  0  0.845232  0  0  0.406654  0  0.906237  0  0  0.415909  0  0.892432  0  0  0.304496  0.400082  0  0.916036  0
H  H21  1  0.89639889  0.40982401  0.67854329  1  0  0.43423  0  0.845277  0  0  0.406608  0  0.906292  0  0  0.415864  0  0.892485  0  0  0.304475  0.400035  0  0.916092  0
H  H22  1  0.60359856  0.90982252  0.17854439  1  0  0.434249  0  0.845287  0  0  0.406613  0  0.906301  0  0  0.415869  0  0.892495  0  0  0.30447  0.400042  0  0.916099  0
H  H23  1  0.10359575  0.59017661  0.32145579  1  0  0.434245  0  0.845297  0  0  0.406611  0  0.906302  0  0  0.415868  0  0.892495  0  0  0.304473  0.400039  0  0.916102  0
H  H24  1  0.25455630  0.29181513  0.81475835  1  0  0.426729  0  0.870569  0  0  0.39781  0  0.932115  0  0  0.407257  0  0.918171  0  0  0.298123  0.391121  0  0.941988  0
H  H25  1  0.75454927  0.20818165  0.68523932  1  0  0.426808  0  0.870476  0  0  0.397919  0  0.931983  0  0  0.407368  0  0.918037  0  0  0.298177  0.39123  0  0.941858  0
H  H26  1  0.74544668  0.70818372  0.18523883  1  0  0.426746  0  0.87056  0  0  0.397853  0  0.932073  0  0  0.407304  0  0.918123  0  0  0.298131  0.391164  0  0.941947  0
H  H27  1  0.24544398  0.79181897  0.31476094  1  0  0.426749  0  0.870556  0  0  0.397825  0  0.932109  0  0  0.407273  0  0.918164  0  0  0.29817  0.391136  0  0.941984  0
H  H28  1  0.06925220  0.29848776  0.86148154  1  0  0.409093  0  0.897781  0  0  0.378735  0  0.961327  0  0  0.389261  0  0.945746  0  0  0.298184  0.371281  0  0.972356  0
H  H29  1  0.56924526  0.20150898  0.63851680  1  0  0.409075  0  0.897802  0  0  0.37872  0  0.961342  0  0  0.389247  0  0.94576  0  0  0.298203  0.371267  0  0.972371  0
H  H30  1  0.93075217  0.70151109  0.13851683  1  0  0.409132  0  0.897735  0  0  0.378788  0  0.961253  0  0  0.389314  0  0.945674  0  0  0.298238  0.371334  0  0.972282  0
H  H31  1  0.43074938  0.79848899  0.36148269  1  0  0.40913  0  0.897722  0  0  0.378779  0  0.961255  0  0  0.389305  0  0.945673  0  0  0.298232  0.371325  0  0.972284  0
H  H32  1  0.87623499  0.91345001  0.77537963  1  0  0.121938  0  0.950198  0  0  0.128108  0  1.01412  0  0  0.132885  0  1.010403  0  0  0.12401  0.124659  0  1.016906  0
H  H33  1  0.37623655  0.58655221  0.72462120  1  0  0.12191  0  0.950225  0  0  0.128087  0  1.014141  0  0  0.132865  0  1.010422  0  0  0.124022  0.124642  0  1.01692  0
H  H34  1  0.12376799  0.08654707  0.22461921  1  0  0.121907  0  0.95025  0  0  0.12808  0  1.014159  0  0  0.132856  0  1.010442  0  0  0.124015  0.124633  0  1.016942  0
H  H35  1  0.62376782  0.41344929  0.27538030  1  0  0.121924  0  0.950251  0  0  0.128088  0  1.014175  0  0  0.132865  0  1.010455  0  0  0.124019  0.12464  0  1.016957  0
H  H36  1  0.65505535  0.85525643  0.04370606  1  0  0.121228  0  0.95652  0  0  0.129572  0  1.018935  0  0  0.13369  0  1.016194  0  0  0.117135  0.126604  0  1.020978  0
H  H37  1  0.15505646  0.64474271  0.45629528  1  0  0.121257  0  0.95651  0  0  0.129589  0  1.018915  0  0  0.133708  0  1.01617  0  0  0.117143  0.126621  0  1.020957  0
H  H38  1  0.34494763  0.14474419  0.95629420  1  0  0.121225  0  0.956517  0  0  0.129574  0  1.018929  0  0  0.13369  0  1.016188  0  0  0.117143  0.126606  0  1.020971  0
H  H39  1  0.84494235  0.35525702  0.54370551  1  0  0.121237  0  0.956535  0  0  0.129584  0  1.018939  0  0  0.1337  0  1.016197  0  0  0.117154  0.126616  0  1.020983  0
C  C40  1  0.76633973  0.98138054  0.97015963  1  0  -0.078919  0  3.675999  0  0  -0.06608  0  3.921225  0  0  -0.071548  0  3.942617  0  0  -0.007066  -0.062618  0  3.90706  0
C  C41  1  0.26633193  0.51861549  0.52984259  1  0  -0.078962  0  3.676011  0  0  -0.066165  0  3.921168  0  0  -0.071636  0  3.942565  0  0  -0.007052  -0.062697  0  3.907007  0
C  C42  1  0.23366047  0.01861831  0.02983933  1  0  -0.078917  0  3.675959  0  0  -0.066087  0  3.921197  0  0  -0.071555  0  3.942599  0  0  -0.007065  -0.062626  0  3.907029  0
C  C43  1  0.73366271  0.48138513  0.47015885  1  0  -0.078929  0  3.675975  0  0  -0.066113  0  3.921159  0  0  -0.071583  0  3.942555  0  0  -0.007047  -0.062646  0  3.906994  0
C  C44  1  0.82726535  0.99745276  0.89194478  1  0  -0.068433  0  3.65894  0  0  -0.05597  0  3.898186  0  0  -0.059631  0  3.917353  0  0  -0.003091  -0.053672  0  3.885499  0
C  C45  1  0.32726016  0.50254768  0.60805713  1  0  -0.068442  0  3.658993  0  0  -0.055866  0  3.898127  0  0  -0.059524  0  3.917289  0  0  -0.003104  -0.053587  0  3.885468  0
C  C46  1  0.17273763  0.00254608  0.10805300  1  0  -0.068387  0  3.658844  0  0  -0.056022  0  3.898187  0  0  -0.059684  0  3.917353  0  0  -0.003067  -0.053716  0  3.885488  0
C  C47  1  0.67273865  0.49745029  0.39194532  1  0  -0.068377  0  3.659071  0  0  -0.055854  0  3.898261  0  0  -0.059514  0  3.917427  0  0  -0.003079  -0.053562  0  3.885582  0
C  C48  1  0.82814818  0.89940541  0.83463033  1  0  -0.049177  0  3.660662  0  0  -0.086576  0  3.914758  0  0  -0.085698  0  3.930682  0  0  -0.059901  -0.087127  0  3.904131  0
C  C49  1  0.32814292  0.60059416  0.66537151  1  0  -0.049001  0  3.660474  0  0  -0.086458  0  3.914558  0  0  -0.085577  0  3.930476  0  0  -0.059847  -0.087007  0  3.903937  0
C  C50  1  0.17185341  0.10059344  0.16537040  1  0  -0.049139  0  3.660543  0  0  -0.086504  0  3.914655  0  0  -0.085624  0  3.930575  0  0  -0.059894  -0.087057  0  3.904021  0
C  C51  1  0.67185172  0.39940558  0.33462987  1  0  -0.049092  0  3.660509  0  0  -0.086512  0  3.914595  0  0  -0.08563  0  3.930512  0  0  -0.059877  -0.087065  0  3.903974  0
C  C52  1  0.77694727  0.78645885  0.85069327  1  0  -0.035858  0  3.690527  0  0  -0.024612  0  3.928329  0  0  -0.027308  0  3.945465  0  0  0.008647  -0.022916  0  3.916956  0
C  C53  1  0.27694210  0.71354247  0.64930753  1  0  -0.035905  0  3.690443  0  0  -0.024658  0  3.928237  0  0  -0.027351  0  3.945375  0  0  0.00866  -0.022964  0  3.916866  0
C  C54  1  0.22305432  0.21354089  0.14930634  1  0  -0.035858  0  3.690472  0  0  -0.024607  0  3.928308  0  0  -0.027297  0  3.945446  0  0  0.008632  -0.022914  0  3.916937  0
C  C55  1  0.72305671  0.28645462  0.35069426  1  0  -0.035915  0  3.690408  0  0  -0.024652  0  3.9282  0  0  -0.027347  0  3.94534  0  0  0.008613  -0.022959  0  3.91683  0
C  C56  1  0.71417542  0.77178328  0.92774968  1  0  -0.09298  0  3.653028  0  0  -0.076662  0  3.899237  0  0  -0.079808  0  3.916492  0  0  0.003726  -0.074746  0  3.887909  0
C  C57  1  0.21417320  0.72821538  0.57225156  1  0  -0.093036  0  3.653148  0  0  -0.076702  0  3.899301  0  0  -0.07985  0  3.916557  0  0  0.003712  -0.074786  0  3.887972  0
C  C58  1  0.28582339  0.22821646  0.07225171  1  0  -0.093055  0  3.653054  0  0  -0.07668  0  3.899192  0  0  -0.079828  0  3.916449  0  0  0.00376  -0.074764  0  3.887862  0
C  C59  1  0.78582144  0.27178523  0.42774929  1  0  -0.093066  0  3.653178  0  0  -0.076707  0  3.899307  0  0  -0.079858  0  3.916567  0  0  0.00373  -0.074787  0  3.887977  0
C  C60  1  0.70794437  0.86811744  0.98501140  1  0  -0.055118  0  3.700683  0  0  -0.095693  0  3.959773  0  0  -0.094932  0  3.977852  0  0  -0.073394  -0.096123  0  3.947685  0
C  C61  1  0.20794222  0.63187945  0.51498854  1  0  -0.055152  0  3.700716  0  0  -0.095709  0  3.959778  0  0  -0.094942  0  3.977852  0  0  -0.073419  -0.096131  0  3.947672  0
C  C62  1  0.29205722  0.13188052  0.01498690  1  0  -0.055085  0  3.700608  0  0  -0.095693  0  3.959712  0  0  -0.094928  0  3.97779  0  0  -0.073437  -0.096118  0  3.947613  0
C  C63  1  0.79205520  0.36811852  0.48501391  1  0  -0.055133  0  3.700602  0  0  -0.095718  0  3.959672  0  0  -0.094953  0  3.977749  0  0  -0.073456  -0.09614  0  3.947565  0
C  C64  1  0.75872338  0.07198814  0.04202290  1  0  0.654681  0  3.825855  0  0  0.601225  0  4.130845  0  0  0.633535  0  4.125568  0  0  0.231253  0.57943  0  4.13381  0
C  C65  1  0.25872463  0.42800913  0.45797840  1  0  0.654686  0  3.825972  0  0  0.601289  0  4.13089  0  0  0.633592  0  4.125619  0  0  0.231304  0.57949  0  4.133859  0
C  C66  1  0.24127404  0.92801158  0.95797317  1  0  0.654661  0  3.825896  0  0  0.601318  0  4.130728  0  0  0.633616  0  4.125465  0  0  0.231398  0.579522  0  4.133692  0
C  C67  1  0.74127974  0.57199149  0.54202423  1  0  0.654568  0  3.825943  0  0  0.601198  0  4.130831  0  0  0.633504  0  4.125559  0  0  0.231252  0.579401  0  4.133797  0
C  C68  1  0.89604690  0.10828060  0.85878942  1  0  0.65269  0  3.85319  0  0  0.602988  0  4.152188  0  0  0.635337  0  4.144059  0  0  0.226616  0.581038  0  4.157237  0
C  C69  1  0.39603766  0.39171709  0.64120885  1  0  0.652624  0  3.852881  0  0  0.602883  0  4.151899  0  0  0.635231  0  4.143766  0  0  0.226533  0.580937  0  4.156947  0
C  C70  1  0.10395748  0.89171736  0.14120889  1  0  0.652793  0  3.853017  0  0  0.603172  0  4.151945  0  0  0.635522  0  4.143812  0  0  0.226687  0.581222  0  4.156996  0
C  C71  1  0.60395698  0.60828089  0.35879360  1  0  0.652622  0  3.852769  0  0  0.602875  0  4.151844  0  0  0.635225  0  4.143716  0  0  0.226577  0.580929  0  4.156888  0
C  C72  1  0.80313790  0.68717372  0.78595551  1  0  0.685506  0  3.796069  0  0  0.635803  0  4.097044  0  0  0.669298  0  4.086059  0  0  0.243996  0.612917  0  4.104139  0
C  C73  1  0.30313265  0.81283289  0.71404505  1  0  0.685503  0  3.796386  0  0  0.635805  0  4.097325  0  0  0.669291  0  4.086359  0  0  0.243983  0.61292  0  4.104419  0
C  C74  1  0.19686508  0.31282689  0.21404534  1  0  0.685486  0  3.796028  0  0  0.63566  0  4.097194  0  0  0.669138  0  4.086242  0  0  0.243923  0.612774  0  4.104288  0
C  C75  1  0.69686477  0.18716419  0.28595556  1  0  0.685516  0  3.796396  0  0  0.635755  0  4.097424  0  0  0.669246  0  4.086452  0  0  0.243994  0.61287  0  4.104518  0
S  S76  1  0.62885125  0.63342571  0.95443558  1  0  1.323987  0  5.717004  0  0  1.233456  0  6.241613  0  0  1.281502  0  6.215684  0  0  0.477625  1.200183  0  6.258504  0
S  S77  1  0.12885472  0.86657381  0.54556221  1  0  1.323908  0  5.717004  0  0  1.233352  0  6.241636  0  0  1.2814  0  6.215707  0  0  0.477549  1.200079  0  6.258531  0
S  S78  1  0.37114617  0.36657490  0.04556232  1  0  1.32396  0  5.716945  0  0  1.233413  0  6.241567  0  0  1.281461  0  6.215636  0  0  0.477588  1.200142  0  6.258458  0
S  S79  1  0.87115383  0.13343034  0.45444184  1  0  1.323641  0  5.717009  0  0  1.23307  0  6.241665  0  0  1.281119  0  6.215738  0  0  0.477413  1.199798  0  6.258554  0
O  O80  1  0.69997209  0.04116315  0.10703656  1  0  -0.581752  0  1.997536  0  0  -0.527337  0  2.218127  0  0  -0.551585  0  2.21129  0  0  -0.285119  -0.510682  0  2.22255  0
O  O81  1  0.19997210  0.45883676  0.39296376  1  0  -0.58167  0  1.997459  0  0  -0.527346  0  2.218038  0  0  -0.551594  0  2.211204  0  0  -0.285105  -0.510687  0  2.222458  0
O  O82  1  0.30002672  0.95883746  0.89296193  1  0  -0.581799  0  1.997644  0  0  -0.527412  0  2.218123  0  0  -0.551655  0  2.211291  0  0  -0.285193  -0.510758  0  2.222545  0
O  O83  1  0.80003088  0.54116739  0.60703616  1  0  -0.58158  0  1.99752  0  0  -0.52732  0  2.218113  0  0  -0.551566  0  2.211278  0  0  -0.28509  -0.51066  0  2.222532  0
O  O84  1  0.81525443  0.17860798  0.03726667  1  0  -0.589644  0  2.108728  0  0  -0.541814  0  2.340403  0  0  -0.565857  0  2.329322  0  0  -0.347114  -0.525256  0  2.347648  0
O  O85  1  0.31526117  0.32139372  0.46273313  1  0  -0.589631  0  2.108938  0  0  -0.541824  0  2.340602  0  0  -0.565862  0  2.329524  0  0  -0.347159  -0.525262  0  2.347847  0
O  O86  1  0.18473604  0.82139440  0.96272957  1  0  -0.589618  0  2.108817  0  0  -0.541853  0  2.340439  0  0  -0.56589  0  2.329359  0  0  -0.347213  -0.525291  0  2.347682  0
O  O87  1  0.68474320  0.67860778  0.53726601  1  0  -0.589563  0  2.108736  0  0  -0.541766  0  2.340428  0  0  -0.565808  0  2.329351  0  0  -0.347161  -0.525208  0  2.347675  0
O  O88  1  0.90413246  0.20795622  0.90531975  1  0  -0.635484  0  2.109728  0  0  -0.571755  0  2.323461  0  0  -0.596221  0  2.308018  0  0  -0.352251  -0.554698  0  2.333649  0
O  O89  1  0.40411216  0.29204324  0.59468395  1  0  -0.635428  0  2.109727  0  0  -0.571719  0  2.323517  0  0  -0.596196  0  2.308108  0  0  -0.352301  -0.554658  0  2.333688  0
O  O90  1  0.09588442  0.79204087  0.09467968  1  0  -0.635563  0  2.109558  0  0  -0.571868  0  2.323264  0  0  -0.59633  0  2.307817  0  0  -0.352364  -0.55481  0  2.333456  0
O  O91  1  0.59587692  0.70795473  0.40531612  1  0  -0.635353  0  2.109815  0  0  -0.571618  0  2.323594  0  0  -0.59608  0  2.308151  0  0  -0.352217  -0.554569  0  2.333798  0
O  O92  1  0.94265728  0.10357870  0.78811615  1  0  -0.596765  0  1.968381  0  0  -0.555546  0  2.19945  0  0  -0.576008  0  2.190747  0  0  -0.3688  -0.541437  0  2.205235  0
O  O93  1  0.44266042  0.39642254  0.71188765  1  0  -0.596782  0  1.968041  0  0  -0.555537  0  2.199089  0  0  -0.576001  0  2.190392  0  0  -0.368724  -0.541425  0  2.204866  0
O  O94  1  0.05734153  0.89641927  0.21188215  1  0  -0.596792  0  1.968364  0  0  -0.555593  0  2.199398  0  0  -0.576057  0  2.190693  0  0  -0.368784  -0.541487  0  2.205185  0
O  O95  1  0.55733422  0.60357455  0.28811236  1  0  -0.596788  0  1.967804  0  0  -0.555543  0  2.198858  0  0  -0.576008  0  2.190161  0  0  -0.368759  -0.541432  0  2.204636  0
O  O96  1  0.74312305  0.71307409  0.71589788  1  0  -0.54655  0  2.091467  0  0  -0.499332  0  2.31475  0  0  -0.522473  0  2.300914  0  0  -0.319013  -0.483135  0  2.323818  0
O  O97  1  0.24311902  0.78692723  0.78410412  1  0  -0.546545  0  2.09131  0  0  -0.499285  0  2.314651  0  0  -0.522425  0  2.300822  0  0  -0.318992  -0.483087  0  2.323714  0
O  O98  1  0.25688967  0.28692917  0.28410257  1  0  -0.546569  0  2.091361  0  0  -0.49924  0  2.31473  0  0  -0.522379  0  2.300902  0  0  -0.318923  -0.483041  0  2.323796  0
O  O99  1  0.75687284  0.21307251  0.21589608  1  0  -0.546631  0  2.091289  0  0  -0.499307  0  2.314708  0  0  -0.522447  0  2.300874  0  0  -0.318999  -0.483111  0  2.323775  0
O  O100  1  0.88098948  0.59364006  0.79706302  1  0  -0.617487  0  1.957708  0  0  -0.582212  0  2.185752  0  0  -0.602501  0  2.176578  0  0  -0.368586  -0.567975  0  2.19174  0
O  O101  1  0.38097596  0.90635952  0.70293821  1  0  -0.617438  0  1.958118  0  0  -0.582173  0  2.18617  0  0  -0.602461  0  2.177005  0  0  -0.368572  -0.567941  0  2.192158  0
O  O102  1  0.11900238  0.40635615  0.20293930  1  0  -0.617455  0  1.957785  0  0  -0.582133  0  2.185864  0  0  -0.602415  0  2.176699  0  0  -0.368563  -0.567898  0  2.191852  0
O  O103  1  0.61902842  0.09363845  0.29706305  1  0  -0.617377  0  1.958093  0  0  -0.582109  0  2.18621  0  0  -0.6024  0  2.177046  0  0  -0.368539  -0.567872  0  2.192195  0
O  O104  1  0.52043127  0.58589794  0.88466701  1  0  -0.750125  0  2.001673  0  0  -0.707237  0  2.261797  0  0  -0.728245  0  2.247239  0  0  -0.503747  -0.692076  0  2.271271  0
O  O105  1  0.02042488  0.91410332  0.61532917  1  0  -0.750031  0  2.001537  0  0  -0.707169  0  2.26173  0  0  -0.728157  0  2.247121  0  0  -0.503701  -0.691997  0  2.271172  0
O  O106  1  0.47956754  0.41410444  0.11533397  1  0  -0.750076  0  2.00145  0  0  -0.707193  0  2.261583  0  0  -0.7282  0  2.247024  0  0  -0.503715  -0.692021  0  2.271027  0
O  O107  1  0.97957810  0.08590082  0.38467192  1  0  -0.749923  0  2.001467  0  0  -0.707078  0  2.261692  0  0  -0.728048  0  2.247046  0  0  -0.503677  -0.6919  0  2.271131  0
O  O108  1  0.51564284  0.66167111  0.02543689  1  0  -0.702167  0  1.981923  0  0  -0.665699  0  2.246442  0  0  -0.685153  0  2.231479  0  0  -0.410766  -0.651765  0  2.256205  0
O  O109  1  0.01564539  0.83832446  0.47455954  1  0  -0.702235  0  1.981984  0  0  -0.665697  0  2.246397  0  0  -0.685175  0  2.231474  0  0  -0.410758  -0.651766  0  2.256162  0
O  O110  1  0.48435736  0.33833215  0.97456355  1  0  -0.702206  0  1.982057  0  0  -0.665737  0  2.246577  0  0  -0.685191  0  2.231608  0  0  -0.410787  -0.651803  0  2.256339  0
O  O111  1  0.98436593  0.16168321  0.52544062  1  0  -0.702128  0  1.981954  0  0  -0.665573  0  2.246347  0  0  -0.685047  0  2.231422  0  0  -0.410661  -0.651644  0  2.25611  0
O  O112  1  0.79413870  0.56152731  0.96811019  1  0  -0.765391  0  1.965199  0  0  -0.723318  0  2.219386  0  0  -0.743426  0  2.203964  0  0  -0.467042  -0.708707  0  2.229447  0
O  O113  1  0.29413668  0.93846959  0.53188735  1  0  -0.765404  0  1.965315  0  0  -0.723352  0  2.219567  0  0  -0.743463  0  2.204143  0  0  -0.467055  -0.708742  0  2.229629  0
O  O114  1  0.20585872  0.43847154  0.03188936  1  0  -0.765381  0  1.965287  0  0  -0.723311  0  2.219495  0  0  -0.743418  0  2.204069  0  0  -0.467023  -0.708702  0  2.229556  0
O  O115  1  0.70587047  0.06153279  0.46811717  1  0  -0.765298  0  1.965277  0  0  -0.723229  0  2.219507  0  0  -0.74334  0  2.204082  0  0  -0.466987  -0.70862  0  2.229568  0
O  O116  1  0.42118535  0.16529500  0.80011717  1  0  -0.896122  0  1.821226  0  0  -0.849616  0  1.989218  0  0  -0.866919  0  1.957735  0  0  -0.645814  -0.837231  0  2.011292  0
O  O117  1  0.92117835  0.33470888  0.69988505  1  0  -0.896088  0  1.821251  0  0  -0.849594  0  1.989257  0  0  -0.866896  0  1.957771  0  0  -0.645801  -0.837209  0  2.011331  0
O  O118  1  0.57881068  0.83470562  0.19988368  1  0  -0.896098  0  1.821297  0  0  -0.849598  0  1.989299  0  0  -0.866902  0  1.957811  0  0  -0.645771  -0.837213  0  2.011369  0
O  O119  1  0.07881351  0.66529350  0.30011592  1  0  -0.896068  0  1.821317  0  0  -0.849568  0  1.989305  0  0  -0.866869  0  1.957814  0  0  -0.645763  -0.83718  0  2.011378  0
O  O120  1  0.14805756  0.34505606  0.82823741  1  0  -0.860991  0  1.847133  0  0  -0.812298  0  2.00808  0  0  -0.830685  0  1.978038  0  0  -0.633601  -0.799172  0  2.029043  0
O  O121  1  0.64805192  0.15494158  0.67176155  1  0  -0.861072  0  1.847134  0  0  -0.812415  0  2.008038  0  0  -0.830804  0  1.977995  0  0  -0.633652  -0.799294  0  2.029003  0
O  O122  1  0.85194403  0.65494191  0.17176031  1  0  -0.861063  0  1.847151  0  0  -0.812413  0  2.008051  0  0  -0.830803  0  1.978005  0  0  -0.633658  -0.799289  0  2.029016  0
O  O123  1  0.35194272  0.84505815  0.32823806  1  0  -0.861052  0  1.8471  0  0  -0.812361  0  2.008046  0  0  -0.83075  0  1.978005  0  0  -0.63367  -0.799233  0  2.029012  0
