# generated using pymatgen
data_AgH13C11S(NO2)2
_symmetry_space_group_name_H-M   'P 1'
_cell_length_a   7.98774273
_cell_length_b   8.49887412
_cell_length_c   9.84909159
_cell_angle_alpha   68.75667553
_cell_angle_beta   85.68980196
_cell_angle_gamma   85.56266408
_symmetry_Int_Tables_number   1
_chemical_formula_structural   AgH13C11S(NO2)2
_chemical_formula_sum   'Ag2 H26 C22 S2 N4 O8'
_cell_volume   620.52321298
_cell_formula_units_Z   2
loop_
 _symmetry_equiv_pos_site_id
 _symmetry_equiv_pos_as_xyz
  1  'x, y, z'
loop_
 _atom_site_type_symbol
 _atom_site_label
 _atom_site_symmetry_multiplicity
 _atom_site_fract_x
 _atom_site_fract_y
 _atom_site_fract_z
 _atom_site_occupancy
 _atom_site_hle17_bader_spin_density
 _atom_site_hle17_ddec_charge
 _atom_site_hle17_ddec_spin_density
 _atom_site_hle17_ddec_sum_bond_order
 _atom_site_hle17_magmom
 _atom_site_hse06_10hf_bader_spin_density
 _atom_site_hse06_10hf_ddec_charge
 _atom_site_hse06_10hf_ddec_spin_density
 _atom_site_hse06_10hf_ddec_sum_bond_order
 _atom_site_hse06_10hf_magmom
 _atom_site_hse06_bader_spin_density
 _atom_site_hse06_ddec_charge
 _atom_site_hse06_ddec_spin_density
 _atom_site_hse06_ddec_sum_bond_order
 _atom_site_hse06_magmom
 _atom_site_pbe_bader_spin_density
 _atom_site_pbe_cm5_charge
 _atom_site_pbe_ddec_charge
 _atom_site_pbe_ddec_spin_density
 _atom_site_pbe_ddec_sum_bond_order
 _atom_site_pbe_magmom
Ag  Ag0  1  0.32326583  0.50183457  0.33312392  1  0  0.58075  0  1.359865  0  0  0.442194  0  1.787387  0  0  0.472078  0  1.741885  0  0  0.480219  0.420989  0  1.819285  0
Ag  Ag1  1  0.67673552  0.49816431  0.66687680  1  0  0.580741  0  1.359869  0  0  0.44218  0  1.787407  0  0  0.472062  0  1.741905  0  0  0.48021  0.420978  0  1.81931  0
H  H2  1  0.56019713  0.20852869  0.28951314  1  0  0.12412  0  0.966345  0  0  0.130015  0  1.031875  0  0  0.134311  0  1.028  0  0  0.109288  0.126821  0  1.034798  0
H  H3  1  0.43980179  0.79146893  0.71049015  1  0  0.12413  0  0.966334  0  0  0.130028  0  1.031858  0  0  0.134323  0  1.027985  0  0  0.109299  0.126832  0  1.034786  0
H  H4  1  0.73677218  0.38187922  0.07580385  1  0  0.10293  0  0.970142  0  0  0.109984  0  1.034576  0  0  0.114075  0  1.031189  0  0  0.105424  0.10697  0  1.037194  0
H  H5  1  0.26322144  0.61812346  0.92419615  1  0  0.102933  0  0.97015  0  0  0.109983  0  1.034582  0  0  0.114074  0  1.031196  0  0  0.105428  0.106968  0  1.037202  0
H  H6  1  0.87205395  0.25645565  0.89968458  1  0  0.081979  0  0.96739  0  0  0.092135  0  1.033541  0  0  0.09576  0  1.030333  0  0  0.097386  0.089331  0  1.036319  0
H  H7  1  0.12793709  0.74354827  0.10031316  1  0  0.081965  0  0.967329  0  0  0.092058  0  1.033547  0  0  0.095684  0  1.030338  0  0  0.097352  0.089254  0  1.036327  0
H  H8  1  0.82190226  0.96032387  0.92733586  1  0  0.100902  0  0.968623  0  0  0.108983  0  1.03344  0  0  0.112643  0  1.031267  0  0  0.104461  0.106355  0  1.035041  0
H  H9  1  0.17809514  0.03967880  0.07266390  1  0  0.100909  0  0.968654  0  0  0.108995  0  1.033449  0  0  0.112655  0  1.031277  0  0  0.104452  0.106364  0  1.035054  0
H  H10  1  0.08499781  0.15300464  0.20689519  1  0  0.044316  0  0.948783  0  0  0.063473  0  1.011534  0  0  0.063047  0  1.011873  0  0  0.096009  0.063801  0  1.011332  0
H  H11  1  0.91500348  0.84699550  0.79310411  1  0  0.044307  0  0.948812  0  0  0.063472  0  1.011557  0  0  0.063042  0  1.011901  0  0  0.096002  0.063799  0  1.011355  0
H  H12  1  0.00303370  0.36563608  0.15765543  1  0  0.027746  0  0.948858  0  0  0.045835  0  1.013713  0  0  0.045321  0  1.013883  0  0  0.089039  0.045948  0  1.014121  0
H  H13  1  0.99696759  0.63436406  0.84234387  1  0  0.027764  0  0.948832  0  0  0.045839  0  1.013705  0  0  0.045325  0  1.013873  0  0  0.089047  0.04595  0  1.014115  0
H  H14  1  0.93264644  0.18490177  0.41848267  1  0  0.073929  0  0.922466  0  0  0.091799  0  0.981419  0  0  0.091664  0  0.982637  0  0  0.10364  0.091888  0  0.980479  0
H  H15  1  0.06735485  0.81509836  0.58151663  1  0  0.07394  0  0.922398  0  0  0.091817  0  0.981354  0  0  0.091682  0  0.982572  0  0  0.103658  0.091905  0  0.980417  0
H  H16  1  0.15247874  0.14036163  0.44673855  1  0  0.09172  0  0.919906  0  0  0.106818  0  0.980236  0  0  0.107794  0  0.979974  0  0  0.110758  0.106124  0  0.980489  0
H  H17  1  0.84752128  0.85963850  0.55325982  1  0  0.091728  0  0.919865  0  0  0.10682  0  0.980219  0  0  0.107796  0  0.979958  0  0  0.110763  0.106125  0  0.98047  0
H  H18  1  0.80758573  0.45475218  0.40771285  1  0  0.058544  0  0.933158  0  0  0.071673  0  1.010735  0  0  0.073026  0  1.00827  0  0  0.095558  0.070687  0  1.012484  0
H  H19  1  0.19241563  0.54524669  0.59228685  1  0  0.058514  0  0.933198  0  0  0.071664  0  1.010748  0  0  0.073018  0  1.008282  0  0  0.095558  0.070679  0  1.012491  0
H  H20  1  0.93541289  0.55513819  0.24831724  1  0  0.072175  0  0.940152  0  0  0.091344  0  1.000035  0  0  0.091076  0  1.000932  0  0  0.105708  0.091426  0  0.999772  0
H  H21  1  0.06458846  0.44486068  0.75168245  1  0  0.072177  0  0.940153  0  0  0.09135  0  1.000029  0  0  0.091082  0  1.000929  0  0  0.105708  0.091431  0  0.999767  0
H  H22  1  0.16454780  0.24324304  0.62942513  1  0  0.072541  0  0.958937  0  0  0.08767  0  1.023582  0  0  0.087029  0  1.025764  0  0  0.10272  0.088096  0  1.022085  0
H  H23  1  0.83545349  0.75675710  0.37057417  1  0  0.072546  0  0.958939  0  0  0.087677  0  1.023579  0  0  0.087034  0  1.025764  0  0  0.102728  0.088104  0  1.022083  0
H  H24  1  0.94112538  0.27292027  0.63139171  1  0  0.060721  0  0.963819  0  0  0.075774  0  1.036507  0  0  0.07684  0  1.034753  0  0  0.095291  0.074938  0  1.037844  0
H  H25  1  0.05887597  0.72707860  0.36860798  1  0  0.06071  0  0.963817  0  0  0.07576  0  1.036511  0  0  0.076824  0  1.034756  0  0  0.095282  0.074924  0  1.037846  0
H  H26  1  0.29539642  0.33210012  0.08623157  1  0  0.375646  0  0.921934  0  0  0.353967  0  0.990349  0  0  0.363027  0  0.979098  0  0  0.295448  0.347446  0  0.997617  0
H  H27  1  0.70460619  0.66789875  0.91376805  1  0  0.375661  0  0.921926  0  0  0.353985  0  0.990332  0  0  0.363046  0  0.979071  0  0  0.295451  0.347461  0  0.997604  0
C  C28  1  0.58946691  0.99294328  0.22096332  1  0  -0.128272  0  3.754028  0  0  -0.107721  0  3.996564  0  0  -0.112701  0  4.017427  0  0  -0.014302  -0.104784  0  3.982983  0
C  C29  1  0.41053313  0.00705686  0.77903708  1  0  -0.128277  0  3.754045  0  0  -0.107708  0  3.996594  0  0  -0.112689  0  4.017456  0  0  -0.014304  -0.104776  0  3.983018  0
C  C30  1  0.61737866  0.15607074  0.21032955  1  0  -0.032752  0  3.684924  0  0  -0.057246  0  3.930958  0  0  -0.055627  0  3.946888  0  0  -0.072492  -0.058322  0  3.920347  0
C  C31  1  0.38262012  0.84392940  0.78967194  1  0  -0.032744  0  3.685007  0  0  -0.057247  0  3.931046  0  0  -0.055628  0  3.94698  0  0  -0.072511  -0.058317  0  3.92043  0
C  C32  1  0.71914985  0.25070620  0.09117169  1  0  -0.048738  0  3.701165  0  0  -0.063082  0  3.953785  0  0  -0.064035  0  3.971507  0  0  -0.076258  -0.062342  0  3.941857  0
C  C33  1  0.28084635  0.74929521  0.90882855  1  0  -0.048778  0  3.70126  0  0  -0.063108  0  3.953854  0  0  -0.064063  0  3.971576  0  0  -0.076261  -0.062368  0  3.941922  0
C  C34  1  0.79337312  0.17995215  0.99165047  1  0  -0.063632  0  3.7459  0  0  -0.079228  0  4.003966  0  0  -0.080433  0  4.022978  0  0  -0.083981  -0.078464  0  3.99123  0
C  C35  1  0.20662176  0.82005052  0.00834845  1  0  -0.063542  0  3.7458  0  0  -0.079078  0  4.003841  0  0  -0.08028  0  4.022853  0  0  -0.08396  -0.078318  0  3.991101  0
C  C36  1  0.76622966  0.01377322  0.00641117  1  0  -0.057483  0  3.709309  0  0  -0.080909  0  3.959831  0  0  -0.081579  0  3.979745  0  0  -0.081011  -0.080525  0  3.946304  0
C  C37  1  0.23376773  0.98622945  0.99358860  1  0  -0.057563  0  3.70935  0  0  -0.080972  0  3.95987  0  0  -0.081643  0  3.979783  0  0  -0.080994  -0.08058  0  3.946336  0
C  C38  1  0.66094732  0.92024087  0.12202859  1  0  -0.078011  0  3.805839  0  0  -0.0633  0  4.038668  0  0  -0.069657  0  4.063067  0  0  -0.017301  -0.059175  0  4.022474  0
C  C39  1  0.33905391  0.07976054  0.87797235  1  0  -0.077987  0  3.805851  0  0  -0.063344  0  4.038742  0  0  -0.069702  0  4.063143  0  0  -0.017303  -0.059218  0  4.022545  0
C  C40  1  0.60683665  0.74406383  0.15802001  1  0  0.56311  0  3.883151  0  0  0.517736  0  4.170684  0  0  0.548194  0  4.171425  0  0  0.22779  0.497009  0  4.169602  0
C  C41  1  0.39316458  0.25593758  0.84198092  1  0  0.563066  0  3.883364  0  0  0.517757  0  4.170839  0  0  0.548214  0  4.171582  0  0  0.227783  0.497026  0  4.169763  0
C  C42  1  0.09604591  0.27234575  0.22462111  1  0  0.132503  0  3.684792  0  0  0.065419  0  3.963909  0  0  0.072893  0  3.971214  0  0  -0.081982  0.060248  0  3.959054  0
C  C43  1  0.90395538  0.72765438  0.77537820  1  0  0.132487  0  3.684846  0  0  0.065407  0  3.963943  0  0  0.072884  0  3.971249  0  0  -0.081986  0.060237  0  3.959085  0
C  C44  1  0.05845860  0.23622159  0.38577050  1  0  -0.049914  0  3.630243  0  0  -0.1025  0  3.878803  0  0  -0.100082  0  3.891952  0  0  -0.076817  -0.104083  0  3.869811  0
C  C45  1  0.94154276  0.76377729  0.61423021  1  0  -0.049893  0  3.630141  0  0  -0.102492  0  3.878715  0  0  -0.100078  0  3.891866  0  0  -0.076828  -0.104074  0  3.869721  0
C  C46  1  0.92958308  0.51335511  0.36772211  1  0  -0.036059  0  3.668512  0  0  -0.09746  0  3.925963  0  0  -0.094544  0  3.940593  0  0  -0.078106  -0.09904  0  3.915257  0
C  C47  1  0.07041702  0.48664376  0.63227767  1  0  -0.03603  0  3.668513  0  0  -0.097451  0  3.925977  0  0  -0.094528  0  3.940591  0  0  -0.078096  -0.099026  0  3.915257  0
C  C48  1  0.06004616  0.33550756  0.58678211  1  0  -0.044536  0  3.667141  0  0  -0.101025  0  3.917041  0  0  -0.098196  0  3.931456  0  0  -0.080642  -0.102818  0  3.907043  0
C  C49  1  0.93995394  0.66449131  0.41321767  1  0  -0.044518  0  3.66712  0  0  -0.101014  0  3.917033  0  0  -0.098177  0  3.931435  0  0  -0.080637  -0.102807  0  3.907032  0
S  S50  1  0.46263385  0.84257301  0.35135742  1  0  1.21453  0  5.409002  0  0  1.12771  0  5.914083  0  0  1.173041  0  5.89877  0  0  0.548369  1.096516  0  5.92331  0
S  S51  1  0.53736492  0.15742713  0.64864204  1  0  1.21451  0  5.409084  0  0  1.127702  0  5.914153  0  0  1.173037  0  5.898839  0  0  0.548389  1.096493  0  5.9234  0
N  N52  1  0.49871000  0.69551370  0.27802587  1  0  -0.700692  0  3.159844  0  0  -0.623427  0  3.494902  0  0  -0.654251  0  3.494134  0  0  -0.425268  -0.601979  0  3.494498  0
N  N53  1  0.50129129  0.30448643  0.72197343  1  0  -0.700687  0  3.159925  0  0  -0.623441  0  3.494953  0  0  -0.654266  0  3.494184  0  0  -0.425261  -0.60199  0  3.494559  0
N  N54  1  0.06923279  0.38699203  0.42598885  1  0  -0.20645  0  3.260147  0  0  -0.093709  0  3.492955  0  0  -0.113884  0  3.515849  0  0  -0.350653  -0.079536  0  3.476688  0
N  N55  1  0.93076724  0.61300810  0.57401053  1  0  -0.206441  0  3.260104  0  0  -0.0937  0  3.492924  0  0  -0.113874  0  3.515817  0  0  -0.350645  -0.079529  0  3.476662  0
O  O56  1  0.65539254  0.65068125  0.08809515  1  0  -0.555638  0  1.967976  0  0  -0.504502  0  2.189431  0  0  -0.525758  0  2.181598  0  0  -0.293728  -0.489764  0  2.194745  0
O  O57  1  0.34461517  0.34931636  0.91190556  1  0  -0.555599  0  1.968107  0  0  -0.504469  0  2.189509  0  0  -0.525724  0  2.181683  0  0  -0.293713  -0.489728  0  2.194823  0
O  O58  1  0.53408544  0.78635086  0.49425055  1  0  -0.611631  0  2.007423  0  0  -0.558698  0  2.281322  0  0  -0.580355  0  2.26478  0  0  -0.314537  -0.543217  0  2.291768  0
O  O59  1  0.46591216  0.21364802  0.50575142  1  0  -0.61156  0  2.007451  0  0  -0.558656  0  2.281388  0  0  -0.580306  0  2.264824  0  0  -0.314526  -0.543172  0  2.291847  0
O  O60  1  0.28619946  0.89874517  0.34714707  1  0  -0.59242  0  1.951161  0  0  -0.544286  0  2.199515  0  0  -0.565929  0  2.188679  0  0  -0.304703  -0.528976  0  2.206078  0
O  O61  1  0.71380056  0.10125496  0.65285130  1  0  -0.59245  0  1.951157  0  0  -0.544315  0  2.199508  0  0  -0.565959  0  2.188669  0  0  -0.304732  -0.528997  0  2.206072  0
O  O62  1  0.26145712  0.33073429  0.18592163  1  0  -0.571974  0  2.154311  0  0  -0.505458  0  2.406306  0  0  -0.524821  0  2.393252  0  0  -0.415337  -0.491593  0  2.414801  0
O  O63  1  0.73854298  0.66926458  0.81407916  1  0  -0.571976  0  2.154267  0  0  -0.505473  0  2.406291  0  0  -0.524831  0  2.393217  0  0  -0.415341  -0.491608  0  2.414787  0
