# generated using pymatgen
data_Zn5H40(C16O9)2
_symmetry_space_group_name_H-M   'P 1'
_cell_length_a   8.98271974
_cell_length_b   10.51747020
_cell_length_c   11.22240279
_cell_angle_alpha   66.48659503
_cell_angle_beta   73.34332748
_cell_angle_gamma   73.97780474
_symmetry_Int_Tables_number   1
_chemical_formula_structural   Zn5H40(C16O9)2
_chemical_formula_sum   'Zn5 H40 C32 O18'
_cell_volume   915.50767820
_cell_formula_units_Z   1
loop_
 _symmetry_equiv_pos_site_id
 _symmetry_equiv_pos_as_xyz
  1  'x, y, z'
loop_
 _atom_site_type_symbol
 _atom_site_label
 _atom_site_symmetry_multiplicity
 _atom_site_fract_x
 _atom_site_fract_y
 _atom_site_fract_z
 _atom_site_occupancy
 _atom_site_pbe_bader_spin_density
 _atom_site_pbe_cm5_charge
 _atom_site_pbe_ddec_charge
 _atom_site_pbe_ddec_spin_density
 _atom_site_pbe_ddec_sum_bond_order
 _atom_site_pbe_magmom
Zn  Zn0  1  0.00000502  0.00000208  0.49999947  1  0  0.704866  1.080945  0  2.549599  0
Zn  Zn1  1  0.22594449  0.85203936  0.71595113  1  0  0.677024  0.951372  0  2.359629  0
Zn  Zn2  1  0.77404700  0.14796528  0.28404566  1  0  0.677012  0.951337  0  2.359442  0
Zn  Zn3  1  0.36254192  0.94602312  0.40349130  1  0  0.688201  0.999784  0  2.319166  0
Zn  Zn4  1  0.63745588  0.05397933  0.59651463  1  0  0.688191  0.999859  0  2.318989  0
H  H5  1  0.06301351  0.59133811  0.43599810  1  0  0.100727  0.081182  0  0.983796  0
H  H6  1  0.93699642  0.40866750  0.56400743  1  0  0.100736  0.081191  0  0.983737  0
H  H7  1  0.42447408  0.54867984  0.35832972  1  0  0.098199  0.100791  0  1.014797  0
H  H8  1  0.57552962  0.45131104  0.64167731  1  0  0.098163  0.100772  0  1.014723  0
H  H9  1  0.31187308  0.46330471  0.51510189  1  0  0.095573  0.098271  0  0.998028  0
H  H10  1  0.68812921  0.53668727  0.48490060  1  0  0.09557  0.098272  0  0.997943  0
H  H11  1  0.21654666  0.33301801  0.41994262  1  0  0.105414  0.101013  0  0.958624  0
H  H12  1  0.78345689  0.66698456  0.58005214  1  0  0.10541  0.10098  0  0.95865  0
H  H13  1  0.30406425  0.35843725  0.18307814  1  0  0.092986  0.092174  0  1.005644  0
H  H14  1  0.69593842  0.64156952  0.81691706  1  0  0.092971  0.09217  0  1.005614  0
H  H15  1  0.41541297  0.48605697  0.15328155  1  0  0.092898  0.093528  0  0.990425  0
H  H16  1  0.58458318  0.51394766  0.84671684  1  0  0.092891  0.093521  0  0.990471  0
H  H17  1  0.15976905  0.60424337  0.07919862  1  0  0.095031  0.093867  0  0.997291  0
H  H18  1  0.84022504  0.39576013  0.92080690  1  0  0.095007  0.093845  0  0.997335  0
H  H19  1  0.05342976  0.51912477  0.23855208  1  0  0.091514  0.089305  0  0.978987  0
H  H20  1  0.94657544  0.48087560  0.76145200  1  0  0.091477  0.089257  0  0.979029  0
H  H21  1  0.27098616  0.72963472  0.16950156  1  0  0.091925  0.087542  0  0.998721  0
H  H22  1  0.72900742  0.27036564  0.83050256  1  0  0.091898  0.08755  0  0.998618  0
H  H23  1  0.06192849  0.76653217  0.20949352  1  0  0.094777  0.094732  0  0.989497  0
H  H24  1  0.93807486  0.23346604  0.79051536  1  0  0.094767  0.094671  0  0.989524  0
H  H25  1  0.34153800  0.17631640  0.09455056  1  0  0.096843  0.084377  0  0.996175  0
H  H26  1  0.65845697  0.82368825  0.90544631  1  0  0.09687  0.084361  0  0.996135  0
H  H27  1  0.26708751  0.97785656  0.07770887  1  0  0.089893  0.085609  0  1.014032  0
H  H28  1  0.73291279  0.02214490  0.92229060  1  0  0.089909  0.085639  0  1.01404  0
H  H29  1  0.11560653  0.09019132  0.99225759  1  0  0.097877  0.104398  0  0.985707  0
H  H30  1  0.88439262  0.90981012  0.00774394  1  0  0.09789  0.104423  0  0.985675  0
H  H31  1  0.47113270  0.09234399  0.88508614  1  0  0.101685  0.087348  0  0.983997  0
H  H32  1  0.52886319  0.90766175  0.11490656  1  0  0.101667  0.087337  0  0.984062  0
H  H33  1  0.38893730  0.26891331  0.67910572  1  0  0.088246  0.085845  0  1.053143  0
H  H34  1  0.61104880  0.73108925  0.32088952  1  0  0.088253  0.085868  0  1.053081  0
H  H35  1  0.18764730  0.26843634  0.75757528  1  0  0.091007  0.088782  0  0.992975  0
H  H36  1  0.81233949  0.73156300  0.24242633  1  0  0.091042  0.088841  0  0.993064  0
H  H37  1  0.28117356  0.47135504  0.76273794  1  0  0.09032  0.092342  0  0.991697  0
H  H38  1  0.71881858  0.52864646  0.23725896  1  0  0.090315  0.092307  0  0.991777  0
H  H39  1  0.43139225  0.35116528  0.84430320  1  0  0.085929  0.07562  0  1.00493  0
H  H40  1  0.56859871  0.64883625  0.15569040  1  0  0.085892  0.075637  0  1.004886  0
H  H41  1  0.20225062  0.42310650  0.00571109  1  0  0.092831  0.091486  0  1.009159  0
H  H42  1  0.79774733  0.57689501  0.99428446  1  0  0.092842  0.091508  0  1.009084  0
H  H43  1  0.07392642  0.36843631  0.95120548  1  0  0.091425  0.086396  0  1.033914  0
H  H44  1  0.92606969  0.63156302  0.04879664  1  0  0.091416  0.086392  0  1.033782  0
C  C45  1  0.18866629  0.74908288  0.41125686  1  0  0.232831  0.615036  0  4.093222  0
C  C46  1  0.81134245  0.25092277  0.58874447  1  0  0.2329  0.615322  0  4.093068  0
C  C47  1  0.17419236  0.62667609  0.37584442  1  0  -0.079424  -0.088439  0  3.842989  0
C  C48  1  0.82581565  0.37331068  0.62415331  1  0  -0.079412  -0.088529  0  3.84285  0
C  C49  1  0.31515497  0.50595973  0.40779030  1  0  -0.156655  -0.182564  0  3.873331  0
C  C50  1  0.68485038  0.49403433  0.59221339  1  0  -0.156649  -0.182549  0  3.873134  0
C  C51  1  0.31628358  0.38735558  0.35940987  1  0  -0.083701  -0.101856  0  3.837237  0
C  C52  1  0.68372105  0.61264175  0.64058299  1  0  -0.083705  -0.101753  0  3.837191  0
C  C53  1  0.30671296  0.44534310  0.21278893  1  0  -0.165655  -0.16318  0  3.926152  0
C  C54  1  0.69328757  0.55465730  0.78721177  1  0  -0.165661  -0.163246  0  3.925951  0
C  C55  1  0.16257679  0.56221293  0.18549527  1  0  -0.163758  -0.146669  0  3.945212  0
C  C56  1  0.83742886  0.43778533  0.81450949  1  0  -0.163637  -0.146494  0  3.945098  0
C  C57  1  0.16602635  0.68216829  0.22835120  1  0  -0.159219  -0.161947  0  3.910542  0
C  C58  1  0.83397605  0.31782888  0.77165739  1  0  -0.15922  -0.161944  0  3.91021  0
C  C59  1  0.46772089  0.27920533  0.38483667  1  0  0.23124  0.624027  0  4.09628  0
C  C60  1  0.53228422  0.72079521  0.61515223  1  0  0.231122  0.623774  0  4.096587  0
C  C61  1  0.09895892  0.17147512  0.18921805  1  0  0.233532  0.633752  0  4.071697  0
C  C62  1  0.90104835  0.82852637  0.81077980  1  0  0.233527  0.633688  0  4.071759  0
C  C63  1  0.22844750  0.19630149  0.06447576  1  0  -0.088131  -0.114125  0  3.859736  0
C  C64  1  0.77154773  0.80370204  0.93552681  1  0  -0.08819  -0.114034  0  3.859596  0
C  C65  1  0.23417584  0.08364025  0.00633812  1  0  -0.158978  -0.178966  0  3.877298  0
C  C66  1  0.76582423  0.91636228  0.99366013  1  0  -0.159029  -0.179017  0  3.877411  0
C  C67  1  0.35010663  0.10456154  0.87258450  1  0  -0.087587  -0.114376  0  3.869498  0
C  C68  1  0.64988974  0.89544204  0.12741333  1  0  -0.087631  -0.114574  0  3.869882  0
C  C69  1  0.30673539  0.25512535  0.77477960  1  0  -0.165875  -0.17043  0  3.912318  0
C  C70  1  0.69325493  0.74487930  0.22521656  1  0  -0.165886  -0.170458  0  3.912409  0
C  C71  1  0.31011362  0.36346108  0.83204354  1  0  -0.166854  -0.137751  0  3.948095  0
C  C72  1  0.68987715  0.63654147  0.16795330  1  0  -0.166796  -0.13773  0  3.947984  0
C  C73  1  0.19575025  0.34605871  0.96503197  1  0  -0.169085  -0.168163  0  3.927887  0
C  C74  1  0.80424516  0.65394384  0.03496468  1  0  -0.169024  -0.168112  0  3.927637  0
C  C75  1  0.35403937  0.99762045  0.81183165  1  0  0.233532  0.629338  0  4.0638  0
C  C76  1  0.64595556  0.00237891  0.18816806  1  0  0.233557  0.629449  0  4.063746  0
O  O77  1  0.31850532  0.79412439  0.35969956  1  0  -0.300573  -0.537311  0  2.349406  0
O  O78  1  0.68150731  0.20585705  0.64030440  1  0  -0.30073  -0.53752  0  2.34921  0
O  O79  1  0.06916491  0.79461435  0.48592440  1  0  -0.265102  -0.481398  0  2.232389  0
O  O80  1  0.93083431  0.20539234  0.51407787  1  0  -0.265133  -0.481562  0  2.23252  0
O  O81  1  0.13671142  0.08349535  0.29787952  1  0  -0.288353  -0.552296  0  2.340506  0
O  O82  1  0.86328785  0.91649984  0.70211715  1  0  -0.288311  -0.552291  0  2.340526  0
O  O83  1  0.95881239  0.23530387  0.17468068  1  0  -0.311067  -0.531099  0  2.310352  0
O  O84  1  0.04119094  0.76469975  0.82531463  1  0  -0.311041  -0.531061  0  2.310567  0
O  O85  1  0.48160595  0.95419407  0.74043247  1  0  -0.321462  -0.57253  0  2.379349  0
O  O86  1  0.51839129  0.04580532  0.25956491  1  0  -0.321476  -0.572549  0  2.379323  0
O  O87  1  0.45824479  0.17668219  0.49429943  1  0  -0.295527  -0.541693  0  2.318445  0
O  O88  1  0.54175627  0.82332132  0.50570536  1  0  -0.295447  -0.541529  0  2.318843  0
O  O89  1  0.22710224  0.95312153  0.83363586  1  0  -0.299238  -0.509781  0  2.258841  0
O  O90  1  0.77290331  0.04687151  0.16636460  1  0  -0.299259  -0.509799  0  2.258621  0
O  O91  1  0.59218243  0.30233257  0.29532158  1  0  -0.309311  -0.543248  0  2.335641  0
O  O92  1  0.40782246  0.69766363  0.70467876  1  0  -0.309286  -0.543216  0  2.33549  0
O  O93  1  0.19583809  0.98164439  0.54370681  1  0  -0.498293  -0.810525  0  2.085915  0
O  O94  1  0.80417426  0.01834965  0.45629973  1  0  -0.498251  -0.810514  0  2.085675  0
