# generated using pymatgen
data_AlH21C27(NO)6
_symmetry_space_group_name_H-M   'P 1'
_cell_length_a   3.98472655
_cell_length_b   16.06588291
_cell_length_c   16.07006223
_cell_angle_alpha   119.89217631
_cell_angle_beta   89.95848315
_cell_angle_gamma   89.98131663
_symmetry_Int_Tables_number   1
_chemical_formula_structural   AlH21C27(NO)6
_chemical_formula_sum   'Al1 H21 C27 N6 O6'
_cell_volume   891.91177771
_cell_formula_units_Z   1
loop_
 _symmetry_equiv_pos_site_id
 _symmetry_equiv_pos_as_xyz
  1  'x, y, z'
loop_
 _atom_site_type_symbol
 _atom_site_label
 _atom_site_symmetry_multiplicity
 _atom_site_fract_x
 _atom_site_fract_y
 _atom_site_fract_z
 _atom_site_occupancy
 _atom_site_pbe_bader_charge
 _atom_site_pbe_bader_spin_density
 _atom_site_pbe_cm5_charge
 _atom_site_pbe_ddec_charge
 _atom_site_pbe_ddec_spin_density
 _atom_site_pbe_ddec_sum_bond_order
 _atom_site_pbe_magmom
Al  Al0  1  0.00007637  0.50109616  0.49888513  1  2.501736  0  0.422805  1.58352  0  2.585926  0
H  H1  1  0.49974799  0.92270436  0.07722654  1  0.062135  0  0.095119  0.091651  0  1.034747  0
H  H2  1  0.49336026  0.65538891  0.07732996  1  0.067546  0  0.094703  0.091178  0  1.035413  0
H  H3  1  0.50670314  0.92250260  0.34442474  1  0.07001  0  0.094585  0.091065  0  1.035643  0
H  H4  1  0.79434676  0.05442933  0.16526842  1  0.052488  0  0.095505  0.108241  0  1.02317  0
H  H5  1  0.18881623  0.05252819  0.38684423  1  0.028321  0  0.095622  0.108313  0  1.021921  0
H  H6  1  0.20546288  0.83464702  0.94552046  1  0.053123  0  0.095496  0.108461  0  1.022799  0
H  H7  1  0.81092844  0.61295001  0.94725454  1  0.029798  0  0.095727  0.108337  0  1.021914  0
H  H8  1  0.79898341  0.61215183  0.16463902  1  0.041407  0  0.09631  0.11057  0  1.022048  0
H  H9  1  0.20110275  0.83516556  0.38755730  1  0.043997  0  0.096372  0.110683  0  1.021795  0
H  H10  1  0.04602545  0.30275812  0.51234449  1  0.459482  0  0.291373  0.294268  0  0.986548  0
H  H11  1  0.99893070  0.19877400  0.50971976  1  0.432285  0  0.299576  0.296136  0  0.940675  0
H  H12  1  0.94782400  0.30326107  0.29421055  1  0.458491  0  0.289969  0.290303  0  0.993267  0
H  H13  1  0.98385953  0.20138474  0.19065718  1  0.414569  0  0.298392  0.294714  0  0.941887  0
H  H14  1  0.05233790  0.70583343  0.69676456  1  0.459276  0  0.290008  0.290309  0  0.993582  0
H  H15  1  0.01617563  0.80934964  0.79867752  1  0.414809  0  0.298513  0.295003  0  0.941679  0
H  H16  1  0.95381182  0.48761064  0.69709426  1  0.458346  0  0.291146  0.293713  0  0.987176  0
H  H17  1  0.00078349  0.49008671  0.80097468  1  0.431786  0  0.299581  0.296265  0  0.940327  0
H  H18  1  0.88488280  0.47462514  0.28188691  1  0.475188  0  0.301651  0.311088  0  0.979437  0
H  H19  1  0.98984116  0.48872606  0.18565563  1  0.448987  0  0.307563  0.305807  0  0.935084  0
H  H20  1  0.11544080  0.71812978  0.52527816  1  0.474767  0  0.301721  0.311043  0  0.979686  0
H  H21  1  0.01034284  0.81427233  0.51100936  1  0.449195  0  0.307729  0.306375  0  0.934399  0
C  C22  1  0.50275161  0.57385216  0.64974856  1  1.53983  0  0.284167  0.707691  0  3.993743  0
C  C23  1  0.50016429  0.57521218  0.42473280  1  1.430555  0  0.25728  0.657782  0  4.035235  0
C  C24  1  0.49729755  0.35019835  0.42610674  1  1.541251  0  0.28431  0.708253  0  3.993065  0
C  C25  1  0.50461194  0.78288758  0.06492465  1  0.078237  0  -0.0048  0.08477  0  3.997846  0
C  C26  1  0.49977266  0.88350587  0.11640015  1  -0.198431  0  -0.087356  -0.167209  0  3.91373  0
C  C27  1  0.49514279  0.93494597  0.21699423  1  0.078259  0  -0.004866  0.084773  0  3.997669  0
C  C28  1  0.49668734  0.88342302  0.26624544  1  -0.232419  0  -0.088725  -0.170363  0  3.921792  0
C  C29  1  0.50001626  0.78278191  0.21702478  1  0.241912  0  -0.006622  0.079522  0  3.999518  0
C  C30  1  0.50319948  0.73359198  0.11640624  1  -0.192631  0  -0.088907  -0.170442  0  3.921558  0
C  C31  1  0.66134853  0.19306260  0.28313670  1  0.354695  0  0.08974  0.296908  0  4.116905  0
C  C32  1  0.65249793  0.09244788  0.23202721  1  0.002213  0  -0.12372  -0.296107  0  3.987444  0
C  C33  1  0.49285259  0.04116091  0.27009061  1  -0.020067  0  -0.01015  0.10873  0  4.065245  0
C  C34  1  0.33202034  0.09139694  0.35919823  1  0.102047  0  -0.123502  -0.295027  0  3.984343  0
C  C35  1  0.32541083  0.19209859  0.41036622  1  0.331991  0  0.091885  0.298361  0  4.120332  0
C  C36  1  0.49553565  0.24295411  0.37247555  1  0.002621  0  -0.045995  -0.296014  0  3.906215  0
C  C37  1  0.34737392  0.76788586  0.90750090  1  0.001833  0  -0.124039  -0.296743  0  3.987038  0
C  C38  1  0.33856175  0.71682253  0.80690819  1  0.354904  0  0.089819  0.296974  0  4.116492  0
C  C39  1  0.50437036  0.62746938  0.75696314  1  0.003589  0  -0.046101  -0.296331  0  3.905891  0
C  C40  1  0.67441513  0.58952492  0.80775459  1  0.477427  0  0.091567  0.298344  0  4.120106  0
C  C41  1  0.66777205  0.64064566  0.90843901  1  -0.047681  0  -0.123456  -0.294748  0  3.9842  0
C  C42  1  0.50690911  0.72975862  0.95872030  1  -0.020229  0  -0.01002  0.108573  0  4.064998  0
C  C43  1  0.66076649  0.64069010  0.23197309  1  -0.015069  0  -0.128552  -0.31449  0  3.988019  0
C  C44  1  0.66969530  0.58966991  0.28169296  1  0.412362  0  0.107769  0.328308  0  4.085064  0
C  C45  1  0.50009762  0.62729344  0.37256302  1  0.037376  0  -0.045942  -0.305861  0  3.877155  0
C  C46  1  0.33046200  0.71815268  0.41013509  1  0.366797  0  0.107906  0.32889  0  4.085903  0
C  C47  1  0.33931114  0.76782806  0.35907581  1  0.022257  0  -0.128593  -0.314641  0  3.988333  0
C  C48  1  0.50003667  0.72963197  0.27015272  1  -0.001221  0  -0.002247  0.131129  0  4.063408  0
N  N49  1  0.16364951  0.24084841  0.49896439  1  -1.219688  0  -0.610058  -0.626632  0  3.260252  0
N  N50  1  0.82308939  0.24342327  0.24465696  1  -1.208536  0  -0.61186  -0.628742  0  3.257639  0
N  N51  1  0.17697452  0.75536444  0.75662085  1  -1.209432  0  -0.61199  -0.62895  0  3.258206  0
N  N52  1  0.83614531  0.50092722  0.75896850  1  -1.218402  0  -0.609588  -0.625956  0  3.260725  0
N  N53  1  0.82419552  0.50155757  0.23859082  1  -1.258767  0  -0.598233  -0.617957  0  3.318322  0
N  N54  1  0.17598582  0.76135243  0.49823546  1  -1.256229  0  -0.598446  -0.618726  0  3.318883  0
O  O55  1  0.26078466  0.39363296  0.40907451  1  -1.262768  0  -0.231911  -0.598796  0  2.372731  0
O  O56  1  0.26634580  0.51399857  0.60595412  1  -1.258247  0  -0.231646  -0.595859  0  2.360438  0
O  O57  1  0.27015149  0.59251674  0.48867498  1  -1.283338  0  -0.251612  -0.630924  0  2.403908  0
O  O58  1  0.73364198  0.39398576  0.48596240  1  -1.257697  0  -0.231792  -0.596437  0  2.360273  0
O  O59  1  0.73023357  0.51130944  0.40747473  1  -1.28414  0  -0.251433  -0.630684  0  2.403945  0
O  O60  1  0.73934670  0.59092550  0.60634456  1  -1.262907  0  -0.231747  -0.598412  0  2.372392  0
