# generated using pymatgen
data_Zn2P2H22C19(NO4)2
_symmetry_space_group_name_H-M   'P 1'
_cell_length_a   9.71721399
_cell_length_b   9.94963326
_cell_length_c   22.78002750
_cell_angle_alpha   89.99999800
_cell_angle_beta   90.79644777
_cell_angle_gamma   90.00005769
_symmetry_Int_Tables_number   1
_chemical_formula_structural   Zn2P2H22C19(NO4)2
_chemical_formula_sum   'Zn8 P8 H88 C76 N8 O32'
_cell_volume   2202.22213494
_cell_formula_units_Z   4
loop_
 _symmetry_equiv_pos_site_id
 _symmetry_equiv_pos_as_xyz
  1  'x, y, z'
loop_
 _atom_site_type_symbol
 _atom_site_label
 _atom_site_symmetry_multiplicity
 _atom_site_fract_x
 _atom_site_fract_y
 _atom_site_fract_z
 _atom_site_occupancy
 _atom_site_pbe_bader_charge
 _atom_site_pbe_bader_spin_density
 _atom_site_pbe_cm5_charge
 _atom_site_pbe_ddec_charge
 _atom_site_pbe_ddec_spin_density
 _atom_site_pbe_ddec_sum_bond_order
 _atom_site_pbe_magmom
Zn  Zn0  1  0.10761945  0.31767709  0.01074651  1  1.311004  0  0.718437  0.94057  0  2.346891  0
Zn  Zn1  1  0.39237977  0.81767753  0.98925257  1  1.311028  0  0.718451  0.940592  0  2.346902  0
Zn  Zn2  1  0.89237950  0.68232304  0.98925364  1  1.311007  0  0.718435  0.940583  0  2.346905  0
Zn  Zn3  1  0.60762124  0.18232260  0.01074673  1  1.311044  0  0.718456  0.94061  0  2.346885  0
Zn  Zn4  1  0.34502080  0.35892494  0.50431902  1  1.303045  0  0.718427  0.934262  0  2.331677  0
Zn  Zn5  1  0.15497845  0.85892619  0.49568094  1  1.303049  0  0.718431  0.934279  0  2.331671  0
Zn  Zn6  1  0.65497815  0.64107318  0.49568069  1  1.303041  0  0.718439  0.934302  0  2.331647  0
Zn  Zn7  1  0.84502255  0.14107394  0.50431923  1  1.303031  0  0.718451  0.934322  0  2.331694  0
P  P8  1  0.63209936  0.33497043  0.44463571  1  3.370954  0  0.277176  1.192421  0  5.481952  0
P  P9  1  0.86790051  0.83497088  0.55536420  1  3.37091  0  0.277216  1.192479  0  5.481899  0
P  P10  1  0.36790062  0.66502768  0.55536401  1  3.371047  0  0.277235  1.19257  0  5.481793  0
P  P11  1  0.13209946  0.16502924  0.44463596  1  3.371052  0  0.277219  1.192543  0  5.481832  0
P  P12  1  0.82612258  0.41360962  0.06170147  1  3.371863  0  0.282323  1.204425  0  5.493898  0
P  P13  1  0.67387738  0.91360985  0.93829844  1  3.371857  0  0.282293  1.204378  0  5.493835  0
P  P14  1  0.17387637  0.58639050  0.93829824  1  3.371861  0  0.282308  1.204434  0  5.493873  0
P  P15  1  0.32612157  0.08639028  0.06170127  1  3.371857  0  0.282281  1.204371  0  5.493923  0
H  H16  1  0.51660597  0.43754198  0.60597744  1  0.136247  0  0.113861  0.080945  0  1.047713  0
H  H17  1  0.98339504  0.93754256  0.39402204  1  0.136245  0  0.113862  0.08093  0  1.047781  0
H  H18  1  0.48339402  0.56245814  0.39402184  1  0.136249  0  0.113863  0.08091  0  1.047789  0
H  H19  1  0.01660596  0.06245857  0.60597769  1  0.136256  0  0.11386  0.080946  0  1.047732  0
H  H20  1  0.66916886  0.32808074  0.67897202  1  0.098426  0  0.103841  0.112007  0  1.048303  0
H  H21  1  0.83083205  0.82808016  0.32102703  1  0.098421  0  0.103833  0.111965  0  1.048321  0
H  H22  1  0.33083112  0.67192039  0.32102727  1  0.098422  0  0.10384  0.112011  0  1.048279  0
H  H23  1  0.16916793  0.17192096  0.67897269  1  0.098437  0  0.10384  0.111977  0  1.048308  0
H  H24  1  0.54322315  0.94531448  0.60612190  1  0.08667  0  0.114332  0.130911  0  1.001055  0
H  H25  1  0.95677684  0.44531436  0.39387801  1  0.086673  0  0.114337  0.130929  0  1.001022  0
H  H26  1  0.45677579  0.05468564  0.39387825  1  0.086674  0  0.114305  0.130874  0  1.001033  0
H  H27  1  0.04322418  0.55468677  0.60612128  1  0.086663  0  0.114341  0.130938  0  1.001023  0
H  H28  1  0.38870162  0.07054247  0.53737777  1  0.146829  0  0.119368  0.104734  0  1.018191  0
H  H29  1  0.11129836  0.57054267  0.46262220  1  0.14683  0  0.119371  0.10473  0  1.01819  0
H  H30  1  0.61129835  0.92945766  0.46262239  1  0.14682  0  0.119382  0.104755  0  1.018162  0
H  H31  1  0.88870266  0.42945745  0.53737709  1  0.146823  0  0.119386  0.104722  0  1.018139  0
H  H32  1  0.81108347  0.02428669  0.66397213  1  0.030328  0  0.096267  0.097443  0  1.006332  0
H  H33  1  0.68891712  0.52428699  0.33602779  1  0.030325  0  0.096267  0.097447  0  1.006343  0
H  H34  1  0.18891652  0.97571343  0.33602715  1  0.030229  0  0.096263  0.097429  0  1.006355  0
H  H35  1  0.31108286  0.47571414  0.66397237  1  0.030327  0  0.096266  0.097437  0  1.006349  0
H  H36  1  0.67143664  0.95417014  0.70044953  1  0.073803  0  0.103292  0.116577  0  1.008178  0
H  H37  1  0.82856336  0.45416990  0.29955039  1  0.07379  0  0.103297  0.116605  0  1.008164  0
H  H38  1  0.32856436  0.04582998  0.29955064  1  0.073779  0  0.103308  0.116605  0  1.008174  0
H  H39  1  0.17143662  0.54583022  0.70044977  1  0.073787  0  0.103304  0.1166  0  1.008145  0
H  H40  1  0.81164505  0.22244676  0.73366274  1  0.017369  0  0.086077  0.074287  0  1.01545  0
H  H41  1  0.68835470  0.72244605  0.26633762  1  0.017373  0  0.086082  0.074296  0  1.015446  0
H  H42  1  0.18835492  0.77755336  0.26633742  1  0.017382  0  0.086081  0.074269  0  1.015473  0
H  H43  1  0.31164321  0.27755307  0.73366297  1  0.017376  0  0.086075  0.074248  0  1.015493  0
H  H44  1  0.67220163  0.14842788  0.77115465  1  0.041642  0  0.091845  0.092154  0  0.985104  0
H  H45  1  0.82779806  0.64842731  0.22884482  1  0.041645  0  0.091852  0.092155  0  0.985114  0
H  H46  1  0.32779938  0.85157224  0.22884508  1  0.041625  0  0.091841  0.092159  0  0.985091  0
H  H47  1  0.17219987  0.35157281  0.77115444  1  0.041628  0  0.091826  0.092121  0  0.985115  0
H  H48  1  0.82091717  0.94365425  0.79154853  1  0.075254  0  0.100452  0.110203  0  0.999767  0
H  H49  1  0.67908386  0.44365386  0.20845096  1  0.075246  0  0.100451  0.110181  0  0.999761  0
H  H50  1  0.17908385  0.05634587  0.20845077  1  0.075238  0  0.100461  0.110217  0  0.999784  0
H  H51  1  0.32091509  0.55634525  0.79154919  1  0.075244  0  0.100464  0.110222  0  0.999788  0
H  H52  1  0.95747859  0.01860113  0.75531215  1  0.055667  0  0.100372  0.110653  0  0.974944  0
H  H53  1  0.54252096  0.51860028  0.24468777  1  0.055673  0  0.10036  0.110631  0  0.974956  0
H  H54  1  0.04252242  0.98140000  0.24468759  1  0.055685  0  0.10038  0.110661  0  0.974959  0
H  H55  1  0.45747695  0.48139884  0.75531281  1  0.055699  0  0.100366  0.110664  0  0.974985  0
H  H56  1  0.79709811  0.29158497  0.83158189  1  0.100973  0  0.109451  0.118375  0  1.017647  0
H  H57  1  0.70290070  0.79158630  0.16841757  1  0.100974  0  0.109458  0.118385  0  1.017676  0
H  H58  1  0.20290291  0.70841414  0.16841740  1  0.10096  0  0.109458  0.118383  0  1.017655  0
H  H59  1  0.29709619  0.20841382  0.83158256  1  0.100947  0  0.109454  0.118381  0  1.017668  0
H  H60  1  0.89090269  0.38491911  0.92434184  1  0.136407  0  0.117953  0.085727  0  1.033086  0
H  H61  1  0.60909621  0.88491935  0.07565806  1  0.136413  0  0.117951  0.085738  0  1.033081  0
H  H62  1  0.10909832  0.61508202  0.07565789  1  0.136411  0  0.117951  0.08574  0  1.033069  0
H  H63  1  0.39090273  0.11508078  0.92434209  1  0.13639  0  0.117948  0.085715  0  1.033106  0
H  H64  1  0.04610177  0.93790893  0.86304020  1  0.076496  0  0.111781  0.128557  0  1.004765  0
H  H65  1  0.45389755  0.43790782  0.13696019  1  0.076487  0  0.111777  0.128557  0  1.004757  0
H  H66  1  0.95389715  0.06208918  0.13696127  1  0.076505  0  0.111789  0.128568  0  1.004775  0
H  H67  1  0.54610243  0.56208929  0.86303909  1  0.07651  0  0.111771  0.128552  0  1.004775  0
H  H68  1  0.13283809  0.04709523  0.95460536  1  0.154845  0  0.117457  0.103219  0  1.035998  0
H  H69  1  0.36716187  0.54709472  0.04539461  1  0.154833  0  0.117453  0.103197  0  1.036028  0
H  H70  1  0.86716085  0.95290389  0.04539523  1  0.15486  0  0.117454  0.103243  0  1.036009  0
H  H71  1  0.63283811  0.45290440  0.95460511  1  0.154862  0  0.117461  0.103242  0  1.035995  0
H  H72  1  0.68299166  0.33447597  0.38698221  1  -0.461657  0  0.091689  -0.107996  0  0.996125  0
H  H73  1  0.81700822  0.83447737  0.61301771  1  -0.461658  0  0.091689  -0.108012  0  0.996146  0
H  H74  1  0.31700832  0.66552215  0.61301752  1  -0.461653  0  0.091684  -0.108024  0  0.99613  0
H  H75  1  0.18299176  0.16552376  0.38698201  1  -0.461665  0  0.091687  -0.108021  0  0.996137  0
H  H76  1  0.78723504  0.47375955  0.11479970  1  -0.449906  0  0.0894  -0.11321  0  1.007189  0
H  H77  1  0.71276498  0.97376083  0.88520022  1  -0.449913  0  0.08942  -0.113164  0  1.007139  0
H  H78  1  0.21276390  0.52624057  0.88520045  1  -0.449907  0  0.089418  -0.113182  0  1.007175  0
H  H79  1  0.28723397  0.02624030  0.11479994  1  -0.449912  0  0.089409  -0.113189  0  1.007148  0
H  H80  1  0.22614457  0.29870559  0.14804184  1  0.120343  0  0.098051  0.12087  0  1.045069  0
H  H81  1  0.27385565  0.79870592  0.85195769  1  0.120336  0  0.098038  0.120865  0  1.045083  0
H  H82  1  0.77385540  0.70129454  0.85195832  1  0.120339  0  0.098048  0.120846  0  1.045082  0
H  H83  1  0.72614227  0.20129521  0.14804201  1  0.120214  0  0.098019  0.120854  0  1.045055  0
H  H84  1  0.40481784  0.20577762  0.21628218  1  0.086358  0  0.099888  0.115107  0  1.041835  0
H  H85  1  0.09518228  0.70577879  0.78371779  1  0.086388  0  0.099898  0.115119  0  1.041824  0
H  H86  1  0.59518213  0.79422049  0.78371798  1  0.086398  0  0.099906  0.115128  0  1.041799  0
H  H87  1  0.90481667  0.29422133  0.21628192  1  0.08638  0  0.099908  0.115135  0  1.0418  0
H  H88  1  0.24878539  0.45055641  0.35619537  1  0.06453  0  0.098745  0.112123  0  1.018333  0
H  H89  1  0.25121601  0.95055674  0.64380504  1  0.064534  0  0.098759  0.112142  0  1.018344  0
H  H90  1  0.75121664  0.54944371  0.64380481  1  0.064528  0  0.098746  0.11212  0  1.018357  0
H  H91  1  0.74878397  0.04944238  0.35619512  1  0.064525  0  0.09875  0.112132  0  1.018354  0
H  H92  1  0.07429052  0.54714079  0.28724632  1  0.068497  0  0.095054  0.103168  0  1.045518  0
H  H93  1  0.42571047  0.04714262  0.71275366  1  0.068485  0  0.095054  0.103158  0  1.045486  0
H  H94  1  0.92571152  0.45285832  0.71275342  1  0.068481  0  0.09506  0.103156  0  1.045494  0
H  H95  1  0.57428848  0.95285650  0.28724649  1  0.068464  0  0.095049  0.103141  0  1.045493  0
H  H96  1  0.02977708  0.43534771  0.14020973  1  0.635226  0  0.298748  0.351294  0  0.980178  0
H  H97  1  0.47022328  0.93534723  0.85979023  1  0.635226  0  0.298766  0.351315  0  0.98013  0
H  H98  1  0.97022289  0.56465342  0.85979043  1  0.635218  0  0.298755  0.351285  0  0.980171  0
H  H99  1  0.52977567  0.06465289  0.14020992  1  0.635232  0  0.298753  0.351287  0  0.980172  0
H  H100  1  0.43351774  0.30165353  0.36653325  1  0.647455  0  0.295429  0.343539  0  0.996169  0
H  H101  1  0.06648248  0.80165468  0.63346672  1  0.647442  0  0.295413  0.343499  0  0.996205  0
H  H102  1  0.56648326  0.69834559  0.63346692  1  0.647453  0  0.295434  0.34353  0  0.996153  0
H  H103  1  0.93351853  0.19834343  0.36653301  1  0.647446  0  0.295448  0.343599  0  0.996051  0
C  C104  1  0.52283655  0.32827062  0.60834981  1  0.454919  0  0.042752  0.097053  0  3.959646  0
C  C105  1  0.97716538  0.82827019  0.39164968  1  0.454978  0  0.042716  0.09701  0  3.959636  0
C  C106  1  0.47716343  0.67172950  0.39164947  1  0.454975  0  0.042754  0.097113  0  3.95959  0
C  C107  1  0.02283563  0.17172993  0.60835005  1  0.454988  0  0.042735  0.09706  0  3.959577  0
C  C108  1  0.61036771  0.26554875  0.64847090  1  -0.062581  0  -0.087952  -0.186534  0  3.929054  0
C  C109  1  0.88963416  0.76554824  0.35152816  1  -0.062474  0  -0.087923  -0.186449  0  3.928927  0
C  C110  1  0.38963330  0.73445237  0.35152840  1  -0.062496  0  -0.087935  -0.186513  0  3.928933  0
C  C111  1  0.11036685  0.23445289  0.64847157  1  -0.06255  0  -0.087944  -0.186502  0  3.928961  0
C  C112  1  0.62253492  0.12525716  0.64848735  1  -0.056816  0  0.020274  0.171939  0  3.919703  0
C  C113  1  0.87746577  0.62525663  0.35151257  1  -0.057135  0  0.02029  0.17195  0  3.91965  0
C  C114  1  0.37746608  0.87474297  0.35151282  1  -0.057141  0  0.020287  0.171946  0  3.919695  0
C  C115  1  0.12253524  0.37474450  0.64848716  1  -0.057142  0  0.02031  0.171989  0  3.919681  0
C  C116  1  0.54058712  0.05470879  0.60758853  1  0.008379  0  -0.073871  -0.161849  0  3.896472  0
C  C117  1  0.95941349  0.55470934  0.39241183  1  0.008711  0  -0.07385  -0.161827  0  3.896439  0
C  C118  1  0.45941285  0.94529033  0.39241207  1  0.008693  0  -0.073857  -0.161838  0  3.896445  0
C  C119  1  0.04058752  0.44529078  0.60758746  1  0.008766  0  -0.073892  -0.161912  0  3.896516  0
C  C120  1  0.45355442  0.12339269  0.56928963  1  0.465555  0  0.050977  0.110282  0  3.905739  0
C  C121  1  0.04644562  0.62339283  0.43071034  1  0.465533  0  0.05095  0.110245  0  3.905731  0
C  C122  1  0.54644453  0.87660744  0.43071052  1  0.46554  0  0.050946  0.110277  0  3.905657  0
C  C123  1  0.95355642  0.37660830  0.56928940  1  0.465532  0  0.050968  0.110326  0  3.905716  0
C  C124  1  0.71895207  0.05100120  0.68929485  1  0.001939  0  -0.157286  -0.209247  0  3.925365  0
C  C125  1  0.78104854  0.55099958  0.31070507  1  0.001827  0  -0.157322  -0.209331  0  3.925432  0
C  C126  1  0.28104996  0.94900093  0.31070532  1  0.001948  0  -0.157326  -0.209312  0  3.92546  0
C  C127  1  0.21895145  0.44900055  0.68929421  1  0.001826  0  -0.157325  -0.209333  0  3.9254  0
C  C128  1  0.76384680  0.12564216  0.74497124  1  -0.015938  0  -0.165473  -0.134746  0  3.943051  0
C  C129  1  0.73615285  0.62564150  0.25502911  1  -0.01593  0  -0.165464  -0.134728  0  3.943064  0
C  C130  1  0.23615420  0.87435897  0.25502849  1  -0.01592  0  -0.165463  -0.134687  0  3.94301  0
C  C131  1  0.26384610  0.37435762  0.74497104  1  -0.015921  0  -0.165433  -0.134602  0  3.942982  0
C  C132  1  0.86586465  0.04267332  0.78147168  1  -0.02206  0  -0.154985  -0.202545  0  3.923061  0
C  C133  1  0.63413596  0.54267357  0.21852780  1  -0.022057  0  -0.154945  -0.202457  0  3.923052  0
C  C134  1  0.13413739  0.95732680  0.21852762  1  -0.022058  0  -0.15498  -0.202567  0  3.923142  0
C  C135  1  0.36586299  0.45732655  0.78147235  1  -0.022063  0  -0.154995  -0.202607  0  3.923142  0
C  C136  1  0.91467745  0.10585557  0.83806883  1  -0.040639  0  0.020309  0.17356  0  3.922224  0
C  C137  1  0.58532218  0.60585578  0.16193153  1  -0.040661  0  0.020262  0.173469  0  3.922302  0
C  C138  1  0.08532355  0.89414354  0.16193134  1  -0.040646  0  0.020273  0.17352  0  3.922286  0
C  C139  1  0.41467677  0.39414334  0.83806862  1  -0.040647  0  0.020266  0.173505  0  3.922312  0
C  C140  1  0.87030499  0.23209236  0.85714031  1  -0.050291  0  -0.083392  -0.178191  0  3.926816  0
C  C141  1  0.62969478  0.73209261  0.14286005  1  -0.050292  0  -0.08339  -0.178166  0  3.926819  0
C  C142  1  0.12969602  0.76790675  0.14285986  1  -0.050313  0  -0.083393  -0.178168  0  3.926843  0
C  C143  1  0.37030314  0.26790650  0.85714010  1  -0.050292  0  -0.083391  -0.17817  0  3.926781  0
C  C144  1  0.92283045  0.28615066  0.90903911  1  0.494692  0  0.047716  0.104391  0  3.951389  0
C  C145  1  0.57716834  0.78614986  0.09096080  1  0.494708  0  0.047708  0.104335  0  3.951473  0
C  C146  1  0.07717056  0.71385047  0.09096062  1  0.49469  0  0.047714  0.104357  0  3.951448  0
C  C147  1  0.42282956  0.21384825  0.90903978  1  0.494684  0  0.047705  0.104358  0  3.951449  0
C  C148  1  0.00910388  0.03763151  0.87474665  1  0.006871  0  -0.080346  -0.177124  0  3.916492  0
C  C149  1  0.49089607  0.53763211  0.12525376  1  0.006891  0  -0.080294  -0.177055  0  3.916398  0
C  C150  1  0.99089609  0.96236761  0.12525395  1  0.006873  0  -0.080312  -0.177065  0  3.916382  0
C  C151  1  0.50910391  0.46236701  0.87474596  1  0.006873  0  -0.080293  -0.177048  0  3.91641  0
C  C152  1  0.05796605  0.09726589  0.92589328  1  0.406792  0  0.04197  0.092799  0  3.927124  0
C  C153  1  0.44203293  0.59726645  0.07410668  1  0.407012  0  0.041988  0.092852  0  3.927011  0
C  C154  1  0.94203392  0.90273323  0.07410732  1  0.406803  0  0.041944  0.092719  0  3.927015  0
C  C155  1  0.55796603  0.40273267  0.92589259  1  0.4068  0  0.041933  0.092703  0  3.927146  0
C  C156  1  0.13823487  0.42916161  0.21368512  1  0.448077  0  0.058811  0.285126  0  4.116787  0
C  C157  1  0.36176549  0.92916304  0.78631441  1  0.448008  0  0.058779  0.285127  0  4.116819  0
C  C158  1  0.86176511  0.57083751  0.78631460  1  0.448027  0  0.0588  0.285084  0  4.116686  0
C  C159  1  0.63823346  0.07083608  0.21368574  1  0.448013  0  0.058842  0.285174  0  4.11667  0
C  C160  1  0.23206533  0.33336415  0.19349401  1  -0.045458  0  -0.11882  -0.223776  0  4.031074  0
C  C161  1  0.26793492  0.83336448  0.80650640  1  -0.045451  0  -0.118811  -0.223796  0  4.031053  0
C  C162  1  0.76793465  0.66663597  0.80650615  1  -0.045468  0  -0.11878  -0.223678  0  4.031038  0
C  C163  1  0.73206403  0.16663564  0.19349375  1  -0.045321  0  -0.118828  -0.223772  0  4.030946  0
C  C164  1  0.33233422  0.28123967  0.23157324  1  -0.067907  0  -0.113649  -0.193006  0  4.011598  0
C  C165  1  0.16766598  0.78123990  0.76842672  1  -0.067921  0  -0.113638  -0.192988  0  4.011574  0
C  C166  1  0.66766678  0.71875945  0.76842693  1  -0.067933  0  -0.113704  -0.193072  0  4.011681  0
C  C167  1  0.83233296  0.21875922  0.23157343  1  -0.067897  0  -0.113676  -0.193055  0  4.011644  0
C  C168  1  0.33947561  0.32266330  0.29032511  1  0.442943  0  0.059123  0.282219  0  4.126793  0
C  C169  1  0.16052463  0.82266354  0.70967485  1  0.442957  0  0.059137  0.282264  0  4.126756  0
C  C170  1  0.66052540  0.67733581  0.70967506  1  0.442963  0  0.059135  0.282205  0  4.126786  0
C  C171  1  0.83947535  0.17733558  0.29032487  1  0.442955  0  0.059109  0.282187  0  4.126786  0
C  C172  1  0.24683217  0.41999951  0.31016084  1  -0.041808  0  -0.118916  -0.22257  0  4.051097  0
C  C173  1  0.25316817  0.92000084  0.68983912  1  -0.041801  0  -0.118985  -0.222699  0  4.051042  0
C  C174  1  0.75316987  0.57999961  0.68983890  1  -0.041813  0  -0.118937  -0.222616  0  4.051136  0
C  C175  1  0.74683077  0.07999828  0.31016103  1  -0.041801  0  -0.118977  -0.22268  0  4.050967  0
C  C176  1  0.14828168  0.47358234  0.27177781  1  -0.031294  0  -0.115172  -0.189192  0  4.031945  0
C  C177  1  0.35171870  0.97358276  0.72822303  1  -0.03131  0  -0.1151  -0.18906  0  4.031894  0
C  C178  1  0.85171932  0.52641778  0.72822236  1  -0.031308  0  -0.115173  -0.189139  0  4.031931  0
C  C179  1  0.64828127  0.02641636  0.27177713  1  -0.031314  0  -0.115076  -0.189028  0  4.031816  0
N  N180  1  0.44467038  0.25919166  0.56936400  1  -1.259837  0  -0.338894  -0.279599  0  3.621923  0
N  N181  1  0.05532981  0.75919081  0.43063509  1  -1.25989  0  -0.338862  -0.279547  0  3.621906  0
N  N182  1  0.55532961  0.74080847  0.43063528  1  -1.259869  0  -0.338889  -0.279654  0  3.621889  0
N  N183  1  0.94467019  0.24080831  0.56936375  1  -1.259879  0  -0.338892  -0.279636  0  3.621944  0
N  N184  1  0.01693437  0.22155487  0.94267149  1  -1.272552  0  -0.339459  -0.281215  0  3.621455  0
N  N185  1  0.48306576  0.72155447  0.05732892  1  -1.272774  0  -0.339508  -0.281266  0  3.621597  0
N  N186  1  0.98306663  0.77844525  0.05732868  1  -1.272543  0  -0.339455  -0.281188  0  3.621424  0
N  N187  1  0.51693319  0.27844465  0.94267123  1  -1.272558  0  -0.339418  -0.281136  0  3.621515  0
O  O188  1  0.98119990  0.38279851  0.07173507  1  -1.438322  0  -0.379681  -0.73102  0  2.384865  0
O  O189  1  0.51880105  0.88279858  0.92826529  1  -1.438345  0  -0.379663  -0.730993  0  2.384877  0
O  O190  1  0.01879905  0.61720061  0.92826508  1  -1.438359  0  -0.379671  -0.731029  0  2.384899  0
O  O191  1  0.48119893  0.11720053  0.07173443  1  -1.438332  0  -0.379655  -0.730999  0  2.384848  0
O  O192  1  0.47378975  0.34945129  0.43632213  1  -1.428032  0  -0.377304  -0.736078  0  2.381247  0
O  O193  1  0.02620949  0.84945341  0.56367783  1  -1.42803  0  -0.37732  -0.73609  0  2.381248  0
O  O194  1  0.52620920  0.65054683  0.56367758  1  -1.428031  0  -0.377317  -0.736114  0  2.381214  0
O  O195  1  0.97379152  0.15054571  0.43632190  1  -1.428032  0  -0.377306  -0.736128  0  2.381217  0
O  O196  1  0.66968216  0.19968104  0.47254399  1  -1.442981  0  -0.382527  -0.704568  0  2.364396  0
O  O197  1  0.83031860  0.69968145  0.52745593  1  -1.442937  0  -0.382516  -0.704574  0  2.364398  0
O  O198  1  0.33031884  0.80031808  0.52745618  1  -1.44307  0  -0.382546  -0.704617  0  2.364343  0
O  O199  1  0.16968035  0.30031767  0.47254378  1  -1.443094  0  -0.382546  -0.704594  0  2.364362  0
O  O200  1  0.69679351  0.45432260  0.47730829  1  -1.459041  0  -0.386275  -0.737593  0  2.409979  0
O  O201  1  0.80320546  0.95432399  0.52269162  1  -1.459044  0  -0.386299  -0.737643  0  2.409986  0
O  O202  1  0.30320545  0.54567753  0.52269099  1  -1.459065  0  -0.386278  -0.737639  0  2.409997  0
O  O203  1  0.19679451  0.04567714  0.47730854  1  -1.459054  0  -0.386284  -0.737639  0  2.409963  0
O  O204  1  0.74192840  0.28530535  0.05456521  1  -1.458556  0  -0.386877  -0.718879  0  2.4072  0
O  O205  1  0.75807245  0.78530667  0.94543471  1  -1.458546  0  -0.386853  -0.718876  0  2.407225  0
O  O206  1  0.25807054  0.71469377  0.94543494  1  -1.458547  0  -0.386851  -0.718851  0  2.407199  0
O  O207  1  0.24192856  0.21469245  0.05456502  1  -1.458552  0  -0.386845  -0.718838  0  2.407218  0
O  O208  1  0.79902586  0.51479525  0.01195179  1  -1.452603  0  -0.383226  -0.737211  0  2.39111  0
O  O209  1  0.70097574  0.01479482  0.98804815  1  -1.452605  0  -0.383267  -0.737258  0  2.390994  0
O  O210  1  0.20097411  0.48520488  0.98804837  1  -1.452585  0  -0.383276  -0.737295  0  2.39102  0
O  O211  1  0.29902423  0.98520430  0.01195202  1  -1.452612  0  -0.383248  -0.737223  0  2.391046  0
O  O212  1  0.43584276  0.26343303  0.32612857  1  -1.198784  0  -0.373354  -0.484389  0  2.360651  0
O  O213  1  0.06415743  0.76343518  0.67387052  1  -1.19877  0  -0.373338  -0.484362  0  2.360632  0
O  O214  1  0.56415825  0.73656609  0.67387116  1  -1.198756  0  -0.373343  -0.484335  0  2.360612  0
O  O215  1  0.93584153  0.23656394  0.32612876  1  -1.198745  0  -0.373349  -0.484404  0  2.360508  0
O  O216  1  0.03370151  0.47995941  0.17942365  1  -1.183303  0  -0.37422  -0.490439  0  2.353682  0
O  O217  1  0.46629888  0.97996094  0.82057675  1  -1.183252  0  -0.374242  -0.490494  0  2.353614  0
O  O218  1  0.96630051  0.52003971  0.82057696  1  -1.183251  0  -0.374225  -0.490428  0  2.353553  0
O  O219  1  0.53370007  0.02003918  0.17942296  1  -1.183279  0  -0.374257  -0.49049  0  2.35362  0
