# generated using pymatgen
data_CuH3C4IN
_symmetry_space_group_name_H-M   'P 1'
_cell_length_a   4.34269395
_cell_length_b   13.47092076
_cell_length_c   17.43039408
_cell_angle_alpha   90.00008015
_cell_angle_beta   90.00020487
_cell_angle_gamma   93.67771160
_symmetry_Int_Tables_number   1
_chemical_formula_structural   CuH3C4IN
_chemical_formula_sum   'Cu8 H24 C32 I8 N8'
_cell_volume   1017.57967399
_cell_formula_units_Z   8
loop_
 _symmetry_equiv_pos_site_id
 _symmetry_equiv_pos_as_xyz
  1  'x, y, z'
loop_
 _atom_site_type_symbol
 _atom_site_label
 _atom_site_symmetry_multiplicity
 _atom_site_fract_x
 _atom_site_fract_y
 _atom_site_fract_z
 _atom_site_occupancy
 _atom_site_hle17_bader_spin_density
 _atom_site_hle17_ddec_charge
 _atom_site_hle17_ddec_spin_density
 _atom_site_hle17_ddec_sum_bond_order
 _atom_site_hle17_magmom
 _atom_site_hse06_10hf_bader_spin_density
 _atom_site_hse06_10hf_ddec_charge
 _atom_site_hse06_10hf_ddec_spin_density
 _atom_site_hse06_10hf_ddec_sum_bond_order
 _atom_site_hse06_10hf_magmom
 _atom_site_hse06_bader_spin_density
 _atom_site_hse06_ddec_charge
 _atom_site_hse06_ddec_spin_density
 _atom_site_hse06_ddec_sum_bond_order
 _atom_site_hse06_magmom
 _atom_site_pbe_bader_spin_density
 _atom_site_pbe_cm5_charge
 _atom_site_pbe_ddec_charge
 _atom_site_pbe_ddec_spin_density
 _atom_site_pbe_ddec_sum_bond_order
 _atom_site_pbe_magmom
Cu  Cu0  1  0.36061476  0.18719946  0.43597262  1  0  0.2742  0  2.103875  0  0  0.197266  0  2.564439  0  0  0.206252  0  2.514665  0  0  0.267749  0.1934  0  2.596834  0
Cu  Cu1  1  0.13938198  0.31280172  0.93597276  1  0  0.274233  0  2.103865  0  0  0.197261  0  2.56444  0  0  0.206277  0  2.514653  0  0  0.267742  0.19339  0  2.596835  0
Cu  Cu2  1  0.63938458  0.81280108  0.56402814  1  0  0.274235  0  2.103888  0  0  0.197254  0  2.564478  0  0  0.20628  0  2.514677  0  0  0.267747  0.193393  0  2.596873  0
Cu  Cu3  1  0.86060613  0.68720030  0.06402743  1  0  0.274211  0  2.103922  0  0  0.197261  0  2.564498  0  0  0.206253  0  2.514717  0  0  0.267771  0.193397  0  2.596891  0
Cu  Cu4  1  0.02705749  0.26044732  0.32552234  1  0  0.265002  0  2.129186  0  0  0.189966  0  2.586066  0  0  0.197576  0  2.53797  0  0  0.27002  0.187618  0  2.61681  0
Cu  Cu5  1  0.47293725  0.23955139  0.82552213  1  0  0.265013  0  2.129148  0  0  0.189974  0  2.58601  0  0  0.197587  0  2.537903  0  0  0.270016  0.187623  0  2.616748  0
Cu  Cu6  1  0.97293901  0.73955024  0.67447785  1  0  0.264967  0  2.129227  0  0  0.189947  0  2.586078  0  0  0.19755  0  2.537968  0  0  0.270019  0.187602  0  2.616822  0
Cu  Cu7  1  0.52706007  0.76045063  0.17447806  1  0  0.265011  0  2.129159  0  0  0.189982  0  2.586062  0  0  0.197595  0  2.537935  0  0  0.270031  0.187633  0  2.616804  0
H  H8  1  0.73609741  0.10867927  0.70481349  1  0  0.087627  0  0.946015  0  0  0.093011  0  1.016811  0  0  0.096621  0  1.013737  0  0  0.104446  0.090286  0  1.019278  0
H  H9  1  0.76390417  0.39131940  0.20481463  1  0  0.087688  0  0.945975  0  0  0.093048  0  1.016787  0  0  0.096656  0  1.013713  0  0  0.104445  0.090324  0  1.019258  0
H  H10  1  0.26391129  0.89132203  0.29518670  1  0  0.087581  0  0.946058  0  0  0.093009  0  1.016822  0  0  0.096623  0  1.013741  0  0  0.10446  0.090286  0  1.019291  0
H  H11  1  0.23608772  0.60867816  0.79518670  1  0  0.087611  0  0.946057  0  0  0.093007  0  1.016851  0  0  0.096617  0  1.013773  0  0  0.104458  0.090284  0  1.01932  0
H  H12  1  0.68071950  0.08753688  0.56290272  1  0  0.082089  0  0.967047  0  0  0.086221  0  1.041571  0  0  0.08975  0  1.038332  0  0  0.096316  0.08337  0  1.044424  0
H  H13  1  0.81927570  0.41246297  0.06290394  1  0  0.082061  0  0.967026  0  0  0.086182  0  1.041565  0  0  0.089711  0  1.038326  0  0  0.096298  0.08333  0  1.044423  0
H  H14  1  0.31928662  0.91246293  0.43709747  1  0  0.082097  0  0.967045  0  0  0.086233  0  1.041556  0  0  0.089765  0  1.038313  0  0  0.096328  0.083384  0  1.04441  0
H  H15  1  0.18071429  0.58753681  0.93709740  1  0  0.082112  0  0.967047  0  0  0.086248  0  1.041564  0  0  0.089778  0  1.038324  0  0  0.096328  0.0834  0  1.044418  0
H  H16  1  0.01833700  0.32617946  0.48594215  1  0  0.084289  0  1.027551  0  0  0.088096  0  1.107279  0  0  0.094031  0  1.100755  0  0  0.076261  0.083279  0  1.112623  0
H  H17  1  0.48166046  0.17382182  0.98594245  1  0  0.084241  0  1.027545  0  0  0.088051  0  1.107272  0  0  0.093987  0  1.100747  0  0  0.076254  0.083231  0  1.112618  0
H  H18  1  0.98166221  0.67382033  0.51405918  1  0  0.084251  0  1.027563  0  0  0.08806  0  1.107289  0  0  0.093995  0  1.100768  0  0  0.076256  0.083255  0  1.112628  0
H  H19  1  0.51833672  0.82617946  0.01405659  1  0  0.084145  0  1.02765  0  0  0.088002  0  1.107324  0  0  0.093937  0  1.100802  0  0  0.076249  0.083182  0  1.112671  0
H  H20  1  0.76153083  0.46094633  0.55314701  1  0  0.094407  0  0.953815  0  0  0.101884  0  1.020425  0  0  0.105024  0  1.019349  0  0  0.091196  0.099552  0  1.021329  0
H  H21  1  0.73847129  0.03905425  0.05314603  1  0  0.094421  0  0.953826  0  0  0.101872  0  1.020457  0  0  0.105008  0  1.019391  0  0  0.091191  0.09954  0  1.021356  0
H  H22  1  0.23846825  0.53905272  0.44685432  1  0  0.094403  0  0.953779  0  0  0.101879  0  1.020395  0  0  0.105022  0  1.01931  0  0  0.091188  0.099547  0  1.021298  0
H  H23  1  0.26153308  0.96094853  0.94685244  1  0  0.094397  0  0.95376  0  0  0.10186  0  1.020398  0  0  0.105009  0  1.019301  0  0  0.091177  0.099523  0  1.021309  0
H  H24  1  0.82981203  0.48463904  0.69387135  1  0  0.086723  0  0.973493  0  0  0.093734  0  1.042529  0  0  0.096895  0  1.04098  0  0  0.083783  0.091242  0  1.043992  0
H  H25  1  0.67019197  0.01536110  0.19387029  1  0  0.08669  0  0.973465  0  0  0.093689  0  1.042513  0  0  0.09685  0  1.040962  0  0  0.083782  0.091197  0  1.043975  0
H  H26  1  0.17019247  0.51536448  0.30612998  1  0  0.086669  0  0.973527  0  0  0.093655  0  1.042589  0  0  0.096815  0  1.041038  0  0  0.083775  0.091165  0  1.044054  0
H  H27  1  0.32981157  0.98463722  0.80612818  1  0  0.086671  0  0.973529  0  0  0.093683  0  1.042572  0  0  0.096844  0  1.041019  0  0  0.083755  0.09119  0  1.044032  0
H  H28  1  0.15813727  0.37390110  0.76790775  1  0  0.085653  0  1.019217  0  0  0.090471  0  1.097255  0  0  0.096005  0  1.091465  0  0  0.07691  0.086019  0  1.102054  0
H  H29  1  0.34186124  0.12609750  0.26790753  1  0  0.085703  0  1.019342  0  0  0.090529  0  1.097355  0  0  0.096064  0  1.091564  0  0  0.076932  0.086079  0  1.102154  0
H  H30  1  0.84187631  0.62610169  0.23209243  1  0  0.085751  0  1.019119  0  0  0.090546  0  1.097156  0  0  0.096077  0  1.091373  0  0  0.07693  0.086096  0  1.10195  0
H  H31  1  0.65813308  0.87390081  0.73209151  1  0  0.085766  0  1.019265  0  0  0.090564  0  1.097289  0  0  0.096098  0  1.0915  0  0  0.07693  0.086114  0  1.102085  0
C  C32  1  0.59224684  0.15721072  0.67222612  1  0  0.086031  0  3.651761  0  0  0.052942  0  3.912017  0  0  0.059838  0  3.919809  0  0  0.041746  0.047542  0  3.90854  0
C  C33  1  0.90774953  0.34278712  0.17222677  1  0  0.085894  0  3.651697  0  0  0.052841  0  3.911935  0  0  0.059753  0  3.91971  0  0  0.041708  0.047435  0  3.908468  0
C  C34  1  0.40775279  0.84279131  0.32777349  1  0  0.086175  0  3.651637  0  0  0.053084  0  3.911894  0  0  0.059943  0  3.919698  0  0  0.041758  0.047677  0  3.908426  0
C  C35  1  0.09224222  0.65720969  0.82777399  1  0  0.086058  0  3.651716  0  0  0.052968  0  3.912018  0  0  0.059858  0  3.919801  0  0  0.041723  0.047564  0  3.908551  0
C  C36  1  0.55893995  0.14477580  0.59242985  1  0  0.088701  0  3.671704  0  0  0.058604  0  3.928601  0  0  0.065423  0  3.938199  0  0  0.037224  0.053258  0  3.923946  0
C  C37  1  0.94105771  0.35522263  0.09242997  1  0  0.088795  0  3.671749  0  0  0.058695  0  3.928581  0  0  0.065539  0  3.938201  0  0  0.037273  0.053362  0  3.9239  0
C  C38  1  0.44106400  0.85522475  0.40757033  1  0  0.088684  0  3.671687  0  0  0.05856  0  3.928585  0  0  0.065396  0  3.938201  0  0  0.037225  0.053213  0  3.923927  0
C  C39  1  0.05893418  0.64477493  0.90757079  1  0  0.088651  0  3.671744  0  0  0.058541  0  3.928642  0  0  0.065364  0  3.938251  0  0  0.037211  0.053188  0  3.923997  0
C  C40  1  0.24190022  0.27556544  0.58788083  1  0  0.151899  0  3.742937  0  0  0.153206  0  3.973533  0  0  0.155165  0  3.996699  0  0  0.102799  0.151841  0  3.958318  0
C  C41  1  0.25810017  0.22443204  0.08788064  1  0  0.151854  0  3.742959  0  0  0.153129  0  3.973537  0  0  0.155111  0  3.996718  0  0  0.102772  0.151765  0  3.958324  0
C  C42  1  0.75811078  0.72443586  0.41212108  1  0  0.15196  0  3.742966  0  0  0.15322  0  3.973517  0  0  0.155196  0  3.996694  0  0  0.102795  0.151856  0  3.958299  0
C  C43  1  0.74189402  0.77556552  0.91211955  1  0  0.151876  0  3.742889  0  0  0.153112  0  3.973543  0  0  0.155075  0  3.996717  0  0  0.102753  0.15175  0  3.95832  0
C  C44  1  0.05257054  0.33870714  0.54722822  1  0  -0.13438  0  3.724646  0  0  -0.153768  0  3.972969  0  0  -0.158215  0  3.992978  0  0  -0.098519  -0.151016  0  3.960468  0
C  C45  1  0.44742751  0.16129323  0.04722871  1  0  -0.134223  0  3.724593  0  0  -0.153611  0  3.972911  0  0  -0.158056  0  3.992913  0  0  -0.098488  -0.150859  0  3.960409  0
C  C46  1  0.94743083  0.66129192  0.45277311  1  0  -0.134332  0  3.724647  0  0  -0.153732  0  3.972993  0  0  -0.15818  0  3.993001  0  0  -0.09854  -0.150994  0  3.960479  0
C  C47  1  0.55257442  0.83870881  0.95277147  1  0  -0.134129  0  3.724562  0  0  -0.153539  0  3.972898  0  0  -0.157989  0  3.992913  0  0  -0.098459  -0.15079  0  3.960392  0
C  C48  1  0.90915337  0.41299875  0.58493348  1  0  -0.033005  0  3.716899  0  0  -0.047234  0  3.965207  0  0  -0.047892  0  3.985337  0  0  -0.086343  -0.047117  0  3.952474  0
C  C49  1  0.59084459  0.08700190  0.08493299  1  0  -0.033098  0  3.716955  0  0  -0.047305  0  3.965258  0  0  -0.047964  0  3.985389  0  0  -0.086364  -0.047185  0  3.95252  0
C  C50  1  0.09084611  0.58700254  0.41506613  1  0  -0.033073  0  3.717004  0  0  -0.0473  0  3.965313  0  0  -0.04796  0  3.985447  0  0  -0.086351  -0.047183  0  3.95258  0
C  C51  1  0.40915489  0.91299939  0.91506490  1  0  -0.03312  0  3.716885  0  0  -0.047338  0  3.965225  0  0  -0.047995  0  3.985358  0  0  -0.086393  -0.047219  0  3.952484  0
C  C52  1  0.94838687  0.42652255  0.66476704  1  0  -0.035256  0  3.743814  0  0  -0.048953  0  3.990081  0  0  -0.049478  0  4.010414  0  0  -0.091651  -0.049017  0  3.977395  0
C  C53  1  0.55161427  0.07347678  0.16476593  1  0  -0.035195  0  3.743766  0  0  -0.048867  0  3.990003  0  0  -0.049392  0  4.010337  0  0  -0.091645  -0.048932  0  3.977315  0
C  C54  1  0.05161709  0.57347800  0.33523486  1  0  -0.035127  0  3.743936  0  0  -0.048802  0  3.990188  0  0  -0.049326  0  4.010525  0  0  -0.091639  -0.048875  0  3.977503  0
C  C55  1  0.44838968  0.92652377  0.83523254  1  0  -0.035079  0  3.743902  0  0  -0.048774  0  3.990157  0  0  -0.049299  0  4.010492  0  0  -0.091572  -0.04884  0  3.977462  0
C  C56  1  0.12954611  0.36544848  0.70603994  1  0  -0.131944  0  3.721875  0  0  -0.153773  0  3.973901  0  0  -0.158027  0  3.992837  0  0  -0.097922  -0.151301  0  3.962189  0
C  C57  1  0.37045151  0.13454998  0.20604033  1  0  -0.132009  0  3.72208  0  0  -0.153869  0  3.974102  0  0  -0.158124  0  3.993038  0  0  -0.097938  -0.151398  0  3.962393  0
C  C58  1  0.87046991  0.63455506  0.29395910  1  0  -0.131929  0  3.72186  0  0  -0.153762  0  3.973819  0  0  -0.158019  0  3.992762  0  0  -0.097861  -0.151291  0  3.962108  0
C  C59  1  0.62954051  0.86544832  0.79395871  1  0  -0.13208  0  3.722037  0  0  -0.153911  0  3.974034  0  0  -0.158165  0  3.99297  0  0  -0.097936  -0.151443  0  3.962322  0
C  C60  1  0.27957165  0.28908482  0.66889394  1  0  0.156566  0  3.744924  0  0  0.159693  0  3.973722  0  0  0.161412  0  3.996934  0  0  0.104624  0.158489  0  3.95855  0
C  C61  1  0.22043668  0.21091210  0.16889313  1  0  0.156591  0  3.744835  0  0  0.159745  0  3.973618  0  0  0.161467  0  3.99683  0  0  0.104647  0.158539  0  3.958449  0
C  C62  1  0.72044396  0.71091649  0.33110682  1  0  0.156364  0  3.744875  0  0  0.159648  0  3.973487  0  0  0.16135  0  3.996684  0  0  0.104588  0.158445  0  3.958308  0
C  C63  1  0.77955968  0.78908472  0.83110649  1  0  0.156492  0  3.744841  0  0  0.15973  0  3.973546  0  0  0.161441  0  3.996755  0  0  0.104624  0.158526  0  3.958369  0
I  I64  1  0.54174175  0.35881112  0.36940861  1  0  -0.334514  0  1.811544  0  0  -0.275807  0  2.274315  0  0  -0.294204  0  2.23501  0  0  -0.130833  -0.261708  0  2.300202  0
I  I65  1  0.95825787  0.14118938  0.86940885  1  0  -0.334527  0  1.811577  0  0  -0.275817  0  2.274333  0  0  -0.294229  0  2.235048  0  0  -0.130839  -0.261716  0  2.300211  0
I  I66  1  0.45825516  0.64118868  0.63059043  1  0  -0.334501  0  1.811578  0  0  -0.275789  0  2.274332  0  0  -0.294201  0  2.235051  0  0  -0.130836  -0.26169  0  2.300224  0
I  I67  1  0.04174391  0.85881191  0.13058904  1  0  -0.334493  0  1.811526  0  0  -0.275802  0  2.27433  0  0  -0.294211  0  2.23503  0  0  -0.130838  -0.261702  0  2.300212  0
I  I68  1  0.86154205  0.08528370  0.39087284  1  0  -0.360679  0  1.706421  0  0  -0.304934  0  2.161795  0  0  -0.323879  0  2.121661  0  0  -0.157693  -0.290725  0  2.188754  0
I  I69  1  0.63845558  0.41471684  0.89087309  1  0  -0.36069  0  1.706381  0  0  -0.304943  0  2.161749  0  0  -0.323894  0  2.121615  0  0  -0.157703  -0.290733  0  2.188706  0
I  I70  1  0.13845946  0.91471610  0.60912735  1  0  -0.360691  0  1.7064  0  0  -0.304943  0  2.161767  0  0  -0.3239  0  2.121632  0  0  -0.157704  -0.290741  0  2.188727  0
I  I71  1  0.36153728  0.58528593  0.10912767  1  0  -0.360703  0  1.706437  0  0  -0.304956  0  2.161794  0  0  -0.323905  0  2.121657  0  0  -0.157716  -0.290752  0  2.188757  0
N  N72  1  0.45809707  0.22806675  0.71081616  1  0  -0.256402  0  3.326384  0  0  -0.189614  0  3.606825  0  0  -0.195041  0  3.612714  0  0  -0.343507  -0.187109  0  3.603245  0
N  N73  1  0.04190264  0.27193025  0.21081697  1  0  -0.256317  0  3.326131  0  0  -0.18957  0  3.606583  0  0  -0.195009  0  3.612481  0  0  -0.343452  -0.187065  0  3.603009  0
N  N74  1  0.54190513  0.77193677  0.28918231  1  0  -0.256375  0  3.326173  0  0  -0.189721  0  3.606698  0  0  -0.195086  0  3.612529  0  0  -0.343537  -0.187216  0  3.60312  0
N  N75  1  0.95809587  0.72806583  0.78918264  1  0  -0.256319  0  3.326141  0  0  -0.189614  0  3.606632  0  0  -0.195016  0  3.612495  0  0  -0.343489  -0.187108  0  3.603056  0
N  N76  1  0.38796265  0.20229211  0.54988171  1  0  -0.257007  0  3.318932  0  0  -0.191007  0  3.602617  0  0  -0.197245  0  3.607808  0  0  -0.346592  -0.187892  0  3.599506  0
N  N77  1  0.11203069  0.29770751  0.04988262  1  0  -0.257132  0  3.319012  0  0  -0.191051  0  3.602612  0  0  -0.197372  0  3.60789  0  0  -0.346642  -0.187938  0  3.599504  0
N  N78  1  0.61203467  0.79770991  0.45011847  1  0  -0.257124  0  3.319022  0  0  -0.19105  0  3.602623  0  0  -0.197344  0  3.607873  0  0  -0.346616  -0.187935  0  3.599511  0
N  N79  1  0.88796133  0.70229079  0.95011757  1  0  -0.257053  0  3.31885  0  0  -0.191009  0  3.602526  0  0  -0.197267  0  3.607739  0  0  -0.346601  -0.187892  0  3.599414  0
