# generated using pymatgen
data_Zn4H18C32O13
_symmetry_space_group_name_H-M   'P 1'
_cell_length_a   13.25534793
_cell_length_b   13.06147210
_cell_length_c   18.12827982
_cell_angle_alpha   71.95816549
_cell_angle_beta   68.70930659
_cell_angle_gamma   88.55447295
_symmetry_Int_Tables_number   1
_chemical_formula_structural   Zn4H18C32O13
_chemical_formula_sum   'Zn4 H18 C32 O13'
_cell_volume   2767.11451624
_cell_formula_units_Z   1
loop_
 _symmetry_equiv_pos_site_id
 _symmetry_equiv_pos_as_xyz
  1  'x, y, z'
loop_
 _atom_site_type_symbol
 _atom_site_label
 _atom_site_symmetry_multiplicity
 _atom_site_fract_x
 _atom_site_fract_y
 _atom_site_fract_z
 _atom_site_occupancy
 _atom_site_pbe_bader_charge
 _atom_site_pbe_bader_spin_density
 _atom_site_pbe_cm5_charge
 _atom_site_pbe_ddec_charge
 _atom_site_pbe_ddec_spin_density
 _atom_site_pbe_ddec_sum_bond_order
 _atom_site_pbe_magmom
Zn  Zn0  1  0.56096316  0.57359526  0.55418383  1  1.316405  0  0.668806  0.96039  0  2.396009  0
Zn  Zn1  1  0.60996906  0.43639466  0.42865777  1  1.314231  0  0.669995  0.964306  0  2.365376  0
Zn  Zn2  1  0.43368296  0.59638116  0.42586411  1  1.314721  0  0.667459  0.960309  0  2.366107  0
Zn  Zn3  1  0.38067583  0.39438440  0.59492155  1  1.315184  0  0.67013  0.968742  0  2.355476  0
H  H4  1  0.24400423  0.32565759  0.12100123  1  0.06675  0  0.103676  0.104551  0  0.993004  0
H  H5  1  0.44273812  0.49213884  0.20639656  1  0.097669  0  0.104785  0.108075  0  1.015547  0
H  H6  1  0.75570242  0.66073290  0.88472554  1  0.051209  0  0.103523  0.104006  0  0.993173  0
H  H7  1  0.20824260  0.28795291  0.00842301  1  0.049048  0  0.10368  0.10381  0  0.992523  0
H  H8  1  0.25744086  0.31644584  0.85622336  1  0.101195  0  0.108111  0.115107  0  0.993783  0
H  H9  1  0.53500596  0.53126986  0.79564625  1  0.090401  0  0.105112  0.110078  0  1.023601  0
H  H10  1  0.35752437  0.41232249  0.16930823  1  0.037452  0  0.102745  0.102328  0  1.011567  0
H  H11  1  0.63269128  0.59088629  0.83473713  1  0.045784  0  0.103926  0.10607  0  1.008363  0
H  H12  1  0.11098595  0.56115576  0.43090435  1  0.112815  0  0.113063  0.11221  0  0.971777  0
H  H13  1  0.75958555  0.63526362  0.15242184  1  0.091913  0  0.107756  0.112481  0  0.986838  0
H  H14  1  0.80493258  0.67368983  0.99963466  1  0.0626  0  0.103896  0.103596  0  0.992527  0
H  H15  1  0.54930141  0.11476934  0.41772954  1  0.091235  0  0.113148  0.112713  0  0.971548  0
H  H16  1  0.49598434  0.89151010  0.56021879  1  0.091818  0  0.11321  0.112606  0  0.974012  0
H  H17  1  0.45000218  0.05153715  0.61040256  1  0.09196  0  0.114099  0.133448  0  0.976328  0
H  H18  1  0.53190591  0.94846929  0.37337089  1  0.098317  0  0.113509  0.133974  0  0.978237  0
H  H19  1  0.88058172  0.53178803  0.57143123  1  0.074859  0  0.11233  0.110966  0  0.971906  0
H  H20  1  0.95406313  0.52876972  0.38982886  1  0.072487  0  0.113474  0.132397  0  0.976665  0
H  H21  1  0.03773286  0.47845843  0.62332511  1  0.074143  0  0.113494  0.133531  0  0.977926  0
C  C22  1  0.48863301  0.22093352  0.53059632  1  1.55816  0  0.22081  0.648122  0  4.176344  0
C  C23  1  0.60937778  0.57509088  0.90166559  1  -0.025285  0  -0.091231  -0.129671  0  4.023421  0
C  C24  1  0.67849393  0.61463148  0.92929001  1  -0.054908  0  -0.090836  -0.133919  0  4.027151  0
C  C25  1  0.51032069  0.78113332  0.45686682  1  1.530103  0  0.218572  0.645745  0  4.174671  0
C  C26  1  0.65234264  0.59614076  0.01610320  1  0.028117  0  -0.00601  0.076784  0  4.021947  0
C  C27  1  0.54960931  0.53935738  0.07474285  1  0.039076  0  -0.001361  0.038144  0  3.944032  0
C  C28  1  0.72645660  0.63147572  0.04524361  1  -0.149381  0  -0.087689  -0.129605  0  4.00198  0
C  C29  1  0.70141573  0.61158132  0.12948543  1  0.105693  0  -0.086934  -0.102383  0  4.004054  0
C  C30  1  0.52248847  0.52868285  0.15987311  1  -0.055651  0  -0.081096  -0.143062  0  3.938837  0
C  C31  1  0.52124342  0.89988016  0.43714456  1  -0.023247  0  -0.088413  -0.233063  0  3.879291  0
C  C32  1  0.51166396  0.94535952  0.49665811  1  -0.025137  0  -0.069419  -0.023336  0  4.006966  0
C  C33  1  0.30664121  0.35665633  0.87787027  1  -0.029453  0  -0.085799  -0.093743  0  4.002189  0
C  C34  1  0.48614788  0.10302696  0.54517084  1  -0.085541  0  -0.085405  -0.225728  0  3.879605  0
C  C35  1  0.51844657  0.06014275  0.48229150  1  0.010849  0  -0.070097  -0.029892  0  4.011182  0
C  C36  1  0.09184129  0.50842328  0.55763996  1  -0.013757  0  -0.088332  -0.230772  0  3.884504  0
C  C37  1  0.78192035  0.52045779  0.46799216  1  1.56044  0  0.219903  0.646497  0  4.184897  0
C  C38  1  0.05279417  0.53778575  0.49560469  1  -0.027759  0  -0.070676  -0.028321  0  4.012351  0
C  C39  1  0.89973705  0.53193378  0.45085227  1  0.011002  0  -0.086125  -0.225919  0  3.883922  0
C  C40  1  0.93851991  0.53520625  0.50952494  1  -0.06572  0  -0.07078  -0.029766  0  4.01294  0
C  C41  1  0.20976884  0.50446682  0.53977450  1  1.554044  0  0.219974  0.646328  0  4.184028  0
C  C42  1  0.56752795  0.54465893  0.27799484  1  1.550193  0  0.225942  0.606145  0  4.163693  0
C  C43  1  0.42744014  0.44703275  0.72719241  1  1.512447  0  0.224578  0.600991  0  4.172878  0
C  C44  1  0.46459618  0.47814617  0.84409140  1  -0.063674  0  -0.077418  -0.129356  0  3.930325  0
C  C45  1  0.39939796  0.42695760  0.81823814  1  0.010023  0  -0.022435  -0.041838  0  4.001803  0
C  C46  1  0.59703076  0.56237242  0.18708433  1  -0.088023  0  -0.01682  -0.023304  0  3.996786  0
C  C47  1  0.28012681  0.34122864  0.96167643  1  -0.034891  0  -0.089857  -0.136065  0  4.000686  0
C  C48  1  0.44071695  0.46228478  0.92953248  1  0.024076  0  -0.002347  0.032398  0  3.942446  0
C  C49  1  0.34501969  0.39339365  0.98931105  1  -0.02428  0  -0.004606  0.083262  0  4.016714  0
C  C50  1  0.50947842  0.51150228  0.95844490  1  -0.014796  0  -0.001815  0.0359  0  3.951046  0
C  C51  1  0.47901546  0.49379583  0.04536068  1  -0.092296  0  -0.002963  0.030008  0  3.956138  0
C  C52  1  0.38111693  0.42704343  0.10247706  1  0.015852  0  -0.089139  -0.122179  0  4.025341  0
C  C53  1  0.31726306  0.37811683  0.07582745  1  -0.007168  0  -0.091108  -0.137535  0  4.029503  0
O  O54  1  0.49577656  0.49871481  0.50148488  1  -1.23656  0  -0.574326  -1.033587  0  2.541303  0
O  O55  1  0.63919889  0.50806407  0.30849461  1  -1.160518  0  -0.315728  -0.546764  0  2.305563  0
O  O56  1  0.36939891  0.39270006  0.70671566  1  -1.17228  0  -0.314876  -0.545169  0  2.331308  0
O  O57  1  0.47332165  0.56701900  0.31852867  1  -1.172341  0  -0.318048  -0.548013  0  2.296375  0
O  O58  1  0.50750708  0.51752789  0.67634913  1  -1.169763  0  -0.319202  -0.549338  0  2.345709  0
O  O59  1  0.71877644  0.56353301  0.51978745  1  -1.175963  0  -0.318897  -0.554106  0  2.31179  0
O  O60  1  0.23589020  0.43312935  0.59468326  1  -1.174073  0  -0.319905  -0.553454  0  2.283656  0
O  O61  1  0.55887812  0.28275843  0.46212370  1  -1.177677  0  -0.320269  -0.556862  0  2.30093  0
O  O62  1  0.48679784  0.74614137  0.40572351  1  -1.158539  0  -0.32176  -0.552112  0  2.265389  0
O  O63  1  0.41853610  0.24960070  0.58898569  1  -1.160348  0  -0.31921  -0.550487  0  2.286736  0
O  O64  1  0.52427737  0.72363135  0.52307694  1  -1.188601  0  -0.32202  -0.559253  0  2.317009  0
O  O65  1  0.75419975  0.46669781  0.42901595  1  -1.164039  0  -0.318407  -0.547318  0  2.290438  0
O  O66  1  0.27466476  0.57111719  0.47132282  1  -1.180605  0  -0.318343  -0.550098  0  2.31794  0
