# generated using pymatgen
data_CsNi2H40C38I3(NO2)4
_symmetry_space_group_name_H-M   'P 1'
_cell_length_a   9.62062433
_cell_length_b   9.85428897
_cell_length_c   11.20760932
_cell_angle_alpha   101.41316296
_cell_angle_beta   91.02565756
_cell_angle_gamma   101.38974266
_symmetry_Int_Tables_number   1
_chemical_formula_structural   CsNi2H40C38I3(NO2)4
_chemical_formula_sum   'Cs1 Ni2 H40 C38 I3 N4 O8'
_cell_volume   1019.21243105
_cell_formula_units_Z   1
loop_
 _symmetry_equiv_pos_site_id
 _symmetry_equiv_pos_as_xyz
  1  'x, y, z'
loop_
 _atom_site_type_symbol
 _atom_site_label
 _atom_site_symmetry_multiplicity
 _atom_site_fract_x
 _atom_site_fract_y
 _atom_site_fract_z
 _atom_site_occupancy
 _atom_site_pbe_bader_spin_density
 _atom_site_pbe_cm5_charge
 _atom_site_pbe_ddec_charge
 _atom_site_pbe_ddec_spin_density
 _atom_site_pbe_ddec_sum_bond_order
 _atom_site_pbe_magmom
Cs  Cs0  1  0.00000037  0.50000013  0.49999919  1  0  0.892249  0.844645  0  0.964139  0
Ni  Ni1  1  0.36396343  0.39256895  0.37935071  1  0  0.615299  0.491313  0  2.942344  0
Ni  Ni2  1  0.63603684  0.60743165  0.62065232  1  0  0.615299  0.491263  0  2.942446  0
H  H3  1  0.19321800  0.92846625  0.24129712  1  0  0.090223  0.098755  0  1.076699  0
H  H4  1  0.80678184  0.07153222  0.75870107  1  0  0.090214  0.098726  0  1.076709  0
H  H5  1  0.28830260  0.85452879  0.04084831  1  0  0.089107  0.089482  0  1.045085  0
H  H6  1  0.71169682  0.14546757  0.95915041  1  0  0.089118  0.089501  0  1.045047  0
H  H7  1  0.37937678  0.62972786  0.99549393  1  0  0.095237  0.090229  0  1.042289  0
H  H8  1  0.62062160  0.37026849  0.00450567  1  0  0.095225  0.090202  0  1.042313  0
H  H9  1  0.39261497  0.41005364  0.04334305  1  0  0.114294  0.077993  0  1.01325  0
H  H10  1  0.60737987  0.58994058  0.95665613  1  0  0.114286  0.078016  0  1.013191  0
H  H11  1  0.40376834  0.20652756  0.05680874  1  0  0.10172  0.079932  0  0.999231  0
H  H12  1  0.59623213  0.79346882  0.94319445  1  0  0.101763  0.080057  0  0.99922  0
H  H13  1  0.32545952  0.14569975  0.18334348  1  0  0.093444  0.073247  0  1.03199  0
H  H14  1  0.67454761  0.85429880  0.81666108  1  0  0.093431  0.073292  0  1.031994  0
H  H15  1  0.54390089  0.07539821  0.18309968  1  0  0.093316  0.098513  0  0.999712  0
H  H16  1  0.45611188  0.92460774  0.81690088  1  0  0.093321  0.098515  0  0.999803  0
H  H17  1  0.64088668  0.22902578  0.14081049  1  0  0.094892  0.098827  0  1.000096  0
H  H18  1  0.35911798  0.77098646  0.85919282  1  0  0.094835  0.098783  0  1.000125  0
H  H19  1  0.67315933  0.20689644  0.36826218  1  0  0.106076  0.079668  0  1.013456  0
H  H20  1  0.32684449  0.79310630  0.63174127  1  0  0.106098  0.079713  0  1.013384  0
H  H21  1  0.65659778  0.37116948  0.33571584  1  0  0.111639  0.093891  0  1.026349  0
H  H22  1  0.34340542  0.62883538  0.66429153  1  0  0.111627  0.093845  0  1.02628  0
H  H23  1  0.55286073  0.14011880  0.50327155  1  0  0.119155  0.083039  0  1.013016  0
H  H24  1  0.44714308  0.85988394  0.49673190  1  0  0.119109  0.082992  0  1.013006  0
H  H25  1  0.45238411  0.05246828  0.66802899  1  0  0.092879  0.089522  0  1.042297  0
H  H26  1  0.54761199  0.94753230  0.33197486  1  0  0.092884  0.089534  0  1.04225  0
H  H27  1  0.30294894  0.07602274  0.84873613  1  0  0.085136  0.082759  0  1.052971  0
H  H28  1  0.69704236  0.92397462  0.15126175  1  0  0.085158  0.082776  0  1.052934  0
H  H29  1  0.16093425  0.26134141  0.88313090  1  0  0.091989  0.098766  0  1.062704  0
H  H30  1  0.83905809  0.73865595  0.11686789  1  0  0.092025  0.098821  0  1.062645  0
H  H31  1  0.07771335  0.91170449  0.53799133  1  0  0.089418  0.101645  0  1.055184  0
H  H32  1  0.92228441  0.08829397  0.46200683  1  0  0.089416  0.10165  0  1.055134  0
H  H33  1  0.02421361  0.88916445  0.37892832  1  0  0.092717  0.095577  0  1.026051  0
H  H34  1  0.97578540  0.11083507  0.62107094  1  0  0.092715  0.095569  0  1.026038  0
H  H35  1  0.19057012  0.00185841  0.44043913  1  0  0.090051  0.091875  0  1.031032  0
H  H36  1  0.80942619  0.99814320  0.55955955  1  0  0.090048  0.091864  0  1.031042  0
H  H37  1  0.02190854  0.55884405  0.84104427  1  0  0.09206  0.096783  0  1.043674  0
H  H38  1  0.97809131  0.44115971  0.15895483  1  0  0.091992  0.096659  0  1.043749  0
H  H39  1  0.14785267  0.49862487  0.92681823  1  0  0.091099  0.094544  0  1.028349  0
H  H40  1  0.85214676  0.50137677  0.07318228  1  0  0.091116  0.094525  0  1.028387  0
H  H41  1  0.99186580  0.37619508  0.85284681  1  0  0.093411  0.096479  0  1.032664  0
H  H42  1  0.00813197  0.62380867  0.14715315  1  0  0.093431  0.09652  0  1.032661  0
C  C43  1  0.28739187  0.62281236  0.28982026  1  0  0.084854  0.205975  0  4.078222  0
C  C44  1  0.71260819  0.37718717  0.71017990  1  0  0.084863  0.205963  0  4.078331  0
C  C45  1  0.23418014  0.75145301  0.31201172  1  0  0.065782  0.136333  0  4.017319  0
C  C46  1  0.76582012  0.24854758  0.68798864  1  0  0.065762  0.13632  0  4.017384  0
C  C47  1  0.23666465  0.83272150  0.22379999  1  0  -0.114386  -0.202271  0  4.03995  0
C  C48  1  0.76333498  0.16727592  0.77619892  1  0  -0.114327  -0.202178  0  4.039823  0
C  C49  1  0.29057459  0.79025928  0.10925423  1  0  -0.120938  -0.11699  0  4.109987  0
C  C50  1  0.70942483  0.20973708  0.89074449  1  0  -0.120943  -0.117033  0  4.109877  0
C  C51  1  0.34022015  0.66617463  0.08440574  1  0  -0.10474  -0.139308  0  4.064915  0
C  C52  1  0.65977969  0.33382385  0.91559513  1  0  -0.104731  -0.139266  0  4.064805  0
C  C53  1  0.33944269  0.58150805  0.17307058  1  0  -0.03979  -0.068456  0  4.088335  0
C  C54  1  0.66055611  0.41849042  0.82693027  1  0  -0.039765  -0.068425  0  4.088269  0
C  C55  1  0.37942874  0.44772149  0.14063829  1  0  0.065998  0.082309  0  3.939767  0
C  C56  1  0.62056756  0.55227485  0.85936128  1  0  0.065948  0.082152  0  3.939743  0
C  C57  1  0.41412472  0.22062722  0.15664102  1  0  -0.07103  -0.04488  0  3.924319  0
C  C58  1  0.58587951  0.77937235  0.84336278  1  0  -0.071084  -0.045179  0  3.924454  0
C  C59  1  0.55536595  0.19071087  0.19702333  1  0  -0.16089  -0.176804  0  3.896216  0
C  C60  1  0.44464099  0.80929717  0.80298108  1  0  -0.160877  -0.176767  0  3.896342  0
C  C61  1  0.59986146  0.26159999  0.32951839  1  0  -0.068442  -0.04695  0  3.898673  0
C  C62  1  0.40014236  0.73840275  0.67048685  1  0  -0.068354  -0.04683  0  3.898497  0
C  C63  1  0.47290073  0.20430333  0.49753955  1  0  0.067779  0.084316  0  3.941315  0
C  C64  1  0.52710183  0.79569834  0.50246281  1  0  0.06778  0.08431  0  3.941359  0
C  C65  1  0.38088217  0.21607562  0.59579161  1  0  -0.039349  -0.070242  0  4.088676  0
C  C66  1  0.61911956  0.78392711  0.40421270  1  0  -0.039305  -0.070194  0  4.088662  0
C  C67  1  0.38403226  0.12951472  0.68246570  1  0  -0.104257  -0.12922  0  4.042393  0
C  C68  1  0.61596572  0.87048481  0.31753711  1  0  -0.104292  -0.129265  0  4.042252  0
C  C69  1  0.30480311  0.14477025  0.78351122  1  0  -0.121662  -0.112688  0  4.127781  0
C  C70  1  0.69519236  0.85522715  0.21649030  1  0  -0.121663  -0.112669  0  4.127837  0
C  C71  1  0.22380916  0.25086344  0.80320704  1  0  -0.1184  -0.211084  0  4.063348  0
C  C72  1  0.77618486  0.74913712  0.19679499  1  0  -0.118466  -0.211187  0  4.063537  0
C  C73  1  0.22139340  0.33939558  0.72128436  1  0  0.063346  0.138802  0  4.009476  0
C  C74  1  0.77860750  0.66060819  0.27871744  1  0  0.063393  0.138897  0  4.009377  0
C  C75  1  0.29778227  0.32202888  0.61196723  1  0  0.086406  0.205159  0  4.070384  0
C  C76  1  0.70222050  0.67797385  0.38803621  1  0  0.086363  0.205081  0  4.070411  0
C  C77  1  0.11434521  0.90427758  0.44542126  1  0  -0.151266  -0.179209  0  3.885657  0
C  C78  1  0.88565380  0.09572194  0.55457889  1  0  -0.151264  -0.179216  0  3.885517  0
C  C79  1  0.07280521  0.46989769  0.84632730  1  0  -0.14968  -0.169613  0  3.870283  0
C  C80  1  0.92719443  0.53010501  0.15367340  1  0  -0.14964  -0.16949  0  3.870429  0
I  I81  1  0.97881940  0.82225593  0.75586930  1  0  -0.110068  -0.282358  0  1.439569  0
I  I82  1  0.02118522  0.17773521  0.24413663  1  0  -0.110086  -0.282389  0  1.43951  0
I  I83  1  0.00000203  0.99999240  0.00000082  1  0  0.004655  -0.014551  0  1.864816  0
N  N84  1  0.39475458  0.36278457  0.21344427  1  0  -0.369052  -0.192694  0  3.629977  0
N  N85  1  0.60524547  0.63721497  0.78655768  1  0  -0.368999  -0.192476  0  3.629908  0
N  N86  1  0.47802622  0.26848371  0.40612770  1  0  -0.368063  -0.185924  0  3.615362  0
N  N87  1  0.52197531  0.73151796  0.59387821  1  0  -0.368052  -0.185951  0  3.615487  0
O  O88  1  0.28054185  0.54884482  0.37544414  1  0  -0.376407  -0.436826  0  2.543075  0
O  O89  1  0.71945863  0.45115683  0.62455729  1  0  -0.376402  -0.436806  0  2.543155  0
O  O90  1  0.28971012  0.40507521  0.53472708  1  0  -0.362209  -0.450579  0  2.551384  0
O  O91  1  0.71029119  0.59492540  0.46527597  1  0  -0.362221  -0.450576  0  2.551396  0
O  O92  1  0.18026354  0.78377099  0.42419577  1  0  -0.231088  -0.177227  0  2.627405  0
O  O93  1  0.81973569  0.21622960  0.57580457  1  0  -0.231128  -0.177254  0  2.627341  0
O  O94  1  0.14628458  0.44595615  0.73595216  1  0  -0.244072  -0.177446  0  2.617553  0
O  O95  1  0.85371568  0.55404444  0.26404819  1  0  -0.24406  -0.177451  0  2.617534  0
