# generated using pymatgen
data_CuH10C12(N2O5)2
_symmetry_space_group_name_H-M   'P 1'
_cell_length_a   5.45156740
_cell_length_b   9.73139171
_cell_length_c   14.03709089
_cell_angle_alpha   90.00012517
_cell_angle_beta   94.56498698
_cell_angle_gamma   89.99943204
_symmetry_Int_Tables_number   1
_chemical_formula_structural   CuH10C12(N2O5)2
_chemical_formula_sum   'Cu2 H20 C24 N8 O20'
_cell_volume   742.32408238
_cell_formula_units_Z   2
loop_
 _symmetry_equiv_pos_site_id
 _symmetry_equiv_pos_as_xyz
  1  'x, y, z'
loop_
 _atom_site_type_symbol
 _atom_site_label
 _atom_site_symmetry_multiplicity
 _atom_site_fract_x
 _atom_site_fract_y
 _atom_site_fract_z
 _atom_site_occupancy
 _atom_site_hle17_ddec_charge
 _atom_site_hle17_ddec_spin_density
 _atom_site_hle17_ddec_sum_bond_order
 _atom_site_hle17_magmom
 _atom_site_hse06_10hf_ddec_charge
 _atom_site_hse06_10hf_ddec_spin_density
 _atom_site_hse06_10hf_ddec_sum_bond_order
 _atom_site_hse06_10hf_magmom
 _atom_site_hse06_ddec_charge
 _atom_site_hse06_ddec_spin_density
 _atom_site_hse06_ddec_sum_bond_order
 _atom_site_hse06_magmom
 _atom_site_pbe_cm5_charge
 _atom_site_pbe_ddec_charge
 _atom_site_pbe_ddec_spin_density
 _atom_site_pbe_ddec_sum_bond_order
 _atom_site_pbe_magmom
Cu  Cu0  1  0.49999999  0.00000170  0.50000109  1  0.919373  -0.760363  1.696632  -0.54  0.888532  -0.832969  2.074189  -0.656  0.974876  -0.902397  2.014575  -0.735  0.731543  0.832848  -0.780571  2.116671  -0.601
Cu  Cu1  1  0.99999986  0.49999999  0.00000122  1  0.919409  0.760395  1.696776  0.54  0.888501  0.832976  2.074344  0.656  0.974855  0.902405  2.014709  0.735  0.731556  0.832844  0.780579  2.11678  0.601
H  H2  1  0.88671732  0.91275960  0.40829970  1  0.420686  -0.000165  0.8789  0.0  0.395732  -0.000884  0.936795  -0.002  0.407973  -0.000725  0.91948  -0.001  0.29016  0.387009  -0.000976  0.949129  -0.002
H  H3  1  0.61326985  0.41276430  0.09169976  1  0.420713  0.000164  0.878891  0.0  0.395771  0.000884  0.936736  0.002  0.408011  0.000725  0.919422  0.001  0.290158  0.387052  0.000976  0.949063  0.002
H  H4  1  0.11327705  0.08724156  0.59170133  1  0.420696  -0.000164  0.878874  0.0  0.395734  -0.000884  0.936787  -0.002  0.407976  -0.000725  0.919471  -0.001  0.290158  0.387012  -0.000976  0.949119  -0.002
H  H5  1  0.38673015  0.58723687  0.90830088  1  0.420732  0.000164  0.878884  0.0  0.395793  0.000884  0.93671  0.002  0.408032  0.000725  0.919398  0.001  0.290165  0.387071  0.000976  0.949042  0.002
H  H6  1  0.63030004  0.82782857  0.38676492  1  0.419211  0.000268  0.891825  0.002  0.388663  -0.00025  0.955564  0.0  0.402161  -8e-05  0.93664  0.0  0.283886  0.379149  -0.000391  0.968883  0.0
H  H7  1  0.86968177  0.32783165  0.11323365  1  0.419278  -0.000269  0.891738  -0.002  0.388741  0.00025  0.95546  0.0  0.402239  8e-05  0.936536  0.0  0.283922  0.379227  0.000391  0.968782  0.0
H  H8  1  0.36969629  0.17217157  0.61323551  1  0.419235  0.000268  0.891795  0.002  0.388688  -0.00025  0.955528  0.0  0.402187  -8e-05  0.936604  0.0  0.283906  0.379175  -0.000391  0.968848  0.0
H  H9  1  0.13031456  0.67216746  0.88676678  1  0.419262  -0.000269  0.891767  -0.002  0.388714  0.00025  0.955512  0.0  0.402213  8e-05  0.936586  0.0  0.283902  0.379198  0.000391  0.968835  0.0
H  H10  1  0.25631584  0.12250987  0.32574617  1  0.102511  -0.001124  0.953979  -0.002  0.103658  -0.000831  1.027817  -0.001  0.106133  -0.00058  1.024713  -0.001  0.123231  0.101576  -0.001022  1.030292  -0.002
H  H11  1  0.24368275  0.62251476  0.17425137  1  0.102628  0.001127  0.953996  0.002  0.103755  0.000831  1.027813  0.001  0.106229  0.000581  1.024709  0.001  0.123276  0.101668  0.001022  1.030294  0.002
H  H12  1  0.74368010  0.87748821  0.67425638  1  0.102512  -0.001125  0.954115  -0.002  0.103678  -0.000831  1.027877  -0.001  0.10615  -0.00058  1.02478  -0.001  0.123243  0.101625  -0.001022  1.030324  -0.002
H  H13  1  0.75632328  0.37748743  0.82574677  1  0.10258  0.001125  0.954038  0.002  0.103723  0.000831  1.027844  0.001  0.106197  0.00058  1.02474  0.001  0.123237  0.101641  0.001022  1.030315  0.002
H  H14  1  0.89824718  0.21863210  0.49356269  1  0.119901  -0.00133  0.96416  -0.002  0.119508  -0.001042  1.036862  -0.002  0.123192  -0.000725  1.032456  -0.001  0.129695  0.116604  -0.00131  1.040345  -0.002
H  H15  1  0.60174946  0.71862976  0.00643621  1  0.119864  0.001328  0.964178  0.002  0.119495  0.001042  1.036854  0.002  0.123179  0.000725  1.032445  0.001  0.129698  0.116592  0.00131  1.040336  0.002
H  H16  1  0.10175269  0.78137317  0.50643866  1  0.119879  -0.001329  0.964084  -0.002  0.119497  -0.001042  1.036779  -0.002  0.123181  -0.000725  1.032375  -0.001  0.129672  0.116588  -0.00131  1.040269  -0.002
H  H17  1  0.39823862  0.28136832  0.99356874  1  0.119891  0.00133  0.964117  0.002  0.119494  0.001042  1.036815  0.002  0.123176  0.000725  1.032408  0.001  0.129728  0.116592  0.00131  1.040295  0.002
H  H18  1  0.66878117  0.48300551  0.25682510  1  0.130705  -0.000385  0.921586  0.0  0.13678  -7.1e-05  0.985406  0.0  0.14106  -3.1e-05  0.980286  0.0  0.125976  0.133594  -0.000112  0.989099  0.0
H  H19  1  0.83120664  0.98300805  0.24317071  1  0.130615  0.000385  0.921624  0.0  0.136788  7.1e-05  0.985391  0.0  0.141071  3.1e-05  0.980264  0.0  0.125954  0.1336  0.000112  0.989087  0.0
H  H20  1  0.33122184  0.51698948  0.74316929  1  0.13069  -0.000385  0.921642  0.0  0.136802  -7e-05  0.985428  0.0  0.141083  -3.1e-05  0.980307  0.0  0.125963  0.133615  -0.000112  0.98912  0.0
H  H21  1  0.16879336  0.01699208  0.75682993  1  0.130671  0.000383  0.921623  0.0  0.136808  7.1e-05  0.985384  0.0  0.141089  3.1e-05  0.980259  0.0  0.125971  0.13362  0.000112  0.989079  0.0
C  C22  1  0.44049592  0.30489362  0.27888354  1  -0.093679  -0.010082  3.687818  -0.011  -0.068143  -0.00365  3.92675  -0.004  -0.082389  -0.003275  3.947855  -0.004  -0.004051  -0.059521  -0.004039  3.913033  -0.005
C  C23  1  0.05950290  0.80490000  0.22111229  1  -0.093395  0.010079  3.687679  0.011  -0.067753  0.003648  3.926396  0.004  -0.081998  0.003277  3.947499  0.004  -0.003963  -0.05913  0.004039  3.912676  0.005
C  C24  1  0.55950592  0.69510651  0.72111721  1  -0.093619  -0.01009  3.687811  -0.011  -0.068037  -0.003647  3.926646  -0.004  -0.082286  -0.003276  3.947753  -0.004  -0.003951  -0.059414  -0.004039  3.912936  -0.005
C  C25  1  0.94050104  0.19510116  0.77888716  1  -0.093393  0.010079  3.687557  0.011  -0.067848  0.003649  3.926419  0.004  -0.082094  0.003277  3.947521  0.004  -0.003968  -0.059224  0.004039  3.912698  0.005
C  C26  1  0.41143331  0.19222674  0.33887149  1  0.161876  0.00747  3.592685  0.008  0.113241  0.000943  3.858254  0.002  0.127322  0.002036  3.873132  0.003  0.06972  0.104485  3.9e-05  3.848465  0.001
C  C27  1  0.08856959  0.69223221  0.16112262  1  0.161614  -0.007476  3.592655  -0.008  0.11308  -0.000944  3.858146  -0.002  0.127164  -0.00204  3.873025  -0.003  0.069734  0.104323  -4e-05  3.848354  -0.001
C  C28  1  0.58856512  0.80777545  0.66112764  1  0.161885  0.007481  3.59284  0.008  0.113243  0.000943  3.85836  0.002  0.127325  0.002037  3.87324  0.003  0.069742  0.104459  4e-05  3.848556  0.001
C  C29  1  0.91143238  0.30776998  0.83887742  1  0.161802  -0.007473  3.592645  -0.008  0.113179  -0.000944  3.858138  -0.002  0.127265  -0.002038  3.873015  -0.003  0.069781  0.104426  -4e-05  3.848343  -0.001
C  C30  1  0.76811637  0.24432156  0.43343854  1  0.123936  0.007383  3.590847  0.008  0.081243  0.000561  3.850132  0.001  0.094151  0.001686  3.863635  0.003  0.071211  0.072992  -0.000352  3.841453  0.0
C  C31  1  0.73188079  0.74432554  0.06655749  1  0.123608  -0.007376  3.592517  -0.008  0.081405  -0.000559  3.849995  -0.001  0.094311  -0.001688  3.863507  -0.003  0.071277  0.073152  0.000353  3.84132  0.0
C  C32  1  0.23188324  0.75567960  0.56656422  1  0.124024  0.007389  3.590852  0.008  0.081355  0.00056  3.85013  0.001  0.094261  0.001686  3.86363  0.003  0.071279  0.073103  -0.000353  3.841448  0.0
C  C33  1  0.26811555  0.25567459  0.93344294  1  0.124036  -0.007383  3.590784  -0.008  0.081437  -0.000559  3.850013  -0.001  0.094345  -0.001687  3.863521  -0.003  0.071233  0.073188  0.000352  3.841344  0.0
C  C34  1  0.80335560  0.35878159  0.37688898  1  0.041911  -0.008812  3.688437  -0.01  0.03043  -0.003396  3.943098  -0.004  0.023047  -0.003092  3.962078  -0.004  0.088638  0.03468  -0.003668  3.930622  -0.004
C  C35  1  0.69663996  0.85878549  0.12310534  1  0.033428  0.008816  3.68357  0.01  0.030375  0.003393  3.943164  0.004  0.02299  0.003094  3.962144  0.004  0.088632  0.034625  0.003667  3.930689  0.004
C  C36  1  0.19664689  0.64122162  0.62310823  1  0.041804  -0.008818  3.688524  -0.01  0.030331  -0.003393  3.943199  -0.004  0.022949  -0.003092  3.962182  -0.004  0.088655  0.034583  -0.003667  3.930717  -0.004
C  C37  1  0.30335965  0.14121567  0.87689742  1  0.041842  0.008806  3.68845  0.01  0.030375  0.003393  3.943208  0.004  0.02299  0.003093  3.962187  0.004  0.088667  0.034627  0.003667  3.930732  0.004
C  C38  1  0.63982773  0.39203123  0.29948294  1  -0.001896  0.008396  3.626551  0.008  -0.047015  0.002518  3.881917  0.002  -0.035635  0.002715  3.890931  0.003  -0.03802  -0.054064  0.002357  3.875717  0.002
C  C39  1  0.86017360  0.89203714  0.20051024  1  -0.002409  -0.008395  3.628285  -0.008  -0.047181  -0.002515  3.881918  -0.002  -0.035803  -0.002716  3.890939  -0.003  -0.038035  -0.054226  -0.002357  3.875717  -0.002
C  C40  1  0.36017293  0.60796377  0.70051417  1  -0.001887  0.008403  3.626543  0.008  -0.047089  0.002516  3.881963  0.002  -0.035708  0.002715  3.890979  0.003  -0.038082  -0.054137  0.002357  3.87576  0.002
C  C41  1  0.13982824  0.10796403  0.79949051  1  -0.002006  -0.008388  3.626555  -0.008  -0.0472  -0.002516  3.881986  -0.002  -0.035824  -0.002715  3.891011  -0.003  -0.038074  -0.054246  -0.002357  3.875784  -0.002
C  C42  1  0.25789225  0.33077748  0.19413149  1  0.665472  -0.000974  3.896828  -0.001  0.60892  -0.000438  4.204419  -0.001  0.644408  -0.000279  4.197356  0.0  0.211747  0.585039  -0.000514  4.208163  -0.001
C  C43  1  0.24209738  0.83078059  0.30586376  1  0.665188  0.000971  3.897019  0.001  0.608678  0.000438  4.204544  0.001  0.644168  0.000279  4.197479  0.0  0.211704  0.584798  0.000514  4.208282  0.001
C  C44  1  0.74210434  0.66921958  0.80586753  1  0.66538  -0.000971  3.897074  -0.001  0.60882  -0.000439  4.204625  -0.001  0.644311  -0.000279  4.197558  0.0  0.211675  0.584939  -0.000514  4.208369  -0.001
C  C45  1  0.75790236  0.16921646  0.69413830  1  0.665442  0.000973  3.896925  0.001  0.608898  0.000437  4.204464  0.001  0.644388  0.000279  4.197397  0.0  0.211773  0.585018  0.000514  4.208205  0.001
N  N46  1  0.57130334  0.16276794  0.41421915  1  -0.27548  -0.081649  3.264139  -0.101  -0.224868  -0.053238  3.560534  -0.071  -0.257779  -0.043139  3.581525  -0.061  -0.328624  -0.20446  -0.059111  3.547395  -0.076
N  N47  1  0.92870498  0.66276992  0.08577695  1  -0.275554  0.081643  3.264071  0.101  -0.224965  0.053236  3.560546  0.071  -0.257879  0.04314  3.581534  0.061  -0.328698  -0.20455  0.059108  3.547397  0.076
N  N48  1  0.42869470  0.83723425  0.58578209  1  -0.275498  -0.081652  3.264161  -0.101  -0.224949  -0.053235  3.560629  -0.071  -0.257856  -0.043139  3.581615  -0.061  -0.328681  -0.204534  -0.059108  3.547492  -0.076
N  N49  1  0.07129344  0.33723022  0.91422217  1  -0.275602  0.081641  3.264153  0.101  -0.225032  0.053234  3.560557  0.071  -0.257946  0.043137  3.581541  0.061  -0.3287  -0.204634  0.059105  3.547423  0.076
N  N50  1  0.02460800  0.44274628  0.39693257  1  0.470642  -0.000322  3.983023  0.0  0.521706  -0.00044  4.243974  0.0  0.542801  -0.000303  4.254823  0.0  0.05596  0.507616  -0.000553  4.236783  -0.001
N  N51  1  0.47537362  0.94274070  0.10306560  1  0.501771  0.000309  3.934045  0.0  0.521912  0.000441  4.243928  0.0  0.543006  0.000303  4.254774  0.0  0.05605  0.507823  0.000553  4.236742  0.001
N  N52  1  0.97539593  0.55724872  0.60306687  1  0.470762  -0.000321  3.98289  0.0  0.521843  -0.000442  4.243835  0.0  0.542937  -0.000303  4.254679  0.0  0.056042  0.507755  -0.000553  4.236644  -0.001
N  N53  1  0.52462638  0.05725840  0.89693504  1  0.470796  0.000323  3.982856  0.0  0.521793  0.000441  4.243866  0.0  0.542887  0.000302  4.254712  0.0  0.056003  0.507704  0.000553  4.236681  0.001
O  O54  1  0.05148850  0.27152811  0.19430543  1  -0.598521  0.000987  1.962357  0.001  -0.550453  0.000486  2.18489  0.001  -0.576753  9.7e-05  2.177213  0.0  -0.310061  -0.531534  0.000792  2.18915  0.001
O  O55  1  0.44850759  0.77152789  0.30569529  1  -0.598524  -0.000985  1.96249  -0.001  -0.55042  -0.000487  2.184892  -0.001  -0.576715  -9.6e-05  2.177206  0.0  -0.310078  -0.531502  -0.000792  2.189149  -0.001
O  O56  1  0.94850980  0.72846792  0.80569440  1  -0.598509  0.000984  1.962475  0.001  -0.550447  0.000486  2.184996  0.001  -0.576735  9.7e-05  2.177293  0.0  -0.310025  -0.531527  0.000792  2.18926  0.001
O  O57  1  0.55149792  0.22846813  0.69430568  1  -0.598567  -0.000986  1.962461  -0.001  -0.550507  -0.000486  2.184962  -0.001  -0.576801  -9.6e-05  2.177277  0.0  -0.310117  -0.531588  -0.000792  2.18922  -0.001
O  O58  1  0.32384793  0.41242801  0.12944263  1  -0.669205  0.000752  2.003043  0.002  -0.615449  4.6e-05  2.242843  0.001  -0.644611  -0.000528  2.230275  0.0  -0.320176  -0.594662  0.000715  2.251071  0.002
O  O59  1  0.17613515  0.91242632  0.37055782  1  -0.669138  -0.00075  2.002986  -0.002  -0.615395  -4.5e-05  2.242806  -0.001  -0.644565  0.000528  2.230249  0.0  -0.320191  -0.594603  -0.000714  2.251031  -0.002
O  O60  1  0.67615024  0.58756904  0.87055791  1  -0.669137  0.000752  2.002979  0.002  -0.615411  4.6e-05  2.2428  0.001  -0.644575  -0.000527  2.230234  0.0  -0.320195  -0.594623  0.000715  2.251027  0.002
O  O61  1  0.82386801  0.08756765  0.62944586  1  -0.669285  -0.00075  2.002987  -0.002  -0.615505  -4.5e-05  2.242736  -0.001  -0.644674  0.000528  2.230182  0.0  -0.320196  -0.594715  -0.000714  2.250967  -0.002
O  O62  1  0.04775247  0.54582366  0.34664343  1  -0.337896  -0.001712  1.79763  -0.002  -0.32903  -0.000659  1.99985  -0.001  -0.343742  -0.000409  1.99884  -0.001  -0.114758  -0.31923  -0.000963  2.000702  -0.001
O  O63  1  0.45221718  0.04581284  0.15336041  1  -0.348443  0.001714  1.782473  0.002  -0.329061  0.000661  1.999806  0.001  -0.343772  0.000406  1.998796  0.001  -0.114751  -0.319256  0.000963  2.000662  0.001
O  O64  1  0.95225746  0.45418059  0.65334351  1  -0.337774  -0.00171  1.798157  -0.002  -0.328911  -0.000661  2.000404  -0.001  -0.343626  -0.000403  1.999407  -0.001  -0.114672  -0.319117  -0.000962  2.001261  -0.001
O  O65  1  0.54778833  0.95419346  0.84664056  1  -0.337937  0.00171  1.797816  0.002  -0.328946  0.000653  2.000034  0.001  -0.343655  0.00042  1.999026  0.001  -0.114672  -0.319143  0.000962  2.000894  0.001
O  O66  1  0.17773259  0.40423634  0.46139709  1  -0.334772  -0.000804  1.798836  -0.001  -0.329711  -0.00028  2.001191  0.0  -0.343267  -0.000286  2.000561  0.0  -0.117321  -0.320511  -0.000338  2.001712  0.0
O  O67  1  0.32226241  0.90423493  0.03859906  1  -0.345377  0.000805  1.783712  0.001  -0.329868  0.000278  2.001135  0.0  -0.343429  0.000287  2.000523  0.0  -0.117436  -0.320668  0.000337  2.001662  0.0
O  O68  1  0.82225586  0.59577407  0.53859573  1  -0.334973  -0.000806  1.798216  -0.001  -0.32992  -0.000277  2.000557  0.0  -0.343477  -0.000291  1.999915  0.0  -0.117509  -0.320716  -0.000338  2.001078  0.0
O  O69  1  0.67774023  0.09576315  0.96140745  1  -0.335208  0.000804  1.799117  0.001  -0.32986  0.000285  2.000875  0.0  -0.343419  0.000276  2.000253  0.0  -0.117462  -0.320658  0.000338  2.0014  0.0
O  O70  1  0.73771736  0.87965843  0.43874130  1  -0.805079  -0.077496  1.975578  -0.1  -0.779464  -0.050761  2.199465  -0.071  -0.815497  -0.039587  2.164623  -0.058  -0.582989  -0.755184  -0.057846  2.224321  -0.078
O  O71  1  0.76226641  0.37966117  0.06125659  1  -0.805186  0.077486  1.975554  0.1  -0.779574  0.050759  2.199413  0.071  -0.815607  0.039584  2.164568  0.058  -0.583023  -0.755305  0.057843  2.224267  0.078
O  O72  1  0.26227739  0.12034376  0.56125761  1  -0.805088  -0.077492  1.975511  -0.1  -0.779498  -0.050759  2.199456  -0.071  -0.815529  -0.039586  2.164613  -0.058  -0.583008  -0.755222  -0.057842  2.224316  -0.078
O  O73  1  0.23773163  0.62033897  0.93874465  1  -0.805223  0.077486  1.975538  0.1  -0.779607  0.050758  2.199408  0.071  -0.815641  0.039583  2.164562  0.058  -0.583035  -0.755335  0.057842  2.224265  0.078
