# generated using pymatgen
data_UH12C7N2O7
_symmetry_space_group_name_H-M   'P 1'
_cell_length_a   8.09966156
_cell_length_b   8.46260482
_cell_length_c   9.19513243
_cell_angle_alpha   86.34362430
_cell_angle_beta   74.39837898
_cell_angle_gamma   69.54290899
_symmetry_Int_Tables_number   1
_chemical_formula_structural   UH12C7N2O7
_chemical_formula_sum   'U2 H24 C14 N4 O14'
_cell_volume   568.44758310
_cell_formula_units_Z   2
loop_
 _symmetry_equiv_pos_site_id
 _symmetry_equiv_pos_as_xyz
  1  'x, y, z'
loop_
 _atom_site_type_symbol
 _atom_site_label
 _atom_site_symmetry_multiplicity
 _atom_site_fract_x
 _atom_site_fract_y
 _atom_site_fract_z
 _atom_site_occupancy
 _atom_site_hle17_bader_spin_density
 _atom_site_hle17_ddec_charge
 _atom_site_hle17_ddec_spin_density
 _atom_site_hle17_ddec_sum_bond_order
 _atom_site_hle17_magmom
 _atom_site_hse06_10hf_bader_spin_density
 _atom_site_hse06_10hf_ddec_charge
 _atom_site_hse06_10hf_ddec_spin_density
 _atom_site_hse06_10hf_ddec_sum_bond_order
 _atom_site_hse06_10hf_magmom
 _atom_site_hse06_bader_spin_density
 _atom_site_hse06_ddec_charge
 _atom_site_hse06_ddec_spin_density
 _atom_site_hse06_ddec_sum_bond_order
 _atom_site_hse06_magmom
 _atom_site_pbe_bader_spin_density
 _atom_site_pbe_cm5_charge
 _atom_site_pbe_ddec_charge
 _atom_site_pbe_ddec_spin_density
 _atom_site_pbe_ddec_sum_bond_order
 _atom_site_pbe_magmom
U  U0  1  0.30542225  0.20573981  0.24608858  1  0  2.465484  0  4.164313  0  0  2.523665  0  4.823543  0  0  2.636513  0  4.783748  0  0  2.182442  2.444276  0  4.851855  0
U  U1  1  0.69457884  0.79425945  0.75391180  1  0  2.465451  0  4.164429  0  0  2.523636  0  4.823622  0  0  2.636472  0  4.78385  0  0  2.18245  2.444227  0  4.851957  0
H  H2  1  0.81635291  0.42273483  0.34169228  1  0  0.297919  0  0.887895  0  0  0.282725  0  0.944788  0  0  0.289114  0  0.940933  0  0  0.326605  0.278204  0  0.947678  0
H  H3  1  0.18364642  0.57726570  0.65830737  1  0  0.297916  0  0.88789  0  0  0.282724  0  0.944794  0  0  0.289112  0  0.940938  0  0  0.326598  0.278202  0  0.947685  0
H  H4  1  0.61733883  0.10970269  0.42862349  1  0  0.360124  0  0.881039  0  0  0.342809  0  0.941581  0  0  0.350169  0  0.934772  0  0  0.321201  0.337711  0  0.946427  0
H  H5  1  0.38266226  0.89029658  0.57137581  1  0  0.360117  0  0.881047  0  0  0.3428  0  0.941593  0  0  0.35016  0  0.934782  0  0  0.321198  0.337701  0  0.946438  0
H  H6  1  0.81431637  0.16158686  0.41960468  1  0  0.357661  0  0.916532  0  0  0.339968  0  0.975888  0  0  0.34901  0  0.9681  0  0  0.308109  0.333557  0  0.981435  0
H  H7  1  0.18568474  0.83841240  0.58039679  1  0  0.357639  0  0.916569  0  0  0.339944  0  0.975928  0  0  0.348986  0  0.968141  0  0  0.308113  0.333534  0  0.981475  0
H  H8  1  0.82274156  0.17372432  0.66750030  1  0  0.103307  0  0.94898  0  0  0.115126  0  1.013129  0  0  0.117512  0  1.012206  0  0  0.106249  0.113382  0  1.013919  0
H  H9  1  0.17725953  0.82627495  0.33250008  1  0  0.103296  0  0.949001  0  0  0.115115  0  1.013146  0  0  0.117499  0  1.012224  0  0  0.106244  0.113371  0  1.013937  0
H  H10  1  0.80394237  0.38451445  0.69979821  1  0  0.120853  0  0.952773  0  0  0.131226  0  1.020169  0  0  0.134111  0  1.018378  0  0  0.113857  0.129184  0  1.021617  0
H  H11  1  0.19605744  0.61548481  0.30020248  1  0  0.120873  0  0.952744  0  0  0.131228  0  1.020154  0  0  0.134113  0  1.018363  0  0  0.113868  0.129189  0  1.021598  0
H  H12  1  0.07434646  0.07009866  0.80037972  1  0  0.063744  0  0.949264  0  0  0.080468  0  1.013659  0  0  0.081445  0  1.013853  0  0  0.091475  0.079639  0  1.013707  0
H  H13  1  0.92565287  0.92990188  0.19961992  1  0  0.063745  0  0.949257  0  0  0.080464  0  1.013659  0  0  0.08144  0  1.013854  0  0  0.091475  0.079635  0  1.013707  0
H  H14  1  0.05285740  0.28147557  0.83203517  1  0  0.084981  0  0.931633  0  0  0.105518  0  0.986587  0  0  0.106271  0  0.987021  0  0  0.103637  0.105059  0  0.986172  0
H  H15  1  0.94714194  0.71852496  0.16796556  1  0  0.084982  0  0.931647  0  0  0.105516  0  0.986604  0  0  0.106269  0  0.987038  0  0  0.103643  0.105058  0  0.986187  0
H  H16  1  0.88468310  0.17534219  0.05939282  1  0  0.123151  0  0.927336  0  0  0.137246  0  0.987785  0  0  0.139446  0  0.987416  0  0  0.114007  0.135403  0  0.988688  0
H  H17  1  0.11531542  0.82465708  0.94060709  1  0  0.123157  0  0.927352  0  0  0.137234  0  0.987786  0  0  0.139432  0  0.987423  0  0  0.114023  0.135392  0  0.988687  0
H  H18  1  0.73438980  0.34783611  0.98728271  1  0  0.119287  0  0.920218  0  0  0.136658  0  0.973174  0  0  0.138605  0  0.973087  0  0  0.113731  0.135292  0  0.973279  0
H  H19  1  0.26561001  0.65216316  0.01271798  1  0  0.119288  0  0.920237  0  0  0.13664  0  0.973187  0  0  0.138587  0  0.973101  0  0  0.113735  0.135275  0  0.973291  0
H  H20  1  0.63283922  0.71237521  0.29762832  1  0  0.108556  0  0.949211  0  0  0.129088  0  1.010608  0  0  0.130186  0  1.009486  0  0  0.107199  0.128301  0  1.011455  0
H  H21  1  0.36716187  0.28762406  0.70237097  1  0  0.108545  0  0.949206  0  0  0.129074  0  1.010609  0  0  0.130172  0  1.009486  0  0  0.107195  0.128286  0  1.011458  0
H  H22  1  0.50130341  0.62543102  0.22184462  1  0  0.10181  0  0.956534  0  0  0.123476  0  1.017939  0  0  0.124309  0  1.017916  0  0  0.110957  0.122771  0  1.018035  0
H  H23  1  0.49869463  0.37456952  0.77815425  1  0  0.101796  0  0.956554  0  0  0.123471  0  1.017948  0  0  0.124304  0  1.017926  0  0  0.110963  0.122767  0  1.018044  0
H  H24  1  0.73084590  0.59739609  0.12028333  1  0  0.093555  0  0.944167  0  0  0.1117  0  1.012186  0  0  0.112122  0  1.011166  0  0  0.106894  0.11149  0  1.012845  0
H  H25  1  0.26915389  0.40260318  0.87971519  1  0  0.093536  0  0.944171  0  0  0.111685  0  1.012185  0  0  0.112106  0  1.011167  0  0  0.106898  0.111475  0  1.012843  0
C  C26  1  0.03923301  0.24620664  0.53496703  1  0  0.703007  0  3.798769  0  0  0.665482  0  4.103977  0  0  0.701353  0  4.095943  0  0  0.215245  0.641124  0  4.108198  0
C  C27  1  0.96076585  0.75379516  0.46503265  1  0  0.703053  0  3.798795  0  0  0.665528  0  4.103988  0  0  0.701401  0  4.095953  0  0  0.215272  0.641169  0  4.108208  0
C  C28  1  0.89937146  0.25332104  0.68167745  1  0  -0.278722  0  3.663608  0  0  -0.309565  0  3.900454  0  0  -0.315588  0  3.906983  0  0  -0.161649  -0.305418  0  3.89595  0
C  C29  1  0.10062917  0.74667948  0.31832297  1  0  -0.27876  0  3.663612  0  0  -0.309598  0  3.900485  0  0  -0.315618  0  3.907009  0  0  -0.161678  -0.305453  0  3.895978  0
C  C30  1  0.97767016  0.20043122  0.81838930  1  0  -0.043005  0  3.658039  0  0  -0.086525  0  3.912821  0  0  -0.085503  0  3.925697  0  0  -0.156447  -0.086869  0  3.903589  0
C  C31  1  0.02232964  0.79956805  0.18161031  1  0  -0.042988  0  3.658074  0  0  -0.086522  0  3.912826  0  0  -0.0855  0  3.925705  0  0  -0.156453  -0.086863  0  3.90359  0
C  C32  1  0.82498815  0.21596636  0.96282730  1  0  -0.280114  0  3.636068  0  0  -0.318915  0  3.877305  0  0  -0.326424  0  3.885703  0  0  -0.152983  -0.313668  0  3.871692  0
C  C33  1  0.17501037  0.78403291  0.03717262  1  0  -0.280068  0  3.636184  0  0  -0.318803  0  3.877243  0  0  -0.326308  0  3.885628  0  0  -0.152957  -0.313561  0  3.871636  0
C  C34  1  0.70855854  0.11042215  0.95999087  1  0  0.767879  0  3.741668  0  0  0.743138  0  4.030706  0  0  0.783791  0  4.016395  0  0  0.261621  0.714959  0  4.039514  0
C  C35  1  0.29144045  0.88957586  0.04000901  1  0  0.76766  0  3.741735  0  0  0.743027  0  4.030586  0  0  0.78368  0  4.016277  0  0  0.261578  0.714848  0  4.039393  0
C  C36  1  0.61234906  0.33650817  0.33834876  1  0  0.793713  0  3.875669  0  0  0.732939  0  4.176573  0  0  0.770006  0  4.171097  0  0  0.350468  0.707574  0  4.17949  0
C  C37  1  0.38765202  0.66349110  0.66165053  1  0  0.793671  0  3.875785  0  0  0.732882  0  4.176698  0  0  0.769951  0  4.171227  0  0  0.350426  0.707516  0  4.179617  0
C  C38  1  0.63765658  0.60544132  0.23352161  1  0  -0.104303  0  3.652168  0  0  -0.207796  0  3.912683  0  0  -0.20215  0  3.919818  0  0  -0.132667  -0.211527  0  3.90762  0
C  C39  1  0.36234451  0.39455795  0.76647877  1  0  -0.104245  0  3.652144  0  0  -0.207733  0  3.912669  0  0  -0.202089  0  3.919807  0  0  -0.132665  -0.211464  0  3.907608  0
N  N40  1  0.69677327  0.45074237  0.31302952  1  0  -0.410617  0  3.280433  0  0  -0.343962  0  3.529809  0  0  -0.365559  0  3.537197  0  0  -0.418417  -0.328984  0  3.52444  0
N  N41  1  0.30322607  0.54925816  0.68697121  1  0  -0.410612  0  3.280447  0  0  -0.343982  0  3.529858  0  0  -0.36558  0  3.537246  0  0  -0.418404  -0.329004  0  3.524493  0
N  N42  1  0.68856450  0.18979121  0.39959361  1  0  -0.744881  0  3.060161  0  0  -0.71309  0  3.29847  0  0  -0.735019  0  3.288957  0  0  -0.573827  -0.698108  0  3.304976  0
N  N43  1  0.31143484  0.81020932  0.60040712  1  0  -0.744869  0  3.060215  0  0  -0.713064  0  3.298537  0  0  -0.734994  0  3.289023  0  0  -0.573841  -0.698078  0  3.305035  0
O  O44  1  0.15549426  0.38785454  0.17299262  1  0  -0.70996  0  1.526151  0  0  -0.712736  0  1.806808  0  0  -0.733409  0  1.792455  0  0  -0.756138  -0.700448  0  1.8176  0
O  O45  1  0.84450507  0.61214600  0.82700703  1  0  -0.709962  0  1.526262  0  0  -0.712723  0  1.806906  0  0  -0.733393  0  1.792557  0  0  -0.756144  -0.700428  0  1.817697  0
O  O46  1  0.44842170  0.02165405  0.32317863  1  0  -0.735051  0  1.566232  0  0  -0.73679  0  1.851629  0  0  -0.758439  0  1.838386  0  0  -0.757559  -0.723695  0  1.86132  0
O  O47  1  0.55157892  0.97834647  0.67682180  1  0  -0.735052  0  1.566228  0  0  -0.736793  0  1.85162  0  0  -0.758438  0  1.838372  0  0  -0.75755  -0.723693  0  1.861314  0
O  O48  1  0.03266532  0.17272910  0.41804443  1  0  -0.682332  0  2.007749  0  0  -0.654573  0  2.263166  0  0  -0.687075  0  2.257997  0  0  -0.362232  -0.63153  0  2.265949  0
O  O49  1  0.96733449  0.82727016  0.58195626  1  0  -0.682331  0  2.007774  0  0  -0.654571  0  2.263179  0  0  -0.687072  0  2.258009  0  0  -0.362227  -0.631523  0  2.265962  0
O  O50  1  0.16301052  0.31040522  0.51872948  1  0  -0.620642  0  1.923253  0  0  -0.600028  0  2.170386  0  0  -0.630802  0  2.166482  0  0  -0.32843  -0.57801  0  2.171984  0
O  O51  1  0.83698834  0.68959658  0.48127020  1  0  -0.620653  0  1.923269  0  0  -0.600034  0  2.170396  0  0  -0.630805  0  2.166485  0  0  -0.328443  -0.578022  0  2.172016  0
O  O52  1  0.78149379  0.96920894  0.88748662  1  0  -0.652081  0  2.019471  0  0  -0.637149  0  2.284951  0  0  -0.672157  0  2.277016  0  0  -0.356961  -0.611832  0  2.289426  0
O  O53  1  0.21850778  0.03078906  0.11251480  1  0  -0.651997  0  2.019425  0  0  -0.637123  0  2.284878  0  0  -0.672134  0  2.276941  0  0  -0.356961  -0.611811  0  2.289355  0
O  O54  1  0.53934497  0.16765038  0.03053649  1  0  -0.692542  0  2.098829  0  0  -0.686396  0  2.384826  0  0  -0.724297  0  2.37709  0  0  -0.381215  -0.658888  0  2.388572  0
O  O55  1  0.46065483  0.83234890  0.96946203  1  0  -0.692445  0  2.098814  0  0  -0.68635  0  2.38477  0  0  -0.724248  0  2.377028  0  0  -0.381215  -0.658841  0  2.388523  0
O  O56  1  0.46048574  0.36880426  0.30291007  1  0  -0.710788  0  2.052725  0  0  -0.693708  0  2.334215  0  0  -0.727547  0  2.327951  0  0  -0.395177  -0.66895  0  2.336941  0
O  O57  1  0.53951534  0.63119501  0.69708922  1  0  -0.710737  0  2.052749  0  0  -0.693669  0  2.334283  0  0  -0.727495  0  2.327987  0  0  -0.395135  -0.668902  0  2.337002  0
