# generated using pymatgen
data_NiH21C21(N4O3)2
_symmetry_space_group_name_H-M   'P 1'
_cell_length_a   9.73929584
_cell_length_b   10.06052339
_cell_length_c   11.73303352
_cell_angle_alpha   98.96231137
_cell_angle_beta   101.29250566
_cell_angle_gamma   91.52676909
_symmetry_Int_Tables_number   1
_chemical_formula_structural   NiH21C21(N4O3)2
_chemical_formula_sum   'Ni2 H42 C42 N16 O12'
_cell_volume   1111.67053198
_cell_formula_units_Z   2
loop_
 _symmetry_equiv_pos_site_id
 _symmetry_equiv_pos_as_xyz
  1  'x, y, z'
loop_
 _atom_site_type_symbol
 _atom_site_label
 _atom_site_symmetry_multiplicity
 _atom_site_fract_x
 _atom_site_fract_y
 _atom_site_fract_z
 _atom_site_occupancy
 _atom_site_pbe_cm5_charge
 _atom_site_pbe_ddec_charge
 _atom_site_pbe_ddec_spin_density
 _atom_site_pbe_ddec_sum_bond_order
 _atom_site_pbe_magmom
Ni  Ni0  1  0.01357681  0.23453526  0.23858171  1  0.612741  0.472066  0.0  2.783911  0.0
Ni  Ni1  1  0.98643041  0.76546934  0.76142011  1  0.612798  0.472064  -5e-06  2.78403  0.0
H  H2  1  0.80610427  0.45334878  0.15906612  1  0.135954  0.106069  -3e-06  1.022457  0.0
H  H3  1  0.19390082  0.54665599  0.84092687  1  0.135963  0.106073  -0.0  1.022304  0.0
H  H4  1  0.05584134  0.19993837  0.97222249  1  0.122998  0.120327  -1.2e-05  1.012591  0.0
H  H5  1  0.94415748  0.80006658  0.02776953  1  0.122986  0.120417  -2e-06  1.012337  0.0
H  H6  1  0.88602769  0.33569453  0.81614156  1  0.121233  0.133443  -4e-06  1.059797  0.0
H  H7  1  0.11394576  0.66428482  0.18384960  1  0.121271  0.1335  -2e-06  1.059423  0.0
H  H8  1  0.74752238  0.56171742  0.86688184  1  0.117909  0.115539  -2e-06  0.983294  0.0
H  H9  1  0.25247952  0.43828635  0.13311731  1  0.117892  0.115495  -5e-06  0.983296  0.0
H  H10  1  0.68740305  0.57724465  0.00049057  1  0.111806  0.098631  -1e-06  1.011707  0.0
H  H11  1  0.31258916  0.42275641  0.99950410  1  0.111844  0.098686  0.0  1.011636  0.0
H  H12  1  0.58829805  0.27345415  0.97967739  1  0.097245  0.095028  0.0  1.04471  0.0
H  H13  1  0.41171361  0.72653250  0.02029275  1  0.097264  0.095104  0.0  1.044559  0.0
H  H14  1  0.36035291  0.15504733  0.88196878  1  0.098052  0.100723  -1e-06  1.030849  0.0
H  H15  1  0.63965801  0.84494232  0.11800593  1  0.098096  0.100837  -0.0  1.030827  0.0
H  H16  1  0.29978324  0.43431855  0.63470565  1  0.102264  0.110456  0.0  1.022702  0.0
H  H17  1  0.70019909  0.56569988  0.36529675  1  0.102229  0.110388  0.0  1.0227  0.0
H  H18  1  0.52970130  0.55029126  0.73191178  1  0.102598  0.103448  0.0  1.034576  0.0
H  H19  1  0.47029020  0.44972502  0.26808068  1  0.102596  0.103447  0.0  1.034516  0.0
H  H20  1  0.15190372  0.13114735  0.74137319  1  0.117618  0.108209  -2e-06  0.962298  0.0
H  H21  1  0.84809348  0.86886148  0.25863702  1  0.117651  0.108272  1e-06  0.962409  0.0
H  H22  1  0.08533394  0.28819432  0.71298017  1  0.114117  0.101211  -0.0  1.021615  0.0
H  H23  1  0.91465714  0.71180573  0.28701673  1  0.11408  0.101135  1e-06  1.021687  0.0
H  H24  1  0.06401967  0.34935435  0.50725446  1  0.134112  0.105356  -1.7e-05  1.055978  0.0
H  H25  1  0.93598873  0.65064007  0.49275036  1  0.134103  0.10537  -2e-06  1.056061  0.0
H  H26  1  0.21499549  0.96989952  0.56648625  1  0.120933  0.12029  -6e-06  1.030885  0.0
H  H27  1  0.78500228  0.03009316  0.43351834  1  0.120922  0.120258  -1e-06  1.030853  0.0
H  H28  1  0.13390556  0.96710762  0.32583026  1  0.122157  0.128146  -2e-05  1.005803  0.0
H  H29  1  0.86613489  0.03289405  0.67417216  1  0.122159  0.128016  -3e-06  1.005896  0.0
H  H30  1  0.81804778  0.30758436  0.43502931  1  0.140413  0.106881  1e-05  1.056827  0.0
H  H31  1  0.18196518  0.69240285  0.56497521  1  0.140433  0.106907  2e-06  1.056661  0.0
H  H32  1  0.74275649  0.11305104  0.07933306  1  0.119236  0.120564  1.1e-05  1.041918  0.0
H  H33  1  0.25722058  0.88694428  0.92066776  1  0.119219  0.120596  2e-06  1.041791  0.0
H  H34  1  0.49019647  0.13007964  0.15568277  1  0.12145  0.131614  9e-06  1.073941  0.0
H  H35  1  0.50979600  0.86993431  0.84433339  1  0.121462  0.131538  2e-06  1.07396  0.0
H  H36  1  0.42508044  0.26514475  0.34510885  1  0.115823  0.113972  7e-06  0.986511  0.0
H  H37  1  0.57492432  0.73485464  0.65491060  1  0.115807  0.113985  1e-06  0.9865  0.0
H  H38  1  0.56501072  0.32978444  0.46560258  1  0.119118  0.117084  0.0  0.988033  0.0
H  H39  1  0.43499184  0.67021407  0.53441127  1  0.119102  0.117091  1e-06  0.988009  0.0
H  H40  1  0.58165473  0.21961901  0.62807833  1  0.098925  0.104528  -0.0  1.034013  0.0
H  H41  1  0.41836123  0.78037708  0.37193816  1  0.098886  0.104441  -1e-06  1.033801  0.0
H  H42  1  0.44060643  0.98427270  0.28258613  1  0.095753  0.094702  0.0  1.031024  0.0
H  H43  1  0.55940753  0.01572447  0.71742933  1  0.09573  0.094701  0.0  1.030892  0.0
C  C44  1  0.85220141  0.40203062  0.08876309  1  0.142952  0.079247  -5e-05  3.889981  0.0
C  C45  1  0.14780350  0.59797212  0.91123043  1  0.142937  0.079245  -7e-06  3.8894  0.0
C  C46  1  0.98113628  0.27409558  0.98921680  1  -0.002301  -0.033042  -4e-06  3.981533  0.0
C  C47  1  0.01887362  0.72589282  0.01077972  1  -0.002402  -0.033241  1e-06  3.981819  0.0
C  C48  1  0.89822323  0.34077148  0.91088371  1  0.00047  -0.097896  -5.8e-05  3.881878  0.0
C  C49  1  0.10175998  0.65922393  0.08909509  1  0.000543  -0.097792  -1e-05  3.882048  0.0
C  C50  1  0.70766535  0.50379683  0.92672096  1  -0.043613  -0.111665  -1.1e-05  3.874972  0.0
C  C51  1  0.29232883  0.49620319  0.07327132  1  -0.043567  -0.11159  -7e-06  3.874824  0.0
C  C52  1  0.57314638  0.42291470  0.86442154  1  -0.011437  0.089005  -0.0  3.961108  0.0
C  C53  1  0.42684854  0.57709343  0.13556775  1  -0.01157  0.088722  -0.0  3.96146  0.0
C  C54  1  0.52528422  0.30988560  0.90454959  1  -0.093044  -0.124848  -2e-06  3.971925  0.0
C  C55  1  0.47471409  0.69010335  0.09542728  1  -0.093061  -0.124806  -0.0  3.971952  0.0
C  C56  1  0.39627224  0.24293095  0.84927968  1  -0.093316  -0.138953  -2e-06  3.998591  0.0
C  C57  1  0.60372695  0.75706700  0.15070458  1  -0.093437  -0.139243  -1e-06  3.998612  0.0
C  C58  1  0.31193343  0.28785198  0.75336794  1  -0.015518  0.080193  -1e-06  3.978411  0.0
C  C59  1  0.68806472  0.71215703  0.24662454  1  -0.015477  0.080217  0.0  3.978412  0.0
C  C60  1  0.36116856  0.39957564  0.71163446  1  -0.091325  -0.12999  -1e-06  3.963078  0.0
C  C61  1  0.63881871  0.60043965  0.28836572  1  -0.091282  -0.129861  -0.0  3.963036  0.0
C  C62  1  0.49063844  0.46544675  0.76634533  1  -0.088504  -0.124793  -1e-06  3.969886  0.0
C  C63  1  0.50935677  0.53456436  0.23364699  1  -0.088418  -0.124666  0.0  3.969837  0.0
C  C64  1  0.16864289  0.21915296  0.69981042  1  -0.043888  -0.110351  -1.4e-05  3.878509  0.0
C  C65  1  0.83135323  0.78085600  0.30019111  1  -0.043906  -0.110453  -1e-06  3.878639  0.0
C  C66  1  0.09191305  0.24572346  0.48886065  1  0.143407  0.0849  -4e-05  3.876146  0.0
C  C67  1  0.90809496  0.75426696  0.51114098  1  0.143377  0.084607  -8e-06  3.876285  0.0
C  C68  1  0.17151823  0.04681814  0.51758646  1  0.006845  -0.082082  -5.3e-05  3.917456  0.0
C  C69  1  0.82849783  0.95318014  0.48241586  1  0.006852  -0.082091  -8e-06  3.917279  0.0
C  C70  1  0.13115958  0.04650041  0.39885702  1  -0.002784  -0.046253  -5e-06  3.968195  0.0
C  C71  1  0.86886922  0.95349951  0.60114926  1  -0.002813  -0.04619  -1e-06  3.968011  0.0
C  C72  1  0.76608044  0.25962869  0.34789412  1  0.145406  0.085683  -7e-06  3.856553  0.0
C  C73  1  0.23392475  0.74036477  0.65211347  1  0.145462  0.0859  -1e-06  3.856391  0.0
C  C74  1  0.72145532  0.15699479  0.16405291  1  -0.008019  -0.064432  6.2e-05  3.991774  0.0
C  C75  1  0.27853351  0.84300324  0.83594846  1  -0.008005  -0.064397  1e-05  3.991422  0.0
C  C76  1  0.59655287  0.16287066  0.20130292  1  -0.000196  -0.10611  6.8e-05  3.918422  0.0
C  C77  1  0.40344300  0.83713518  0.79870580  1  -4.2e-05  -0.105762  1.1e-05  3.918275  0.0
C  C78  1  0.52640749  0.24285281  0.39661353  1  -0.04383  -0.113849  8e-06  3.844664  0.0
C  C79  1  0.47359676  0.75715274  0.60340073  1  -0.043762  -0.113846  1e-06  3.844631  0.0
C  C80  1  0.51166644  0.11688241  0.44965979  1  -0.01498  0.083726  -1e-06  3.975604  0.0
C  C81  1  0.48834457  0.88311686  0.55035636  1  -0.015176  0.08353  -1e-06  3.975617  0.0
C  C82  1  0.54411279  0.12363524  0.57198380  1  -0.091021  -0.123835  -1e-06  3.979956  0.0
C  C83  1  0.45589849  0.87636708  0.42803027  1  -0.090852  -0.123574  -0.0  3.979438  0.0
C  C84  1  0.46730462  0.99224001  0.37826698  1  -0.096469  -0.1385  0.0  3.999828  0.0
C  C85  1  0.53270656  0.00776130  0.62174693  1  -0.096378  -0.138363  0.0  3.999568  0.0
N  N86  1  0.95107079  0.31209319  0.09985581  1  -0.364254  -0.232295  -0.000507  3.677976  0.0
N  N87  1  0.04892955  0.68791676  0.90013801  1  -0.364226  -0.2323  -8.2e-05  3.677808  0.0
N  N88  1  0.81811605  0.42121482  0.97530062  1  -0.239778  0.049732  -2e-05  3.793453  0.0
N  N89  1  0.18188026  0.57878505  0.02469880  1  -0.239828  0.049716  -3e-06  3.793507  0.0
N  N90  1  0.08199162  0.17148309  0.38230923  1  -0.363224  -0.225555  -0.000622  3.697142  0.0
N  N91  1  0.91802776  0.82851715  0.61769134  1  -0.363257  -0.225371  -0.0001  3.697067  0.0
N  N92  1  0.14570640  0.17237339  0.57271415  1  -0.237699  0.050426  -3.3e-05  3.771504  0.0
N  N93  1  0.85429687  0.82762219  0.42729002  1  -0.237564  0.050826  -5e-06  3.77117  0.0
N  N94  1  0.82639766  0.21859980  0.25643810  1  -0.360519  -0.212992  0.000771  3.71744  0.001
N  N95  1  0.17359887  0.78139092  0.74356431  1  -0.360544  -0.213117  0.000124  3.717713  0.0
N  N96  1  0.62621739  0.22758092  0.31677649  1  -0.238864  0.049245  5.1e-05  3.764914  0.0
N  N97  1  0.37378458  0.77242267  0.68323714  1  -0.239066  0.048757  8e-06  3.765382  0.0
N  N98  1  0.14977069  0.55418946  0.37968295  1  0.08377  0.705614  -5.3e-05  4.43897  0.0
N  N99  1  0.85022044  0.44580060  0.62030232  1  0.083763  0.705576  -7e-06  4.43935  0.0
N  N100  1  0.19848367  0.09183465  0.12776266  1  0.101653  0.688492  5e-06  4.395126  0.0
N  N101  1  0.80150423  0.90817544  0.87224795  1  0.101766  0.688793  0.0  4.394834  0.0
O  O102  1  0.02687151  0.49720753  0.35873613  1  -0.205556  -0.484297  -0.000216  1.986147  0.0
O  O103  1  0.97313210  0.50275033  0.64120561  1  -0.205527  -0.484156  -3.8e-05  1.986172  0.0
O  O104  1  0.16438897  0.67611763  0.36361014  1  -0.214035  -0.480704  -7.9e-05  1.940564  0.0
O  O105  1  0.83557680  0.32388001  0.63639178  1  -0.214108  -0.480773  -1.2e-05  1.940661  0.0
O  O106  1  0.25593998  0.49220622  0.41772036  1  -0.206231  -0.465275  -6e-06  1.906118  0.0
O  O107  1  0.74405855  0.50780559  0.58229134  1  -0.206201  -0.465304  -1e-06  1.906273  0.0
O  O108  1  0.10133663  0.00720425  0.12285761  1  -0.149589  -0.407677  0.000138  2.024559  0.0
O  O109  1  0.89862319  0.99283096  0.87714701  1  -0.149587  -0.4077  2.1e-05  2.02478  0.0
O  O110  1  0.19987871  0.21292815  0.19181548  1  -0.183177  -0.394248  0.000557  2.09158  0.001
O  O111  1  0.80013449  0.78708437  0.80818757  1  -0.183395  -0.394611  8.9e-05  2.091581  0.0
O  O112  1  0.29648654  0.07021753  0.07373524  1  -0.163827  -0.404999  0.000166  1.980012  0.0
O  O113  1  0.70350118  0.92975604  0.92628208  1  -0.1637  -0.404912  2.7e-05  1.979629  0.0
