# generated using pymatgen
data_KAgH24C12(ClO3)2
_symmetry_space_group_name_H-M   'P 1'
_cell_length_a   7.88529996
_cell_length_b   8.67082085
_cell_length_c   13.74459283
_cell_angle_alpha   102.81958597
_cell_angle_beta   89.99989128
_cell_angle_gamma   90.00014104
_symmetry_Int_Tables_number   1
_chemical_formula_structural   KAgH24C12(ClO3)2
_chemical_formula_sum   'K2 Ag2 H48 C24 Cl4 O12'
_cell_volume   916.32111224
_cell_formula_units_Z   2
loop_
 _symmetry_equiv_pos_site_id
 _symmetry_equiv_pos_as_xyz
  1  'x, y, z'
loop_
 _atom_site_type_symbol
 _atom_site_label
 _atom_site_symmetry_multiplicity
 _atom_site_fract_x
 _atom_site_fract_y
 _atom_site_fract_z
 _atom_site_occupancy
 _atom_site_hle17_bader_spin_density
 _atom_site_hle17_ddec_charge
 _atom_site_hle17_ddec_spin_density
 _atom_site_hle17_ddec_sum_bond_order
 _atom_site_hle17_magmom
 _atom_site_hse06_10hf_bader_charge
 _atom_site_hse06_10hf_bader_spin_density
 _atom_site_hse06_10hf_ddec_charge
 _atom_site_hse06_10hf_ddec_spin_density
 _atom_site_hse06_10hf_ddec_sum_bond_order
 _atom_site_hse06_10hf_magmom
 _atom_site_hse06_bader_spin_density
 _atom_site_hse06_ddec_charge
 _atom_site_hse06_ddec_spin_density
 _atom_site_hse06_ddec_sum_bond_order
 _atom_site_hse06_magmom
 _atom_site_pbe_bader_spin_density
 _atom_site_pbe_cm5_charge
 _atom_site_pbe_ddec_charge
 _atom_site_pbe_ddec_spin_density
 _atom_site_pbe_ddec_sum_bond_order
 _atom_site_pbe_magmom
K  K0  1  0.49999858  0.50000324  0.50000133  1  0  0.873799  0  0.529111  0  0.874464  0  0.791919  0  0.741955  0  0  0.8099  0  0.718615  0  0  0.6991  0.779597  0  0.757345  0
K  K1  1  0.00000132  0.99999894  0.00000046  1  0  0.87379  0  0.529133  0  0.874465  0  0.791915  0  0.741963  0  0  0.809899  0  0.718621  0  0  0.699101  0.779591  0  0.757353  0
Ag  Ag2  1  0.99999985  0.50000138  0.50000007  1  0  0.45864  0  1.590733  0  0.43354  0  0.334891  0  2.067151  0  0  0.367767  0  2.017393  0  0  0.306705  0.311909  0  2.101874  0
Ag  Ag3  1  0.50000127  0.00000168  0.99999996  1  0  0.458643  0  1.590718  0  0.433531  0  0.33489  0  2.067131  0  0  0.367773  0  2.017375  0  0  0.306702  0.311911  0  2.101858  0
H  H4  1  0.69633063  0.54078448  0.75202349  1  0  0.046283  0  0.945553  0  0.055859  0  0.056606  0  1.021215  0  0  0.057935  0  1.019014  0  0  0.096068  0.055459  0  1.022942  0
H  H5  1  0.19632739  0.95921045  0.74797659  1  0  0.046306  0  0.945603  0  0.055928  0  0.056592  0  1.021297  0  0  0.057936  0  1.019079  0  0  0.096075  0.055444  0  1.023025  0
H  H6  1  0.30366779  0.45921609  0.24797689  1  0  0.046303  0  0.945517  0  0.055852  0  0.056629  0  1.021201  0  0  0.057959  0  1.018994  0  0  0.0961  0.055482  0  1.022929  0
H  H7  1  0.80366850  0.04078421  0.25202297  1  0  0.046285  0  0.945519  0  0.055854  0  0.056605  0  1.021199  0  0  0.057934  0  1.018995  0  0  0.09608  0.055459  0  1.022927  0
H  H8  1  0.54189255  0.60144530  0.84868917  1  0  0.056123  0  0.936301  0  0.06522  0  0.070006  0  1.002836  0  0  0.070266  0  1.00278  0  0  0.095845  0.069767  0  1.00269  0
H  H9  1  0.04188819  0.89855169  0.65130990  1  0  0.056099  0  0.936297  0  0.065205  0  0.070011  0  1.002808  0  0  0.070228  0  1.002796  0  0  0.095821  0.06977  0  1.002666  0
H  H10  1  0.45810841  0.39855527  0.15130902  1  0  0.056096  0  0.936227  0  0.065196  0  0.070061  0  1.00272  0  0  0.070282  0  1.002698  0  0  0.09586  0.069822  0  1.002576  0
H  H11  1  0.95810769  0.10144534  0.34868926  1  0  0.056106  0  0.936294  0  0.065223  0  0.070016  0  1.002816  0  0  0.07026  0  1.002771  0  0  0.095842  0.069778  0  1.002673  0
H  H12  1  0.41321360  0.33434013  0.79681784  1  0  0.056398  0  0.949659  0  0.073528  0  0.067516  0  1.020014  0  0  0.068051  0  1.019836  0  0  0.090077  0.067037  0  1.020144  0
H  H13  1  0.91321353  0.16565866  0.70318266  1  0  0.056421  0  0.949621  0  0.073693  0  0.067527  0  1.02  0  0  0.068063  0  1.019818  0  0  0.090069  0.067048  0  1.020132  0
H  H14  1  0.58678736  0.66566162  0.20318197  1  0  0.056404  0  0.949608  0  0.073616  0  0.067515  0  1.019975  0  0  0.068049  0  1.019797  0  0  0.090078  0.067035  0  1.020107  0
H  H15  1  0.08678869  0.83434073  0.29681756  1  0  0.056483  0  0.949581  0  0.073732  0  0.067568  0  1.019966  0  0  0.068105  0  1.019782  0  0  0.090103  0.067089  0  1.020098  0
H  H16  1  0.57507310  0.28837199  0.70312128  1  0  0.059681  0  0.936151  0  0.055617  0  0.073497  0  1.003104  0  0  0.074029  0  1.003034  0  0  0.099094  0.07308  0  1.003202  0
H  H17  1  0.07507411  0.21162495  0.79687934  1  0  0.05972  0  0.936111  0  0.05549  0  0.073528  0  1.003067  0  0  0.074059  0  1.003001  0  0  0.09912  0.073113  0  1.003164  0
H  H18  1  0.42492659  0.71162977  0.29687927  1  0  0.059655  0  0.936147  0  0.055541  0  0.073469  0  1.003108  0  0  0.074001  0  1.003038  0  0  0.099092  0.073053  0  1.003206  0
H  H19  1  0.92492684  0.78837090  0.20312111  1  0  0.059703  0  0.936139  0  0.055627  0  0.073512  0  1.003092  0  0  0.074045  0  1.003021  0  0  0.099094  0.073096  0  1.00319  0
H  H20  1  0.30331284  0.12756068  0.66783518  1  0  0.041925  0  0.951579  0  0.031683  0  0.054686  0  1.024941  0  0  0.054811  0  1.024438  0  0  0.095761  0.054535  0  1.025363  0
H  H21  1  0.80331289  0.37243671  0.83216379  1  0  0.041937  0  0.951588  0  0.031694  0  0.054706  0  1.024941  0  0  0.054832  0  1.024438  0  0  0.095765  0.054555  0  1.025363  0
H  H22  1  0.69668812  0.87243752  0.33216487  1  0  0.041907  0  0.951618  0  0.031675  0  0.054675  0  1.024972  0  0  0.054799  0  1.024466  0  0  0.095767  0.054524  0  1.025394  0
H  H23  1  0.19668806  0.62756268  0.16783497  1  0  0.04193  0  0.951571  0  0.031695  0  0.054699  0  1.024926  0  0  0.054826  0  1.024423  0  0  0.09577  0.054548  0  1.025348  0
H  H24  1  0.19739575  0.30206832  0.65144518  1  0  0.048424  0  0.935889  0  0.068301  0  0.059302  0  1.011204  0  0  0.060153  0  1.009702  0  0  0.095575  0.058567  0  1.012291  0
H  H25  1  0.69739530  0.19793122  0.84855567  1  0  0.048443  0  0.935928  0  0.068294  0  0.059327  0  1.011237  0  0  0.060178  0  1.009738  0  0  0.095589  0.058592  0  1.012325  0
H  H26  1  0.80260520  0.69793343  0.34855537  1  0  0.048406  0  0.935877  0  0.068297  0  0.059283  0  1.011209  0  0  0.060133  0  1.0097  0  0  0.095574  0.058548  0  1.012296  0
H  H27  1  0.30260566  0.80206935  0.15144471  1  0  0.048426  0  0.935923  0  0.068281  0  0.059306  0  1.011241  0  0  0.060155  0  1.009741  0  0  0.095583  0.05857  0  1.012327  0
H  H28  1  0.15844490  0.16480994  0.47680914  1  0  0.046179  0  0.956961  0  0.057985  0  0.056471  0  1.03323  0  0  0.057489  0  1.031426  0  0  0.088114  0.05539  0  1.034959  0
H  H29  1  0.65844460  0.33519126  0.02319100  1  0  0.046185  0  0.956957  0  0.057983  0  0.056471  0  1.033236  0  0  0.05749  0  1.03143  0  0  0.088118  0.055391  0  1.034967  0
H  H30  1  0.84155479  0.83519181  0.52319067  1  0  0.046178  0  0.95699  0  0.057985  0  0.056467  0  1.033258  0  0  0.057485  0  1.031453  0  0  0.088115  0.055387  0  1.034988  0
H  H31  1  0.34155382  0.66481050  0.97680736  1  0  0.046241  0  0.95699  0  0.057979  0  0.056538  0  1.033243  0  0  0.057556  0  1.031444  0  0  0.088123  0.055456  0  1.034971  0
H  H32  1  0.27928475  0.99814692  0.49450566  1  0  0.065343  0  0.944311  0  0.061788  0  0.076419  0  1.012381  0  0  0.077267  0  1.011898  0  0  0.092289  0.075908  0  1.012625  0
H  H33  1  0.77928363  0.50185463  0.00549500  1  0  0.065326  0  0.944319  0  0.061778  0  0.076401  0  1.012391  0  0  0.077248  0  1.011908  0  0  0.09228  0.075891  0  1.012634  0
H  H34  1  0.72071621  0.00185483  0.50549415  1  0  0.06532  0  0.944326  0  0.061966  0  0.076393  0  1.012399  0  0  0.077239  0  1.011918  0  0  0.092274  0.075883  0  1.012644  0
H  H35  1  0.22071860  0.49814712  0.99450700  1  0  0.065367  0  0.9443  0  0.061987  0  0.076446  0  1.012365  0  0  0.077295  0  1.01188  0  0  0.092279  0.075933  0  1.01261  0
H  H36  1  0.50390420  0.06234977  0.37951893  1  0  0.052494  0  0.929929  0  0.064958  0  0.06652  0  0.996404  0  0  0.067315  0  0.995423  0  0  0.100224  0.065927  0  0.997154  0
H  H37  1  0.00390385  0.43765229  0.12048078  1  0  0.052492  0  0.92993  0  0.064953  0  0.066507  0  0.996418  0  0  0.067301  0  0.995438  0  0  0.100211  0.065913  0  0.997168  0
H  H38  1  0.49609676  0.93765198  0.62048089  1  0  0.052502  0  0.929897  0  0.064963  0  0.066518  0  0.99638  0  0  0.067312  0  0.995401  0  0  0.100213  0.065925  0  0.99713  0
H  H39  1  0.99609584  0.56234237  0.87952023  1  0  0.052475  0  0.929906  0  0.065001  0  0.066504  0  0.996402  0  0  0.067296  0  0.995423  0  0  0.100185  0.06591  0  0.997152  0
H  H40  1  0.30259546  0.01091845  0.32062122  1  0  0.05483  0  0.952347  0  0.040915  0  0.070019  0  1.018111  0  0  0.07006  0  1.018499  0  0  0.10109  0.070196  0  1.017455  0
H  H41  1  0.80259506  0.48908185  0.17937937  1  0  0.05482  0  0.952352  0  0.040908  0  0.070013  0  1.018114  0  0  0.070054  0  1.018502  0  0  0.101086  0.070189  0  1.017458  0
H  H42  1  0.69740423  0.98908212  0.67937843  1  0  0.054818  0  0.952351  0  0.040889  0  0.070028  0  1.018091  0  0  0.07007  0  1.018478  0  0  0.101095  0.070204  0  1.017435  0
H  H43  1  0.19740336  0.51091636  0.82062141  1  0  0.054834  0  0.952321  0  0.040742  0  0.070025  0  1.018104  0  0  0.070064  0  1.01849  0  0  0.101078  0.070199  0  1.017449  0
H  H44  1  0.64806391  0.83671561  0.80531708  1  0  0.048102  0  0.951625  0  0.05576  0  0.055038  0  1.034143  0  0  0.056465  0  1.031558  0  0  0.095046  0.053554  0  1.036284  0
H  H45  1  0.14805498  0.66328040  0.69468247  1  0  0.048015  0  0.951592  0  0.055756  0  0.054944  0  1.034148  0  0  0.056372  0  1.031558  0  0  0.094995  0.053457  0  1.03629  0
H  H46  1  0.35193578  0.16328496  0.19468111  1  0  0.048101  0  0.951599  0  0.055682  0  0.055029  0  1.03413  0  0  0.056455  0  1.031545  0  0  0.095041  0.053543  0  1.036269  0
H  H47  1  0.85193583  0.33671544  0.30531725  1  0  0.048084  0  0.951641  0  0.055729  0  0.055026  0  1.034154  0  0  0.056454  0  1.031567  0  0  0.095048  0.053542  0  1.036296  0
H  H48  1  0.43839533  0.80621533  0.75513854  1  0  0.055425  0  0.937192  0  0.035261  0  0.069062  0  1.005693  0  0  0.069913  0  1.004678  0  0  0.100703  0.068184  0  1.006622  0
H  H49  1  0.93838759  0.69378126  0.74486150  1  0  0.055404  0  0.937352  0  0.035137  0  0.069064  0  1.005817  0  0  0.069915  0  1.0048  0  0  0.100713  0.068185  0  1.006743  0
H  H50  1  0.56160563  0.19378405  0.24486021  1  0  0.055413  0  0.937204  0  0.035266  0  0.069059  0  1.005696  0  0  0.069912  0  1.004678  0  0  0.100698  0.068179  0  1.006624  0
H  H51  1  0.06160449  0.30621694  0.25513855  1  0  0.055413  0  0.937199  0  0.035255  0  0.069053  0  1.005694  0  0  0.069906  0  1.004677  0  0  0.100708  0.068177  0  1.006622  0
C  C52  1  0.56940970  0.59423681  0.76899447  1  0  0.057552  0  3.668661  0  0.417769  0  -0.00177  0  3.93907  0  0  0.00439  0  3.945471  0  0  -0.076551  -0.005713  0  3.934475  0
C  C53  1  0.06940637  0.90575905  0.73100587  1  0  0.057582  0  3.668743  0  0.417778  0  -0.001675  0  3.939062  0  0  0.004494  0  3.945483  0  0  -0.076508  -0.005616  0  3.93447  0
C  C54  1  0.43059126  0.40576494  0.23100535  1  0  0.057576  0  3.668468  0  0.417753  0  -0.001838  0  3.938956  0  0  0.004348  0  3.94537  0  0  -0.076587  -0.005786  0  3.93436  0
C  C55  1  0.93059079  0.09423561  0.26899441  1  0  0.057561  0  3.668572  0  0.41773  0  -0.00178  0  3.938995  0  0  0.004382  0  3.945426  0  0  -0.076558  -0.00572  0  3.9344  0
C  C56  1  0.44691949  0.33914247  0.71939685  1  0  0.041833  0  3.672995  0  0.422381  0  -0.015299  0  3.942715  0  0  -0.009703  0  3.948954  0  0  -0.081378  -0.019028  0  3.938498  0
C  C57  1  0.94691789  0.16085520  0.78060418  1  0  0.041721  0  3.673064  0  0.422371  0  -0.015406  0  3.942846  0  0  -0.009807  0  3.949084  0  0  -0.081434  -0.019132  0  3.93863  0
C  C58  1  0.55308274  0.66085928  0.28060297  1  0  0.041843  0  3.672817  0  0.422375  0  -0.015286  0  3.942569  0  0  -0.00969  0  3.948804  0  0  -0.081396  -0.019019  0  3.938354  0
C  C59  1  0.05308180  0.83914419  0.21939676  1  0  0.041684  0  3.673014  0  0.422159  0  -0.015414  0  3.942724  0  0  -0.009816  0  3.948962  0  0  -0.081409  -0.019141  0  3.938511  0
C  C60  1  0.32240171  0.24278743  0.64757267  1  0  0.057848  0  3.688127  0  0.423212  0  -0.003584  0  3.963621  0  0  0.003119  0  3.969276  0  0  -0.078406  -0.007978  0  3.959495  0
C  C61  1  0.82240139  0.25721236  0.85242734  1  0  0.057861  0  3.688206  0  0.423196  0  -0.003592  0  3.963723  0  0  0.003101  0  3.969384  0  0  -0.078397  -0.007988  0  3.959599  0
C  C62  1  0.67759925  0.75721432  0.35242714  1  0  0.057929  0  3.688062  0  0.42317  0  -0.003536  0  3.963584  0  0  0.003174  0  3.969227  0  0  -0.078404  -0.007931  0  3.959462  0
C  C63  1  0.17759957  0.74278821  0.14757304  1  0  0.057913  0  3.688134  0  0.423198  0  -0.003541  0  3.963654  0  0  0.003155  0  3.969315  0  0  -0.078397  -0.007936  0  3.959529  0
C  C64  1  0.28818752  0.11619673  0.47687477  1  0  0.048889  0  3.665765  0  0.440636  0  -0.008608  0  3.934994  0  0  -0.002603  0  3.940579  0  0  -0.080646  -0.011967  0  3.930644  0
C  C65  1  0.78818735  0.38380472  0.02312454  1  0  0.048903  0  3.665866  0  0.44065  0  -0.008596  0  3.935078  0  0  -0.002595  0  3.940664  0  0  -0.080643  -0.011954  0  3.930715  0
C  C66  1  0.71181344  0.88380502  0.52312504  1  0  0.048887  0  3.665834  0  0.440437  0  -0.008621  0  3.935057  0  0  -0.002619  0  3.940645  0  0  -0.08066  -0.011982  0  3.930705  0
C  C67  1  0.21181360  0.61619585  0.97687439  1  0  0.048697  0  3.665932  0  0.440537  0  -0.008805  0  3.935167  0  0  -0.002809  0  3.940749  0  0  -0.080679  -0.012158  0  3.930797  0
C  C68  1  0.37066265  0.10069509  0.37634284  1  0  0.06702  0  3.65401  0  0.42539  0  0.010017  0  3.920779  0  0  0.016101  0  3.926987  0  0  -0.074365  0.005922  0  3.916211  0
C  C69  1  0.87066220  0.39930653  0.12365640  1  0  0.067024  0  3.654031  0  0.425359  0  0.010013  0  3.920817  0  0  0.0161  0  3.927025  0  0  -0.07436  0.005922  0  3.916247  0
C  C70  1  0.62933831  0.89930548  0.62365681  1  0  0.06703  0  3.654018  0  0.425375  0  0.010006  0  3.920797  0  0  0.016092  0  3.927001  0  0  -0.07437  0.005914  0  3.916229  0
C  C71  1  0.12933496  0.60069049  0.87634275  1  0  0.067111  0  3.653909  0  0.425337  0  0.010076  0  3.920722  0  0  0.01617  0  3.92692  0  0  -0.074315  0.005984  0  3.916149  0
C  C72  1  0.56867694  0.75803477  0.74896891  1  0  0.053193  0  3.677894  0  0.447356  0  -0.006702  0  3.951415  0  0  -0.000603  0  3.957085  0  0  -0.077769  -0.010695  0  3.94757  0
C  C73  1  0.06866803  0.74196108  0.75103071  1  0  0.053265  0  3.677996  0  0.447367  0  -0.006646  0  3.951531  0  0  -0.000544  0  3.957196  0  0  -0.077774  -0.010626  0  3.947664  0
C  C74  1  0.43132402  0.24196461  0.25102985  1  0  0.053177  0  3.677826  0  0.44741  0  -0.006705  0  3.951371  0  0  -0.000603  0  3.95703  0  0  -0.077801  -0.010692  0  3.947522  0
C  C75  1  0.93132405  0.25803476  0.24897047  1  0  0.053196  0  3.677868  0  0.44738  0  -0.006693  0  3.951405  0  0  -0.000593  0  3.957067  0  0  -0.077817  -0.010685  0  3.947559  0
Cl  Cl76  1  0.83120188  0.30783777  0.54512032  1  0  -0.612653  0  1.032373  0  -0.633545  0  -0.523124  0  1.343552  0  0  -0.544861  0  1.316362  0  0  -0.344636  -0.508024  0  1.361913  0
Cl  Cl77  1  0.33120359  0.19216559  0.95488018  1  0  -0.612634  0  1.032395  0  -0.633556  0  -0.5231  0  1.343568  0  0  -0.54484  0  1.31638  0  0  -0.344605  -0.508002  0  1.361931  0
Cl  Cl78  1  0.16879908  0.69216517  0.45488039  1  0  -0.612639  0  1.032381  0  -0.633563  0  -0.523107  0  1.34356  0  0  -0.544844  0  1.316369  0  0  -0.344609  -0.508006  0  1.36192  0
Cl  Cl79  1  0.66879737  0.80783616  0.04511964  1  0  -0.612659  0  1.032347  0  -0.633554  0  -0.523127  0  1.343512  0  0  -0.544867  0  1.316328  0  0  -0.344633  -0.508031  0  1.361874  0
O  O80  1  0.44592547  0.49882487  0.70678476  1  0  -0.335224  0  2.268719  0  -1.088455  0  -0.259532  0  2.517705  0  0  -0.276175  0  2.520428  0  0  -0.274592  -0.248109  0  2.515562  0
O  O81  1  0.94592086  0.00117044  0.79321667  1  0  -0.335181  0  2.26877  0  -1.088507  0  -0.259533  0  2.517769  0  0  -0.276172  0  2.520485  0  0  -0.274545  -0.248114  0  2.51563  0
O  O82  1  0.55407803  0.50117571  0.29321635  1  0  -0.335244  0  2.268585  0  -1.088429  0  -0.259546  0  2.517607  0  0  -0.276188  0  2.520317  0  0  -0.274585  -0.248114  0  2.515465  0
O  O83  1  0.05407756  0.99882658  0.20678394  1  0  -0.335219  0  2.26868  0  -1.088424  0  -0.259532  0  2.517668  0  0  -0.276172  0  2.520382  0  0  -0.274594  -0.248111  0  2.515528  0
O  O84  1  0.39033330  0.21961002  0.54933432  1  0  -0.336317  0  2.297277  0  -1.094955  0  -0.263187  0  2.550386  0  0  -0.279357  0  2.55272  0  0  -0.287022  -0.252077  0  2.548134  0
O  O85  1  0.89033146  0.28038991  0.95066564  1  0  -0.336349  0  2.297322  0  -1.094942  0  -0.263188  0  2.550418  0  0  -0.279346  0  2.552748  0  0  -0.287037  -0.252077  0  2.548167  0
O  O86  1  0.60967019  0.78039174  0.45066477  1  0  -0.336329  0  2.297287  0  -1.094899  0  -0.263152  0  2.550376  0  0  -0.279316  0  2.552704  0  0  -0.286993  -0.252041  0  2.548126  0
O  O87  1  0.10966950  0.71961066  0.04933474  1  0  -0.336301  0  2.297308  0  -1.094921  0  -0.263155  0  2.550418  0  0  -0.279315  0  2.55275  0  0  -0.28703  -0.252046  0  2.548163  0
O  O88  1  0.36479121  0.25027712  0.34887173  1  0  -0.339555  0  2.277793  0  -1.080608  0  -0.266755  0  2.531842  0  0  -0.282888  0  2.533701  0  0  -0.277404  -0.255688  0  2.530623  0
O  O89  1  0.86479153  0.24972330  0.15112808  1  0  -0.33954  0  2.277764  0  -1.080571  0  -0.26673  0  2.531815  0  0  -0.282866  0  2.533671  0  0  -0.277397  -0.255663  0  2.530594  0
O  O90  1  0.63520975  0.74972345  0.65112792  1  0  -0.339571  0  2.27783  0  -1.080608  0  -0.266749  0  2.531879  0  0  -0.282885  0  2.533735  0  0  -0.277418  -0.255683  0  2.530659  0
O  O91  1  0.13520308  0.75027372  0.84887108  1  0  -0.339576  0  2.277814  0  -1.080514  0  -0.266774  0  2.531897  0  0  -0.282912  0  2.533754  0  0  -0.277412  -0.25571  0  2.530675  0
