# generated using pymatgen
data_CuH7C7SIN
_symmetry_space_group_name_H-M   'P 1'
_cell_length_a   5.35008157
_cell_length_b   8.46693734
_cell_length_c   22.08055323
_cell_angle_alpha   89.99615937
_cell_angle_beta   89.99835684
_cell_angle_gamma   100.74205583
_symmetry_Int_Tables_number   1
_chemical_formula_structural   CuH7C7SIN
_chemical_formula_sum   'Cu4 H28 C28 S4 I4 N4'
_cell_volume   982.69502854
_cell_formula_units_Z   4
loop_
 _symmetry_equiv_pos_site_id
 _symmetry_equiv_pos_as_xyz
  1  'x, y, z'
loop_
 _atom_site_type_symbol
 _atom_site_label
 _atom_site_symmetry_multiplicity
 _atom_site_fract_x
 _atom_site_fract_y
 _atom_site_fract_z
 _atom_site_occupancy
 _atom_site_pbe_bader_charge
 _atom_site_pbe_bader_spin_density
 _atom_site_pbe_cm5_charge
 _atom_site_pbe_ddec_charge
 _atom_site_pbe_ddec_spin_density
 _atom_site_pbe_ddec_sum_bond_order
 _atom_site_pbe_magmom
Cu  Cu0  1  0.26102114  0.01054346  0.49518674  1  0.37855  0  0.232058  0.18349  0  2.834661  0
Cu  Cu1  1  0.73899525  0.48951845  0.99518925  1  0.378082  0  0.232046  0.18348  0  2.834788  0
Cu  Cu2  1  0.73894482  0.98948492  0.50481998  1  0.378221  0  0.232018  0.183388  0  2.834759  0
Cu  Cu3  1  0.26101408  0.51051122  0.00480887  1  0.378716  0  0.232029  0.183399  0  2.834764  0
H  H4  1  0.50497688  0.04351912  0.36927322  1  0.107722  0  0.085934  0.088632  0  1.068509  0
H  H5  1  0.49499962  0.45642844  0.86927892  1  0.107647  0  0.085902  0.088679  0  1.068511  0
H  H6  1  0.49499834  0.95649606  0.63071720  1  0.107148  0  0.085866  0.088616  0  1.068573  0
H  H7  1  0.50499877  0.54356997  0.13072192  1  0.107562  0  0.085871  0.088626  0  1.06868  0
H  H8  1  0.24350139  0.05007936  0.27705156  1  0.048503  0  0.097029  0.095415  0  1.037318  0
H  H9  1  0.75651803  0.44985517  0.77705366  1  0.05089  0  0.096972  0.095439  0  1.037291  0
H  H10  1  0.75651028  0.94994550  0.72293705  1  0.048535  0  0.097056  0.095508  0  1.037076  0
H  H11  1  0.24348125  0.55010119  0.22294990  1  0.050743  0  0.096972  0.095505  0  1.036967  0
H  H12  1  0.43029845  0.20209463  0.18534303  1  0.0696  0  0.094192  0.092826  0  1.0138  0
H  H13  1  0.56963975  0.29790731  0.68534107  1  0.070412  0  0.094057  0.09274  0  1.013695  0
H  H14  1  0.56973969  0.79789905  0.81464242  1  0.069829  0  0.094141  0.092801  0  1.013738  0
H  H15  1  0.43034662  0.70207545  0.31466385  1  0.070411  0  0.094111  0.092724  0  1.013494  0
H  H16  1  0.87028973  0.35704157  0.18885667  1  0.088071  0  0.085886  0.088506  0  1.069891  0
H  H17  1  0.12963986  0.14295203  0.68886212  1  0.088009  0  0.085832  0.088499  0  1.069821  0
H  H18  1  0.12973964  0.64296050  0.81113828  1  0.088042  0  0.085802  0.088339  0  1.069914  0
H  H19  1  0.87038148  0.85702240  0.31114823  1  0.088373  0  0.085841  0.08848  0  1.069431  0
H  H20  1  0.12675173  0.36131861  0.28354246  1  0.072521  0  0.098524  0.095038  0  1.042616  0
H  H21  1  0.87319702  0.13867341  0.78355565  1  0.072207  0  0.098517  0.095144  0  1.042768  0
H  H22  1  0.87325681  0.63869544  0.71645702  1  0.072547  0  0.098501  0.095055  0  1.04272  0
H  H23  1  0.12681792  0.86128538  0.21645063  1  0.073203  0  0.098483  0.095011  0  1.042909  0
H  H24  1  0.11647021  0.43744216  0.39239854  1  0.471388  0  0.315702  0.316593  0  0.914687  0
H  H25  1  0.88353240  0.06257273  0.89241149  1  0.471703  0  0.315699  0.316382  0  0.914961  0
H  H26  1  0.88350454  0.56257783  0.60760184  1  0.471505  0  0.315711  0.316467  0  0.914891  0
H  H27  1  0.11650257  0.93742935  0.10758391  1  0.471628  0  0.315686  0.316325  0  0.915072  0
H  H28  1  0.25940266  0.32077495  0.44256799  1  0.48423  0  0.271558  0.286146  0  1.014402  0
H  H29  1  0.74056498  0.17919804  0.94257242  1  0.483947  0  0.271589  0.286246  0  1.014419  0
H  H30  1  0.74055281  0.67923659  0.55743874  1  0.484146  0  0.271567  0.286118  0  1.014409  0
H  H31  1  0.25944080  0.82078717  0.05743250  1  0.483915  0  0.271674  0.286294  0  1.014425  0
C  C32  1  0.99159077  0.19422049  0.38597886  1  0.427139  0  0.149403  0.313117  0  4.005376  0
C  C33  1  0.00835727  0.30578836  0.88598685  1  0.42766  0  0.149238  0.31312  0  4.005685  0
C  C34  1  0.00837966  0.80579108  0.61401972  1  0.426808  0  0.149305  0.312909  0  4.005747  0
C  C35  1  0.99164252  0.69421486  0.11401082  1  0.427514  0  0.149253  0.313095  0  4.005992  0
C  C36  1  0.83100234  0.20417848  0.33251198  1  0.013982  0  -0.017785  0.011155  0  4.006685  0
C  C37  1  0.16892335  0.29580127  0.83252072  1  0.012798  0  -0.01785  0.010927  0  4.006885  0
C  C38  1  0.16899006  0.79583794  0.66748569  1  0.013433  0  -0.017731  0.011373  0  4.00675  0
C  C39  1  0.83110392  0.70419360  0.16747922  1  0.012916  0  -0.017817  0.010869  0  4.006614  0
C  C40  1  0.58310148  0.11397423  0.32999949  1  -0.086555  0  -0.088804  -0.096661  0  3.949774  0
C  C41  1  0.41685205  0.38597582  0.83000797  1  -0.087137  0  -0.088654  -0.096561  0  3.949928  0
C  C42  1  0.41689630  0.88603498  0.66999184  1  -0.085332  0  -0.088668  -0.0966  0  3.949987  0
C  C43  1  0.58315490  0.61400699  0.16998879  1  -0.08784  0  -0.08853  -0.096364  0  3.94972  0
C  C44  1  0.43832861  0.11626682  0.27774735  1  -0.019658  0  -0.093945  -0.084419  0  4.003145  0
C  C45  1  0.56164070  0.38370031  0.77775684  1  -0.020202  0  -0.093807  -0.084486  0  4.003148  0
C  C46  1  0.56166087  0.88374599  0.72224398  1  -0.019713  0  -0.094063  -0.084775  0  4.003161  0
C  C47  1  0.43838986  0.61628014  0.22224445  1  -0.019876  0  -0.093899  -0.084604  0  4.003423  0
C  C48  1  0.54134337  0.20269122  0.22685223  1  -0.013703  0  -0.086929  -0.06782  0  3.97299  0
C  C49  1  0.45860709  0.29728139  0.72685696  1  -0.015237  0  -0.086831  -0.067703  0  3.972028  0
C  C50  1  0.45867058  0.79729640  0.77313955  1  -0.014311  0  -0.086846  -0.067724  0  3.972881  0
C  C51  1  0.54140490  0.70269301  0.27314071  1  -0.014863  0  -0.086841  -0.067726  0  3.972927  0
C  C52  1  0.78902447  0.29160342  0.22896896  1  -0.062185  0  -0.093145  -0.071845  0  3.994161  0
C  C53  1  0.21090089  0.20838312  0.72897201  1  -0.061362  0  -0.093163  -0.071988  0  3.992675  0
C  C54  1  0.21098115  0.70840701  0.77102146  1  -0.061132  0  -0.092997  -0.071487  0  3.993881  0
C  C55  1  0.78908425  0.79156960  0.27102884  1  -0.061908  0  -0.093158  -0.071948  0  3.993317  0
C  C56  1  0.93139021  0.29530362  0.28193777  1  -0.091076  0  -0.09098  -0.120373  0  3.962039  0
C  C57  1  0.06855182  0.20468661  0.78195887  1  -0.091646  0  -0.090977  -0.120348  0  3.961468  0
C  C58  1  0.06861062  0.70470320  0.71805175  1  -0.091648  0  -0.091036  -0.120617  0  3.962269  0
C  C59  1  0.93145748  0.79529140  0.21804922  1  -0.092265  0  -0.090972  -0.120182  0  3.961662  0
S  S60  1  0.99349525  0.00891641  0.41551061  1  -0.168616  0  -0.195485  -0.276031  0  3.097761  0
S  S61  1  0.00646625  0.49108878  0.91549936  1  -0.16865  0  -0.195429  -0.276036  0  3.097862  0
S  S62  1  0.00647344  0.99108915  0.58449793  1  -0.168787  0  -0.195435  -0.275909  0  3.097961  0
S  S63  1  0.99353820  0.50892406  0.08449921  1  -0.168493  0  -0.195408  -0.276091  0  3.098338  0
I  I64  1  0.59614701  0.26979867  0.52263091  1  -0.460182  0  -0.229265  -0.349678  0  1.765965  0
I  I65  1  0.40384878  0.23020069  0.02257538  1  -0.460039  0  -0.229232  -0.349645  0  1.766119  0
I  I66  1  0.40381117  0.73020928  0.47740616  1  -0.460278  0  -0.229218  -0.349607  0  1.765936  0
I  I67  1  0.59617329  0.76982780  0.97742229  1  -0.46009  0  -0.229189  -0.349626  0  1.766133  0
N  N68  1  0.13623112  0.32674124  0.40724558  1  -1.259381  0  -0.533944  -0.504092  0  3.426293  0
N  N69  1  0.86374462  0.17325256  0.90725530  1  -1.259345  0  -0.533923  -0.503834  0  3.426533  0
N  N70  1  0.86374188  0.67327274  0.59275481  1  -1.259348  0  -0.533987  -0.503848  0  3.426431  0
N  N71  1  0.13627843  0.82674709  0.09274736  1  -1.2594  0  -0.534083  -0.503847  0  3.426657  0
