# generated using pymatgen
data_Li2H13C11NO7
_symmetry_space_group_name_H-M   'P 1'
_cell_length_a   8.12830876
_cell_length_b   11.31276839
_cell_length_c   15.74357890
_cell_angle_alpha   89.99978410
_cell_angle_beta   89.99988956
_cell_angle_gamma   104.85301284
_symmetry_Int_Tables_number   1
_chemical_formula_structural   Li2H13C11NO7
_chemical_formula_sum   'Li8 H52 C44 N4 O28'
_cell_volume   1399.30805329
_cell_formula_units_Z   4
loop_
 _symmetry_equiv_pos_site_id
 _symmetry_equiv_pos_as_xyz
  1  'x, y, z'
loop_
 _atom_site_type_symbol
 _atom_site_label
 _atom_site_symmetry_multiplicity
 _atom_site_fract_x
 _atom_site_fract_y
 _atom_site_fract_z
 _atom_site_occupancy
 _atom_site_hle17_bader_spin_density
 _atom_site_hle17_ddec_charge
 _atom_site_hle17_ddec_spin_density
 _atom_site_hle17_ddec_sum_bond_order
 _atom_site_hle17_magmom
 _atom_site_hse06_10hf_bader_spin_density
 _atom_site_hse06_10hf_ddec_charge
 _atom_site_hse06_10hf_ddec_spin_density
 _atom_site_hse06_10hf_ddec_sum_bond_order
 _atom_site_hse06_10hf_magmom
 _atom_site_hse06_bader_spin_density
 _atom_site_hse06_ddec_charge
 _atom_site_hse06_ddec_spin_density
 _atom_site_hse06_ddec_sum_bond_order
 _atom_site_hse06_magmom
 _atom_site_pbe_bader_spin_density
 _atom_site_pbe_cm5_charge
 _atom_site_pbe_ddec_charge
 _atom_site_pbe_ddec_spin_density
 _atom_site_pbe_ddec_sum_bond_order
 _atom_site_pbe_magmom
Li  Li0  1  0.43976070  0.49312211  0.91459358  1  0  0.862273  0  0.390916  0  0  0.827166  0  0.489411  0  0  0.835976  0  0.473407  0  0  0.508503  0.820718  0  0.501059  0
Li  Li1  1  0.56024061  0.00687696  0.41459541  1  0  0.862274  0  0.390908  0  0  0.82717  0  0.489396  0  0  0.83598  0  0.473393  0  0  0.508502  0.820722  0  0.501044  0
Li  Li2  1  0.56023816  0.50687796  0.08540656  1  0  0.862273  0  0.390927  0  0  0.827156  0  0.48944  0  0  0.835968  0  0.473433  0  0  0.508503  0.820707  0  0.501088  0
Li  Li3  1  0.43976103  0.99312404  0.58540537  1  0  0.862257  0  0.390924  0  0  0.827169  0  0.489387  0  0  0.835977  0  0.473388  0  0  0.508496  0.82072  0  0.501036  0
Li  Li4  1  0.14044424  0.58140134  0.96615240  1  0  0.855862  0  0.412057  0  0  0.821559  0  0.510834  0  0  0.830362  0  0.494277  0  0  0.52882  0.815176  0  0.522738  0
Li  Li5  1  0.85955699  0.91860007  0.46615219  1  0  0.855877  0  0.412036  0  0  0.821557  0  0.510845  0  0  0.830361  0  0.494286  0  0  0.528816  0.815172  0  0.522751  0
Li  Li6  1  0.85955900  0.41860423  0.03384900  1  0  0.855883  0  0.412013  0  0  0.821563  0  0.510819  0  0  0.830367  0  0.494261  0  0  0.528828  0.815178  0  0.522725  0
Li  Li7  1  0.14044400  0.08139910  0.53384731  1  0  0.855857  0  0.412052  0  0  0.821554  0  0.510831  0  0  0.830355  0  0.494276  0  0  0.528827  0.815172  0  0.522733  0
H  H8  1  0.21728755  0.82090915  0.73417366  1  0  0.387678  0  0.911595  0  0  0.352937  0  0.995237  0  0  0.366024  0  0.981052  0  0  0.296748  0.34375  0  1.005054  0
H  H9  1  0.78271412  0.67909100  0.23417353  1  0  0.387644  0  0.911643  0  0  0.35293  0  0.995247  0  0  0.366034  0  0.981024  0  0  0.296749  0.343744  0  1.005063  0
H  H10  1  0.78270510  0.17908725  0.26582394  1  0  0.387628  0  0.911663  0  0  0.352891  0  0.995364  0  0  0.365992  0  0.981148  0  0  0.296745  0.343706  0  1.00518  0
H  H11  1  0.21729062  0.32091183  0.76582470  1  0  0.387724  0  0.91158  0  0  0.352961  0  0.995264  0  0  0.366065  0  0.98104  0  0  0.296764  0.343774  0  1.005082  0
H  H12  1  0.20062686  0.49616509  0.82605982  1  0  0.43313  0  0.870514  0  0  0.401349  0  0.93466  0  0  0.412409  0  0.91836  0  0  0.30703  0.393578  0  0.946102  0
H  H13  1  0.79937219  0.00383362  0.32605951  1  0  0.433086  0  0.870576  0  0  0.401345  0  0.934664  0  0  0.412405  0  0.918365  0  0  0.307052  0.393574  0  0.946107  0
H  H14  1  0.79937354  0.50383590  0.17393968  1  0  0.433103  0  0.870544  0  0  0.401331  0  0.934675  0  0  0.41239  0  0.918376  0  0  0.307033  0.393558  0  0.94612  0
H  H15  1  0.20062420  0.99616645  0.67393935  1  0  0.43315  0  0.870489  0  0  0.401364  0  0.934643  0  0  0.412422  0  0.918347  0  0  0.307041  0.393592  0  0.946087  0
H  H16  1  0.30292539  0.63970557  0.82258641  1  0  0.439067  0  0.860162  0  0  0.407079  0  0.925939  0  0  0.417827  0  0.910075  0  0  0.300183  0.399473  0  0.937158  0
H  H17  1  0.69707205  0.86029400  0.32258589  1  0  0.439053  0  0.860182  0  0  0.407065  0  0.925957  0  0  0.417812  0  0.910093  0  0  0.300195  0.399459  0  0.937174  0
H  H18  1  0.69707041  0.36029632  0.17741372  1  0  0.439029  0  0.86022  0  0  0.407048  0  0.925988  0  0  0.417794  0  0.910126  0  0  0.300184  0.399446  0  0.937198  0
H  H19  1  0.30292771  0.13970516  0.67741425  1  0  0.439055  0  0.860185  0  0  0.407069  0  0.925956  0  0  0.417816  0  0.910092  0  0  0.300189  0.399464  0  0.937172  0
H  H20  1  0.07006288  0.71656042  0.84994361  1  0  0.114033  0  0.974809  0  0  0.121026  0  1.043834  0  0  0.125579  0  1.039965  0  0  0.117011  0.117717  0  1.046733  0
H  H21  1  0.92993787  0.78344538  0.34994052  1  0  0.114014  0  0.974825  0  0  0.121017  0  1.043841  0  0  0.125569  0  1.039975  0  0  0.117019  0.117708  0  1.04674  0
H  H22  1  0.92992976  0.28343597  0.15005525  1  0  0.114007  0  0.974742  0  0  0.120995  0  1.043782  0  0  0.125549  0  1.039911  0  0  0.117015  0.117685  0  1.046684  0
H  H23  1  0.07006596  0.21655836  0.65005835  1  0  0.114062  0  0.974701  0  0  0.121047  0  1.043736  0  0  0.125598  0  1.03987  0  0  0.117039  0.117738  0  1.046637  0
H  H24  1  0.83331315  0.90241267  0.66541759  1  0  0.126487  0  0.947084  0  0  0.133054  0  1.014105  0  0  0.137169  0  1.011348  0  0  0.122044  0.130105  0  1.016112  0
H  H25  1  0.16668587  0.59758974  0.16541893  1  0  0.12655  0  0.947041  0  0  0.133084  0  1.014081  0  0  0.137202  0  1.011333  0  0  0.122047  0.130132  0  1.01609  0
H  H26  1  0.16667579  0.09758372  0.33458254  1  0  0.126532  0  0.947035  0  0  0.133039  0  1.01411  0  0  0.137149  0  1.011356  0  0  0.122  0.130087  0  1.016112  0
H  H27  1  0.83331855  0.40241218  0.83458184  1  0  0.126527  0  0.947046  0  0  0.133059  0  1.014093  0  0  0.137176  0  1.011342  0  0  0.122031  0.130107  0  1.016101  0
H  H28  1  0.53995081  0.70612222  0.87224899  1  0  0.089881  0  1.009091  0  0  0.097703  0  1.081259  0  0  0.101343  0  1.078037  0  0  0.114416  0.095032  0  1.083669  0
H  H29  1  0.46004633  0.79387704  0.37224888  1  0  0.089883  0  1.009066  0  0  0.097702  0  1.081236  0  0  0.101343  0  1.078011  0  0  0.114417  0.095027  0  1.083646  0
H  H30  1  0.46004183  0.29387418  0.12775241  1  0  0.089892  0  1.009075  0  0  0.097711  0  1.081237  0  0  0.101355  0  1.078012  0  0  0.114432  0.095032  0  1.083649  0
H  H31  1  0.53995809  0.20612488  0.62774999  1  0  0.089867  0  1.009108  0  0  0.097695  0  1.081261  0  0  0.101333  0  1.078037  0  0  0.114422  0.09503  0  1.083648  0
H  H32  1  0.17063368  0.87612759  0.08303323  1  0  0.11829  0  0.932169  0  0  0.138746  0  0.988424  0  0  0.140917  0  0.986564  0  0  0.116592  0.137058  0  0.989873  0
H  H33  1  0.82936520  0.62387351  0.58302946  1  0  0.118294  0  0.932166  0  0  0.138759  0  0.98841  0  0  0.140927  0  0.986552  0  0  0.116585  0.13707  0  0.989861  0
H  H34  1  0.82936699  0.12387066  0.91697136  1  0  0.118255  0  0.932175  0  0  0.138718  0  0.988415  0  0  0.140885  0  0.986557  0  0  0.116565  0.13703  0  0.989864  0
H  H35  1  0.17063676  0.37612840  0.41697067  1  0  0.118253  0  0.932189  0  0  0.138728  0  0.988429  0  0  0.140902  0  0.986564  0  0  0.116566  0.137038  0  0.989881  0
H  H36  1  0.30319090  0.02982897  0.09002000  1  0  0.090521  0  0.947199  0  0  0.111144  0  1.011516  0  0  0.110588  0  1.013067  0  0  0.09937  0.11142  0  1.010502  0
H  H37  1  0.69681107  0.47016851  0.59001798  1  0  0.090504  0  0.9471  0  0  0.111116  0  1.011452  0  0  0.110561  0  1.013001  0  0  0.099355  0.111392  0  1.010442  0
H  H38  1  0.69681191  0.97016838  0.90998267  1  0  0.090554  0  0.947202  0  0  0.111163  0  1.01154  0  0  0.11061  0  1.013086  0  0  0.099375  0.11144  0  1.010528  0
H  H39  1  0.30318901  0.52983157  0.40998216  1  0  0.090544  0  0.947255  0  0  0.111152  0  1.011596  0  0  0.110597  0  1.013149  0  0  0.099381  0.111427  0  1.010586  0
H  H40  1  0.27152722  0.93351347  0.18134365  1  0  0.101723  0  0.942648  0  0  0.121804  0  1.007085  0  0  0.120734  0  1.010243  0  0  0.105454  0.122408  0  1.005012  0
H  H41  1  0.72847321  0.56648610  0.68134078  1  0  0.101688  0  0.94269  0  0  0.121763  0  1.007137  0  0  0.120693  0  1.010297  0  0  0.10545  0.12238  0  1.005052  0
H  H42  1  0.72847747  0.06648571  0.81866029  1  0  0.101704  0  0.942704  0  0  0.121782  0  1.007139  0  0  0.120705  0  1.010307  0  0  0.105452  0.122398  0  1.005058  0
H  H43  1  0.27152842  0.43351490  0.31865872  1  0  0.101706  0  0.942646  0  0  0.121758  0  1.007125  0  0  0.120702  0  1.010271  0  0  0.105444  0.122392  0  1.00502  0
H  H44  1  0.69143035  0.90629529  0.09999603  1  0  0.104741  0  0.924207  0  0  0.127087  0  0.981789  0  0  0.128255  0  0.980906  0  0  0.113176  0.126134  0  0.982517  0
H  H45  1  0.30856774  0.59370023  0.59999795  1  0  0.104728  0  0.924222  0  0  0.127082  0  0.981801  0  0  0.128251  0  0.98092  0  0  0.113154  0.12613  0  0.982531  0
H  H46  1  0.30857001  0.09370205  0.90000347  1  0  0.104777  0  0.924172  0  0  0.12712  0  0.98175  0  0  0.128289  0  0.980868  0  0  0.113177  0.126168  0  0.982478  0
H  H47  1  0.69143234  0.40629985  0.40000282  1  0  0.104745  0  0.924168  0  0  0.127091  0  0.981755  0  0  0.12826  0  0.980873  0  0  0.11317  0.126139  0  0.982483  0
H  H48  1  0.59302212  0.95338923  0.19080828  1  0  0.10534  0  0.941778  0  0  0.124064  0  1.006817  0  0  0.124645  0  1.007278  0  0  0.10799  0.123519  0  1.006637  0
H  H49  1  0.40697976  0.54660755  0.69080768  1  0  0.105342  0  0.941725  0  0  0.124078  0  1.006733  0  0  0.124659  0  1.007197  0  0  0.10799  0.123533  0  1.006556  0
H  H50  1  0.40698412  0.04661087  0.80919376  1  0  0.105351  0  0.94173  0  0  0.124072  0  1.006758  0  0  0.124653  0  1.007222  0  0  0.108007  0.123527  0  1.006579  0
H  H51  1  0.59302001  0.45339162  0.30919245  1  0  0.105334  0  0.941746  0  0  0.124068  0  1.00675  0  0  0.12465  0  1.007213  0  0  0.107983  0.123523  0  1.006573  0
H  H52  1  0.63273262  0.04859641  0.09884881  1  0  0.103652  0  0.936297  0  0  0.123386  0  0.999101  0  0  0.124119  0  0.999327  0  0  0.1047  0.12274  0  0.999034  0
H  H53  1  0.36726528  0.45140009  0.59884971  1  0  0.103696  0  0.936278  0  0  0.123408  0  0.999101  0  0  0.124144  0  0.999332  0  0  0.104691  0.122774  0  0.999024  0
H  H54  1  0.36726650  0.95140093  0.90115133  1  0  0.103652  0  0.936289  0  0  0.123391  0  0.999081  0  0  0.124125  0  0.999306  0  0  0.104687  0.122745  0  0.999015  0
H  H55  1  0.63273823  0.54860274  0.40115043  1  0  0.103683  0  0.936255  0  0  0.123403  0  0.999076  0  0  0.124137  0  0.999305  0  0  0.104688  0.122768  0  0.998998  0
H  H56  1  0.52838382  0.76032170  0.02816067  1  0  0.041472  0  0.945562  0  0  0.0487  0  1.018465  0  0  0.050859  0  1.013165  0  0  0.131021  0.046942  0  1.022437  0
H  H57  1  0.47161748  0.73967520  0.52815759  1  0  0.04144  0  0.945495  0  0  0.048678  0  1.0184  0  0  0.050838  0  1.013098  0  0  0.131002  0.046918  0  1.022374  0
H  H58  1  0.47162333  0.23967749  0.97184137  1  0  0.041529  0  0.94548  0  0  0.048761  0  1.01837  0  0  0.05092  0  1.013069  0  0  0.13102  0.047  0  1.022344  0
H  H59  1  0.52838507  0.26032489  0.47184064  1  0  0.041447  0  0.945544  0  0  0.048678  0  1.01845  0  0  0.050838  0  1.01315  0  0  0.131011  0.046917  0  1.022424  0
C  C60  1  0.80246139  0.70158203  0.86851465  1  0  -0.057232  0  3.797714  0  0  -0.031781  0  4.031198  0  0  -0.038871  0  4.054163  0  0  -0.012377  -0.02728  0  4.01571  0
C  C61  1  0.19753856  0.79841817  0.36851478  1  0  -0.057219  0  3.797835  0  0  -0.031735  0  4.031211  0  0  -0.038824  0  4.054179  0  0  -0.01235  -0.027238  0  4.01572  0
C  C62  1  0.19753249  0.29841437  0.13148358  1  0  -0.057308  0  3.797875  0  0  -0.031733  0  4.03114  0  0  -0.038822  0  4.05411  0  0  -0.012438  -0.027248  0  4.015667  0
C  C63  1  0.80246490  0.20158101  0.63148472  1  0  -0.057235  0  3.797859  0  0  -0.031761  0  4.031246  0  0  -0.038849  0  4.054207  0  0  -0.01242  -0.027267  0  4.015766  0
C  C64  1  0.95817628  0.74237270  0.82653931  1  0  -0.194223  0  3.696008  0  0  -0.224685  0  3.938657  0  0  -0.226924  0  3.956555  0  0  -0.089512  -0.222867  0  3.926607  0
C  C65  1  0.04182177  0.75762868  0.32653907  1  0  -0.19427  0  3.696079  0  0  -0.22476  0  3.938736  0  0  -0.226997  0  3.956629  0  0  -0.089573  -0.222941  0  3.926683  0
C  C66  1  0.04181358  0.25762277  0.17345829  1  0  -0.194206  0  3.695988  0  0  -0.22467  0  3.938623  0  0  -0.226904  0  3.95651  0  0  -0.089471  -0.22285  0  3.926575  0
C  C67  1  0.95818109  0.24237233  0.67345979  1  0  -0.19434  0  3.695964  0  0  -0.22479  0  3.938634  0  0  -0.227025  0  3.956522  0  0  -0.08955  -0.222972  0  3.926585  0
C  C68  1  0.96983374  0.81626075  0.75409189  1  0  0.334239  0  3.826578  0  0  0.328951  0  4.083993  0  0  0.338361  0  4.100577  0  0  0.085192  0.322163  0  4.072768  0
C  C69  1  0.03016287  0.68373926  0.25409250  1  0  0.334283  0  3.826502  0  0  0.329003  0  4.083928  0  0  0.338417  0  4.100508  0  0  0.085217  0.322214  0  4.072699  0
C  C70  1  0.03015429  0.18373655  0.24590571  1  0  0.334138  0  3.826636  0  0  0.328815  0  4.084176  0  0  0.33823  0  4.100758  0  0  0.085005  0.322028  0  4.072943  0
C  C71  1  0.96984154  0.31626266  0.74590573  1  0  0.334305  0  3.826501  0  0  0.32896  0  4.084007  0  0  0.338374  0  4.100591  0  0  0.085121  0.322172  0  4.072779  0
C  C72  1  0.82463410  0.84732543  0.72281123  1  0  -0.168867  0  3.64963  0  0  -0.202541  0  3.900642  0  0  -0.20377  0  3.91705  0  0  -0.083435  -0.201414  0  3.889619  0
C  C73  1  0.17536389  0.65267113  0.22281305  1  0  -0.168962  0  3.649615  0  0  -0.202616  0  3.900656  0  0  -0.203852  0  3.917074  0  0  -0.083393  -0.201484  0  3.889629  0
C  C74  1  0.17535576  0.15267005  0.27718763  1  0  -0.169063  0  3.649514  0  0  -0.202626  0  3.900555  0  0  -0.203847  0  3.916957  0  0  -0.083359  -0.201476  0  3.889536  0
C  C75  1  0.82464053  0.34733079  0.77718709  1  0  -0.169045  0  3.649461  0  0  -0.202657  0  3.900521  0  0  -0.203894  0  3.916932  0  0  -0.083393  -0.201517  0  3.889501  0
C  C76  1  0.66830526  0.80490404  0.76443722  1  0  -0.063069  0  3.797714  0  0  -0.038728  0  4.037311  0  0  -0.045201  0  4.059421  0  0  -0.020062  -0.034716  0  4.022552  0
C  C77  1  0.33169157  0.69509316  0.26443814  1  0  -0.062871  0  3.797662  0  0  -0.038523  0  4.037236  0  0  -0.045004  0  4.059366  0  0  -0.020029  -0.034526  0  4.022467  0
C  C78  1  0.33168707  0.19509144  0.23556355  1  0  -0.062682  0  3.797542  0  0  -0.038367  0  4.037144  0  0  -0.044842  0  4.059267  0  0  -0.019997  -0.034411  0  4.022437  0
C  C79  1  0.66831226  0.30491059  0.73556073  1  0  -0.062697  0  3.79748  0  0  -0.038386  0  4.037113  0  0  -0.044853  0  4.059222  0  0  -0.019997  -0.034409  0  4.022378  0
C  C80  1  0.65922254  0.73482126  0.83805083  1  0  -0.121254  0  3.776493  0  0  -0.16601  0  4.035472  0  0  -0.164969  0  4.054715  0  0  -0.090013  -0.166418  0  4.022503  0
C  C81  1  0.34077416  0.76517639  0.33805154  1  0  -0.121292  0  3.776521  0  0  -0.166067  0  4.035499  0  0  -0.165021  0  4.05474  0  0  -0.090051  -0.166464  0  4.022519  0
C  C82  1  0.34076545  0.26517239  0.16194931  1  0  -0.121372  0  3.776648  0  0  -0.166154  0  4.035589  0  0  -0.165108  0  4.054818  0  0  -0.090042  -0.166533  0  4.022625  0
C  C83  1  0.65922962  0.23482370  0.66194986  1  0  -0.121326  0  3.776523  0  0  -0.166084  0  4.035496  0  0  -0.16504  0  4.054733  0  0  -0.090023  -0.166476  0  4.022533  0
C  C84  1  0.78215729  0.61722100  0.94347168  1  0  0.723278  0  3.881293  0  0  0.679161  0  4.169337  0  0  0.712928  0  4.1572  0  0  0.245136  0.656285  0  4.177047  0
C  C85  1  0.21784348  0.88278239  0.44346776  1  0  0.723209  0  3.88155  0  0  0.679179  0  4.169443  0  0  0.712939  0  4.157312  0  0  0.24511  0.656302  0  4.177155  0
C  C86  1  0.21784343  0.38278091  0.05653163  1  0  0.723339  0  3.881636  0  0  0.679283  0  4.169511  0  0  0.713041  0  4.157379  0  0  0.245125  0.65641  0  4.177227  0
C  C87  1  0.78215569  0.11721860  0.55653174  1  0  0.72338  0  3.881521  0  0  0.679343  0  4.169416  0  0  0.713106  0  4.157276  0  0  0.24519  0.656468  0  4.177135  0
C  C88  1  0.50936083  0.83244377  0.73016298  1  0  0.674684  0  3.883789  0  0  0.624507  0  4.1813  0  0  0.658062  0  4.172511  0  0  0.222349  0.601814  0  4.186622  0
C  C89  1  0.49064086  0.66755641  0.23016381  1  0  0.674517  0  3.88375  0  0  0.624323  0  4.181295  0  0  0.657878  0  4.17251  0  0  0.222291  0.601649  0  4.186584  0
C  C90  1  0.49063551  0.16755264  0.26983716  1  0  0.674419  0  3.883794  0  0  0.62422  0  4.181379  0  0  0.657772  0  4.172597  0  0  0.22227  0.601545  0  4.186695  0
C  C91  1  0.50936174  0.33244733  0.76983569  1  0  0.67443  0  3.883593  0  0  0.624202  0  4.181207  0  0  0.657751  0  4.172428  0  0  0.222247  0.601528  0  4.186512  0
C  C92  1  0.28508359  0.93504144  0.11185881  1  0  -0.170245  0  3.654277  0  0  -0.269233  0  3.894109  0  0  -0.265908  0  3.9059  0  0  -0.133491  -0.271135  0  3.886122  0
C  C93  1  0.71491480  0.56495857  0.61185786  1  0  -0.170158  0  3.654291  0  0  -0.269156  0  3.894144  0  0  -0.265822  0  3.905927  0  0  -0.133444  -0.271071  0  3.886152  0
C  C94  1  0.71491832  0.06495682  0.88814323  1  0  -0.170217  0  3.654373  0  0  -0.26919  0  3.894203  0  0  -0.265852  0  3.90599  0  0  -0.133432  -0.271104  0  3.886209  0
C  C95  1  0.28508656  0.43504517  0.38814355  1  0  -0.170234  0  3.654307  0  0  -0.269213  0  3.894196  0  0  -0.2659  0  3.905967  0  0  -0.133462  -0.271139  0  3.886195  0
C  C96  1  0.59621359  0.95326970  0.12103253  1  0  -0.171541  0  3.661873  0  0  -0.273639  0  3.911991  0  0  -0.270154  0  3.92253  0  0  -0.129508  -0.275666  0  3.90478  0
C  C97  1  0.40378560  0.54672568  0.62103194  1  0  -0.171571  0  3.661802  0  0  -0.273678  0  3.911954  0  0  -0.270193  0  3.922484  0  0  -0.129483  -0.275717  0  3.904738  0
C  C98  1  0.40378831  0.04672856  0.87896888  1  0  -0.171629  0  3.661699  0  0  -0.273724  0  3.911835  0  0  -0.270229  0  3.922346  0  0  -0.129515  -0.275749  0  3.904628  0
C  C99  1  0.59621448  0.45327440  0.37896756  1  0  -0.171627  0  3.661741  0  0  -0.273717  0  3.91189  0  0  -0.270229  0  3.922418  0  0  -0.129495  -0.275754  0  3.904674  0
C  C100  1  0.40985512  0.78865148  0.03988357  1  0  0.412655  0  3.830849  0  0  0.337736  0  4.128031  0  0  0.365309  0  4.127443  0  0  0.189783  0.319295  0  4.127889  0
C  C101  1  0.59014456  0.71134443  0.53988235  1  0  0.412643  0  3.830686  0  0  0.337739  0  4.127839  0  0  0.365313  0  4.12725  0  0  0.189748  0.319295  0  4.127697  0
C  C102  1  0.59015112  0.21134863  0.96011657  1  0  0.412341  0  3.830949  0  0  0.33749  0  4.128046  0  0  0.365063  0  4.12746  0  0  0.189628  0.319049  0  4.127902  0
C  C103  1  0.40985708  0.28865657  0.46011842  1  0  0.412553  0  3.830842  0  0  0.337669  0  4.127987  0  0  0.365243  0  4.127398  0  0  0.18972  0.319229  0  4.127844  0
N  N104  1  0.43037519  0.88952852  0.08776453  1  0  -0.104074  0  3.513532  0  0  0.000772  0  3.749528  0  0  -0.020262  0  3.776279  0  0  -0.283209  0.014883  0  3.730944  0
N  N105  1  0.56962667  0.61046709  0.58776170  1  0  -0.10401  0  3.513626  0  0  0.000838  0  3.749578  0  0  -0.020198  0  3.776336  0  0  -0.283176  0.014951  0  3.730997  0
N  N106  1  0.56963133  0.11046884  0.91223878  1  0  -0.103873  0  3.513443  0  0  0.000912  0  3.749418  0  0  -0.020121  0  3.77617  0  0  -0.283222  0.015021  0  3.730841  0
N  N107  1  0.43037465  0.38953300  0.41223907  1  0  -0.10382  0  3.513439  0  0  0.001003  0  3.749402  0  0  -0.020034  0  3.776169  0  0  -0.283144  0.01511  0  3.730834  0
O  O108  1  0.63898164  0.59272641  0.98181631  1  0  -0.788818  0  1.990785  0  0  -0.743134  0  2.232266  0  0  -0.763498  0  2.215892  0  0  -0.432015  -0.728952  0  2.243274  0
O  O109  1  0.36101634  0.90726942  0.48181599  1  0  -0.78883  0  1.99081  0  0  -0.743201  0  2.232261  0  0  -0.76356  0  2.215889  0  0  -0.432037  -0.729018  0  2.243272  0
O  O110  1  0.36101625  0.40727092  0.01818510  1  0  -0.788935  0  1.990866  0  0  -0.743293  0  2.232312  0  0  -0.763663  0  2.215956  0  0  -0.432062  -0.729093  0  2.243288  0
O  O111  1  0.63898535  0.09273524  0.51818351  1  0  -0.788931  0  1.990973  0  0  -0.743284  0  2.232399  0  0  -0.763661  0  2.21606  0  0  -0.432054  -0.729087  0  2.243379  0
O  O112  1  0.90261260  0.57045917  0.96429732  1  0  -0.769581  0  1.969496  0  0  -0.725676  0  2.208661  0  0  -0.745436  0  2.192011  0  0  -0.432664  -0.71203  0  2.219878  0
O  O113  1  0.09739489  0.92954959  0.46429275  1  0  -0.769513  0  1.969624  0  0  -0.725644  0  2.208747  0  0  -0.7454  0  2.1921  0  0  -0.43261  -0.711998  0  2.219963  0
O  O114  1  0.09739652  0.42954916  0.03570790  1  0  -0.76956  0  1.969654  0  0  -0.725696  0  2.208791  0  0  -0.745452  0  2.192146  0  0  -0.432585  -0.712051  0  2.220006  0
O  O115  1  0.90260798  0.07045142  0.53570675  1  0  -0.769619  0  1.969499  0  0  -0.725755  0  2.208629  0  0  -0.745512  0  2.191979  0  0  -0.432674  -0.71211  0  2.219847  0
O  O116  1  0.52296821  0.90990914  0.67154468  1  0  -0.705723  0  1.946261  0  0  -0.665208  0  2.189406  0  0  -0.686782  0  2.178257  0  0  -0.396515  -0.650261  0  2.196772  0
O  O117  1  0.47703019  0.59009506  0.17154319  1  0  -0.705619  0  1.946276  0  0  -0.665096  0  2.18944  0  0  -0.686671  0  2.178293  0  0  -0.396419  -0.650154  0  2.196795  0
O  O118  1  0.47702968  0.09008819  0.32845482  1  0  -0.705658  0  1.946322  0  0  -0.665128  0  2.189506  0  0  -0.686698  0  2.178356  0  0  -0.39647  -0.650181  0  2.196862  0
O  O119  1  0.52296935  0.40991050  0.82845313  1  0  -0.705678  0  1.946382  0  0  -0.665139  0  2.189564  0  0  -0.686712  0  2.178418  0  0  -0.396489  -0.650195  0  2.196921  0
O  O120  1  0.36568528  0.77407772  0.76325471  1  0  -0.658391  0  2.007594  0  0  -0.591168  0  2.226803  0  0  -0.618266  0  2.217094  0  0  -0.311975  -0.572238  0  2.232913  0
O  O121  1  0.63431530  0.72592316  0.26325524  1  0  -0.658426  0  2.007613  0  0  -0.591182  0  2.226795  0  0  -0.618286  0  2.217074  0  0  -0.312033  -0.572259  0  2.232896  0
O  O122  1  0.63431020  0.22592326  0.23674479  1  0  -0.658297  0  2.007593  0  0  -0.591076  0  2.22687  0  0  -0.618179  0  2.217152  0  0  -0.31196  -0.572149  0  2.232971  0
O  O123  1  0.36568446  0.27407601  0.73674426  1  0  -0.658359  0  2.007365  0  0  -0.591085  0  2.226595  0  0  -0.61819  0  2.216879  0  0  -0.311943  -0.572161  0  2.232698  0
O  O124  1  0.11945026  0.85710506  0.71174039  1  0  -0.557939  0  2.178006  0  0  -0.489226  0  2.383517  0  0  -0.509979  0  2.371546  0  0  -0.3379  -0.474461  0  2.391483  0
O  O125  1  0.88054753  0.64289431  0.21174217  1  0  -0.557877  0  2.178123  0  0  -0.489217  0  2.383648  0  0  -0.50998  0  2.371653  0  0  -0.337909  -0.474453  0  2.391613  0
O  O126  1  0.88054179  0.14289317  0.28825657  1  0  -0.557627  0  2.178086  0  0  -0.489044  0  2.383795  0  0  -0.509812  0  2.371808  0  0  -0.337748  -0.474283  0  2.391761  0
O  O127  1  0.11945534  0.35710669  0.78825670  1  0  -0.557892  0  2.178187  0  0  -0.489169  0  2.383774  0  0  -0.509936  0  2.371782  0  0  -0.337835  -0.474407  0  2.391742  0
O  O128  1  0.27031712  0.73003237  0.01042980  1  0  -0.612035  0  2.015413  0  0  -0.568935  0  2.262652  0  0  -0.589357  0  2.253256  0  0  -0.37838  -0.554747  0  2.268648  0
O  O129  1  0.72969141  0.76996741  0.51042702  1  0  -0.612079  0  2.015251  0  0  -0.568981  0  2.262475  0  0  -0.589406  0  2.253076  0  0  -0.378366  -0.554791  0  2.268473  0
O  O130  1  0.72969657  0.26997142  0.98956970  1  0  -0.61192  0  2.01558  0  0  -0.568833  0  2.262763  0  0  -0.589257  0  2.253367  0  0  -0.378238  -0.554643  0  2.268758  0
O  O131  1  0.27031177  0.23003450  0.48957375  1  0  -0.612062  0  2.015344  0  0  -0.56895  0  2.262523  0  0  -0.589374  0  2.253125  0  0  -0.37835  -0.554761  0  2.268519  0
O  O132  1  0.26267728  0.56768315  0.86079004  1  0  -0.976036  0  1.835288  0  0  -0.937973  0  2.02977  0  0  -0.9521  0  1.99164  0  0  -0.684478  -0.928032  0  2.056584  0
O  O133  1  0.73732116  0.93231618  0.36078928  1  0  -0.976025  0  1.835393  0  0  -0.937952  0  2.029812  0  0  -0.952078  0  1.991681  0  0  -0.684515  -0.928011  0  2.056626  0
O  O134  1  0.73732066  0.43231783  0.13921073  1  0  -0.97601  0  1.835374  0  0  -0.937938  0  2.029835  0  0  -0.952067  0  1.991705  0  0  -0.684501  -0.927996  0  2.056653  0
O  O135  1  0.26267801  0.06768481  0.63921085  1  0  -0.976043  0  1.835328  0  0  -0.937998  0  2.02983  0  0  -0.952123  0  1.991702  0  0  -0.684492  -0.928058  0  2.056646  0
