# generated using pymatgen
data_CuH17C20N3O4
_symmetry_space_group_name_H-M   'P 1'
_cell_length_a   8.57398887
_cell_length_b   10.38938649
_cell_length_c   11.73456840
_cell_angle_alpha   63.71593432
_cell_angle_beta   80.04852231
_cell_angle_gamma   67.01420371
_symmetry_Int_Tables_number   1
_chemical_formula_structural   CuH17C20N3O4
_chemical_formula_sum   'Cu2 H34 C40 N6 O8'
_cell_volume   862.80984988
_cell_formula_units_Z   2
loop_
 _symmetry_equiv_pos_site_id
 _symmetry_equiv_pos_as_xyz
  1  'x, y, z'
loop_
 _atom_site_type_symbol
 _atom_site_label
 _atom_site_symmetry_multiplicity
 _atom_site_fract_x
 _atom_site_fract_y
 _atom_site_fract_z
 _atom_site_occupancy
 _atom_site_pbe_cm5_charge
 _atom_site_pbe_ddec_charge
 _atom_site_pbe_ddec_spin_density
 _atom_site_pbe_ddec_sum_bond_order
 _atom_site_pbe_magmom
Cu  Cu0  1  0.75008799  0.11790843  0.76429784  1  0.780609  0.72502  -0.73988  2.424995  -0.573
Cu  Cu1  1  0.24992324  0.88209003  0.23569769  1  0.780604  0.725044  -0.739881  2.42491  -0.573
H  H2  1  0.41872925  0.14181704  0.91798019  1  0.12302  0.10356  -0.001832  1.00792  -0.003
H  H3  1  0.08151628  0.94016721  0.91798709  1  0.123081  0.103309  -0.001817  1.008165  -0.003
H  H4  1  0.58131176  0.85817641  0.08202928  1  0.1231  0.103652  -0.001832  1.007806  -0.003
H  H5  1  0.91847585  0.05981009  0.08200232  1  0.123092  0.103394  -0.001817  1.008246  -0.003
H  H6  1  0.11407233  0.26736127  0.86386445  1  0.111317  0.121388  -0.000665  1.007493  -0.001
H  H7  1  0.38613382  0.86869716  0.86386528  1  0.111058  0.120557  -0.000661  1.009532  -0.001
H  H8  1  0.88596444  0.73260262  0.13616443  1  0.111383  0.121444  -0.000665  1.007426  -0.001
H  H9  1  0.61385871  0.13129184  0.13613303  1  0.111073  0.12054  -0.000662  1.009507  -0.001
H  H10  1  0.02611342  0.41708133  0.63463695  1  0.109458  0.117904  -1e-05  1.012625  0.0
H  H11  1  0.47400541  0.94834333  0.63464183  1  0.108818  0.117009  -1e-05  1.013906  0.0
H  H12  1  0.97389430  0.58288313  0.36539620  1  0.109494  0.117956  -1e-05  1.012412  0.0
H  H13  1  0.52599403  0.05166614  0.36536110  1  0.108821  0.117064  -1e-05  1.013841  0.0
H  H14  1  0.25538361  0.43458707  0.46573109  1  0.11301  0.139999  -0.000945  1.033219  -0.001
H  H15  1  0.24463336  0.09995014  0.46571408  1  0.112823  0.139312  -0.00094  1.03354  -0.001
H  H16  1  0.74460985  0.56540913  0.53428868  1  0.113077  0.140122  -0.000945  1.033106  -0.001
H  H17  1  0.75537878  0.90005580  0.53428081  1  0.112863  0.139362  -0.00094  1.033652  -0.001
H  H18  1  0.47499790  0.43109005  0.33493741  1  0.110802  0.131534  -0.000783  1.044857  -0.001
H  H19  1  0.02499606  0.23400107  0.33486820  1  0.110894  0.13177  -0.000782  1.044722  -0.001
H  H20  1  0.52498424  0.56892059  0.66507253  1  0.110786  0.131532  -0.000783  1.044766  -0.001
H  H21  1  0.97498408  0.76600381  0.66511541  1  0.110912  0.131826  -0.000782  1.044686  -0.001
H  H22  1  0.74995340  0.39250136  0.21518000  1  0.108071  0.103962  0.000114  0.99378  0.0
H  H23  1  0.25001662  0.60750683  0.78481760  1  0.108035  0.103915  0.000114  0.993753  0.0
H  H24  1  0.85850815  0.59998899  0.99116741  1  0.091624  0.103457  0.00012  0.998787  0.0
H  H25  1  0.64132994  0.40907609  0.99097409  1  0.091108  0.103754  0.000117  0.999442  0.0
H  H26  1  0.14148145  0.40001304  0.00883160  1  0.091679  0.103551  0.00012  0.998714  0.0
H  H27  1  0.35866586  0.59093504  0.00901802  1  0.091181  0.103862  0.000117  0.999326  0.0
H  H28  1  0.63637619  0.66895119  0.99083609  1  0.093748  0.104837  0.000137  1.0009  0.0
H  H29  1  0.86345539  0.34049332  0.99076476  1  0.093965  0.104715  0.00013  1.000781  0.0
H  H30  1  0.36361444  0.33105791  0.00915926  1  0.093722  0.104846  0.000137  1.000828  0.0
H  H31  1  0.13653864  0.65952424  0.00922550  1  0.094004  0.104775  0.00013  1.0007  0.0
H  H32  1  0.86009588  0.57204366  0.78598742  1  0.087189  0.079986  1e-05  1.005063  0.0
H  H33  1  0.63975401  0.64244792  0.78594673  1  0.087157  0.079816  1.1e-05  1.005726  0.0
H  H34  1  0.13989296  0.42797527  0.21400266  1  0.087208  0.079956  1e-05  1.00516  0.0
H  H35  1  0.36023188  0.35757249  0.21404648  1  0.087105  0.07975  1.1e-05  1.005695  0.0
C  C36  1  0.37823753  0.20834128  0.81906172  1  0.056603  0.101105  0.003109  3.926659  0.002
C  C37  1  0.12198015  0.97261099  0.81907764  1  0.056033  0.101384  0.003073  3.926418  0.002
C  C38  1  0.62179087  0.79164883  0.18095007  1  0.056436  0.100825  0.003107  3.926545  0.002
C  C39  1  0.87801751  0.02737445  0.18091386  1  0.055902  0.101171  0.003072  3.926836  0.002
C  C40  1  0.20669180  0.27991746  0.78742191  1  -0.07679  -0.11505  -0.004559  3.939194  -0.006
C  C41  1  0.29349575  0.93262423  0.78741914  1  -0.076754  -0.114151  -0.004558  3.940991  -0.006
C  C42  1  0.79332190  0.72006199  0.21259269  1  -0.076657  -0.114799  -0.004558  3.939105  -0.006
C  C43  1  0.70651160  0.06736007  0.21257917  1  -0.076733  -0.114075  -0.004557  3.941232  -0.006
C  C44  1  0.16007419  0.36240528  0.65969111  1  -0.068492  -0.029194  0.005042  3.948035  0.003
C  C45  1  0.34004987  0.97799180  0.65968250  1  -0.06692  -0.028713  0.005062  3.94967  0.003
C  C46  1  0.83993151  0.63757574  0.34032428  1  -0.068686  -0.029503  0.005044  3.948159  0.003
C  C47  1  0.65995868  0.02200560  0.34031182  1  -0.066892  -0.028792  0.005063  3.949655  0.003
C  C48  1  0.28616210  0.37053061  0.56677230  1  -0.077214  -0.153048  -0.00256  3.907734  -0.003
C  C49  1  0.21392227  0.06296179  0.56676425  1  -0.076935  -0.151463  -0.00258  3.905481  -0.003
C  C50  1  0.71383547  0.62946736  0.43324106  1  -0.077257  -0.15315  -0.00256  3.907815  -0.003
C  C51  1  0.78609190  0.93703519  0.43322814  1  -0.077043  -0.151643  -0.00258  3.905856  -0.003
C  C52  1  0.45551309  0.29552463  0.60492467  1  0.118658  0.162759  -0.0009  3.972013  -0.002
C  C53  1  0.04458480  0.09988938  0.60493983  1  0.11863  0.163991  -0.00089  3.96901  -0.002
C  C54  1  0.54449291  0.70447271  0.39508580  1  0.118565  0.162704  -0.000899  3.971696  -0.002
C  C55  1  0.95541938  0.90010567  0.39504655  1  0.118778  0.164281  -0.00089  3.969268  -0.002
C  C56  1  0.60092794  0.29197512  0.51737924  1  0.125972  0.182552  0.002523  3.986786  0.002
C  C57  1  0.89920197  0.19087427  0.51735201  1  0.126218  0.182319  0.002545  3.985571  0.002
C  C58  1  0.39906807  0.70803269  0.48262195  1  0.125926  0.182501  0.002525  3.98666  0.002
C  C59  1  0.10079600  0.80912579  0.48263629  1  0.126188  0.182197  0.002545  3.98547  0.002
C  C60  1  0.59621738  0.36137643  0.38444774  1  -0.075496  -0.14879  -0.003006  3.890547  -0.003
C  C61  1  0.90381503  0.25413090  0.38441999  1  -0.07483  -0.147681  -0.003002  3.890645  -0.003
C  C62  1  0.40376543  0.63863602  0.61555235  1  -0.075407  -0.148785  -0.003005  3.890729  -0.003
C  C63  1  0.09616736  0.74587494  0.61556607  1  -0.074912  -0.14785  -0.003002  3.890442  -0.003
C  C64  1  0.74999341  0.34058970  0.31882653  1  -0.068974  -0.025064  0.00642  3.965887  0.003
C  C65  1  0.24998936  0.65941716  0.68116999  1  -0.068902  -0.024896  0.006422  3.965675  0.003
C  C66  1  0.74430026  0.82463281  0.84354830  1  0.190061  0.603268  0.00092  4.188557  0.001
C  C67  1  0.75578894  0.33227622  0.84329127  1  0.19203  0.607079  0.000945  4.186769  0.001
C  C68  1  0.25570114  0.17537287  0.15645958  1  0.190073  0.603232  0.00092  4.188893  0.001
C  C69  1  0.24421369  0.66773179  0.15670163  1  0.192145  0.607197  0.000945  4.186743  0.001
C  C70  1  0.74780702  0.66079369  0.92750974  1  -0.170657  -0.297702  -0.003318  3.941359  -0.004
C  C71  1  0.75204841  0.41206392  0.92738695  1  -0.171319  -0.300092  -0.003277  3.941091  -0.004
C  C72  1  0.25218348  0.33921667  0.07248778  1  -0.170695  -0.297899  -0.003319  3.94143  -0.004
C  C73  1  0.24794489  0.58794964  0.07260619  1  -0.171444  -0.300355  -0.003277  3.941052  -0.004
C  C74  1  0.74992348  0.57529632  0.84983226  1  -0.177087  -0.108817  -0.001097  4.000261  -0.001
C  C75  1  0.25006463  0.42471860  0.15016070  1  -0.177059  -0.10858  -0.001097  4.000246  -0.001
N  N76  1  0.49920275  0.21616961  0.73021842  1  -0.335005  -0.249597  -0.068909  3.584082  -0.09
N  N77  1  0.00094102  0.05383592  0.73023123  1  -0.334573  -0.25051  -0.068908  3.583143  -0.09
N  N78  1  0.50081523  0.78383004  0.26978618  1  -0.334975  -0.249461  -0.068914  3.583741  -0.09
N  N79  1  0.99906212  0.94615206  0.26975882  1  -0.33455  -0.2505  -0.068914  3.583214  -0.09
N  N80  1  0.75007946  0.21092376  0.57847496  1  -0.347959  -0.289833  -0.064131  3.677351  -0.085
N  N81  1  0.24992049  0.78908235  0.42151758  1  -0.347914  -0.289724  -0.06412  3.676956  -0.085
O  O82  1  0.75682968  0.90062688  0.90124061  1  -0.344106  -0.575994  -0.025517  2.262568  -0.037
O  O83  1  0.74314228  0.19862290  0.90093009  1  -0.345722  -0.578164  -0.025466  2.263856  -0.037
O  O84  1  0.24317880  0.09937313  0.09876370  1  -0.344123  -0.576017  -0.02552  2.262523  -0.037
O  O85  1  0.25685993  0.80138076  0.09906832  1  -0.345781  -0.578178  -0.025461  2.263921  -0.037
O  O86  1  0.72949907  0.87608059  0.72505689  1  -0.332056  -0.58632  0.00034  2.214913  -0.001
O  O87  1  0.77091632  0.39932223  0.72484308  1  -0.331044  -0.586168  0.000379  2.214749  -0.001
O  O88  1  0.27050184  0.12393519  0.27494198  1  -0.332021  -0.58622  0.000341  2.21529  -0.001
O  O89  1  0.22908648  0.60067686  0.27515533  1  -0.331117  -0.586269  0.000379  2.21455  -0.001
