# generated using pymatgen
data_CdH10C14(N2O)2
_symmetry_space_group_name_H-M   'P 1'
_cell_length_a   9.89290911
_cell_length_b   9.89013186
_cell_length_c   16.62182842
_cell_angle_alpha   95.41579592
_cell_angle_beta   102.88385255
_cell_angle_gamma   117.80124532
_symmetry_Int_Tables_number   1
_chemical_formula_structural   CdH10C14(N2O)2
_chemical_formula_sum   'Cd4 H40 C56 N16 O8'
_cell_volume   1364.75749771
_cell_formula_units_Z   4
loop_
 _symmetry_equiv_pos_site_id
 _symmetry_equiv_pos_as_xyz
  1  'x, y, z'
loop_
 _atom_site_type_symbol
 _atom_site_label
 _atom_site_symmetry_multiplicity
 _atom_site_fract_x
 _atom_site_fract_y
 _atom_site_fract_z
 _atom_site_occupancy
 _atom_site_hle17_bader_spin_density
 _atom_site_hle17_ddec_charge
 _atom_site_hle17_ddec_spin_density
 _atom_site_hle17_ddec_sum_bond_order
 _atom_site_hle17_magmom
 _atom_site_hse06_10hf_bader_spin_density
 _atom_site_hse06_10hf_ddec_charge
 _atom_site_hse06_10hf_ddec_spin_density
 _atom_site_hse06_10hf_ddec_sum_bond_order
 _atom_site_hse06_10hf_magmom
 _atom_site_hse06_bader_spin_density
 _atom_site_hse06_ddec_charge
 _atom_site_hse06_ddec_spin_density
 _atom_site_hse06_ddec_sum_bond_order
 _atom_site_hse06_magmom
 _atom_site_pbe_bader_spin_density
 _atom_site_pbe_cm5_charge
 _atom_site_pbe_ddec_charge
 _atom_site_pbe_ddec_spin_density
 _atom_site_pbe_ddec_sum_bond_order
 _atom_site_pbe_magmom
Cd  Cd0  1  0.04971591  0.32237634  0.00978290  1  0  0.99132  0  1.797383  0  0  0.775001  0  2.252454  0  0  0.830202  0  2.208632  0  0  0.78286  0.736404  0  2.281764  0
Cd  Cd1  1  0.81311119  0.04039857  0.49011938  1  0  0.991212  0  1.799222  0  0  0.774831  0  2.254565  0  0  0.830028  0  2.210701  0  0  0.782954  0.73625  0  2.283895  0
Cd  Cd2  1  0.95028170  0.67762103  0.99021598  1  0  0.991275  0  1.797423  0  0  0.774956  0  2.252469  0  0  0.830161  0  2.208645  0  0  0.782839  0.736367  0  2.281778  0
Cd  Cd3  1  0.18688573  0.95960350  0.50987904  1  0  0.991212  0  1.799278  0  0  0.774827  0  2.254647  0  0  0.830024  0  2.210782  0  0  0.782979  0.736244  0  2.283976  0
H  H4  1  0.77843419  0.89261590  0.00367628  1  0  0.081298  0  0.953102  0  0  0.088913  0  1.020335  0  0  0.091812  0  1.017077  0  0  0.113574  0.086721  0  1.022693  0
H  H5  1  0.38795232  0.77430015  0.49614328  1  0  0.081242  0  0.953939  0  0  0.089032  0  1.021061  0  0  0.091942  0  1.017797  0  0  0.113029  0.086814  0  1.023462  0
H  H6  1  0.22157229  0.10738265  0.99632510  1  0  0.081304  0  0.953119  0  0  0.088911  0  1.020353  0  0  0.091809  0  1.017096  0  0  0.113541  0.086719  0  1.022712  0
H  H7  1  0.61204721  0.22570310  0.50385858  1  0  0.081242  0  0.953936  0  0  0.088983  0  1.021104  0  0  0.091892  0  1.017841  0  0  0.11302  0.086772  0  1.023501  0
H  H8  1  0.56216359  0.89669460  0.05875995  1  0  0.09191  0  0.960329  0  0  0.102622  0  1.022475  0  0  0.105261  0  1.022584  0  0  0.101301  0.101388  0  1.021006  0
H  H9  1  0.33686082  0.50288613  0.44093159  1  0  0.092551  0  0.960466  0  0  0.102584  0  1.023236  0  0  0.105269  0  1.023318  0  0  0.101201  0.10132  0  1.021795  0
H  H10  1  0.43784248  0.10330512  0.94124023  1  0  0.091926  0  0.960414  0  0  0.102638  0  1.022552  0  0  0.105277  0  1.022662  0  0  0.101301  0.101387  0  1.0211  0
H  H11  1  0.66313969  0.49711712  0.55907341  1  0  0.092542  0  0.960447  0  0  0.102596  0  1.023203  0  0  0.105282  0  1.023282  0  0  0.101205  0.101333  0  1.021761  0
H  H12  1  0.42673502  0.68845225  0.13623185  1  0  0.097152  0  0.943689  0  0  0.109059  0  1.001776  0  0  0.111163  0  1.00105  0  0  0.107337  0.107587  0  1.002258  0
H  H13  1  0.05117878  0.28994495  0.36366690  1  0  0.097308  0  0.942458  0  0  0.109143  0  1.00084  0  0  0.111278  0  1.000085  0  0  0.107651  0.107651  0  1.00137  0
H  H14  1  0.57326839  0.31154630  0.86376669  1  0  0.097115  0  0.943728  0  0  0.109019  0  1.001829  0  0  0.111134  0  1.001072  0  0  0.10733  0.107545  0  1.002317  0
H  H15  1  0.94882424  0.71005713  0.63633839  1  0  0.097344  0  0.942524  0  0  0.109181  0  1.000874  0  0  0.111318  0  1.000118  0  0  0.107658  0.107687  0  1.001408  0
H  H16  1  0.50634496  0.48817433  0.15269414  1  0  0.117515  0  0.955244  0  0  0.127711  0  1.014852  0  0  0.131187  0  1.013662  0  0  0.105349  0.124841  0  1.016685  0
H  H17  1  0.83452553  0.35312375  0.34742965  1  0  0.117367  0  0.954733  0  0  0.127879  0  1.013969  0  0  0.131355  0  1.012762  0  0  0.105783  0.125027  0  1.015806  0
H  H18  1  0.49365087  0.51181952  0.84730250  1  0  0.117577  0  0.955171  0  0  0.127727  0  1.014852  0  0  0.13119  0  1.013688  0  0  0.105381  0.124859  0  1.016683  0
H  H19  1  0.16547631  0.64687597  0.65257416  1  0  0.117366  0  0.954749  0  0  0.127898  0  1.013967  0  0  0.131377  0  1.012759  0  0  0.105785  0.125038  0  1.015804  0
H  H20  1  0.65194099  0.33943952  0.19110660  1  0  0.111264  0  0.986189  0  0  0.124554  0  1.043978  0  0  0.127365  0  1.043199  0  0  0.099888  0.122302  0  1.044916  0
H  H21  1  0.64779241  0.46091578  0.30866266  1  0  0.111208  0  0.984007  0  0  0.124397  0  1.042201  0  0  0.127274  0  1.041334  0  0  0.099962  0.122187  0  1.043088  0
H  H22  1  0.34806195  0.66056020  0.80889435  1  0  0.111247  0  0.986233  0  0  0.124537  0  1.044026  0  0  0.127348  0  1.043243  0  0  0.099888  0.122282  0  1.044964  0
H  H23  1  0.35220740  0.53908395  0.69133845  1  0  0.111182  0  0.984025  0  0  0.124399  0  1.042179  0  0  0.127278  0  1.041307  0  0  0.099954  0.122191  0  1.043065  0
H  H24  1  0.82746115  0.20535740  0.15349496  1  0  0.096914  0  0.950205  0  0  0.109535  0  1.008761  0  0  0.111802  0  1.007225  0  0  0.114384  0.108809  0  1.00795  0
H  H25  1  0.55183498  0.67458925  0.34606868  1  0  0.096946  0  0.950225  0  0  0.109564  0  1.008744  0  0  0.111921  0  1.007098  0  0  0.114293  0.108793  0  1.007991  0
H  H26  1  0.17254341  0.79464351  0.84650688  1  0  0.096938  0  0.950164  0  0  0.109556  0  1.008727  0  0  0.111823  0  1.00719  0  0  0.114391  0.108829  0  1.007917  0
H  H27  1  0.44816156  0.32540812  0.65393125  1  0  0.096974  0  0.950191  0  0  0.109596  0  1.0087  0  0  0.111954  0  1.007053  0  0  0.114278  0.108824  0  1.007949  0
H  H28  1  0.43898216  0.91421451  0.80690977  1  0  0.108811  0  0.972209  0  0  0.117884  0  1.036279  0  0  0.121187  0  1.034857  0  0  0.107023  0.115301  0  1.037672  0
H  H29  1  0.60746903  0.63200091  0.69282518  1  0  0.107383  0  0.972958  0  0  0.116312  0  1.037241  0  0  0.119595  0  1.035856  0  0  0.106887  0.113778  0  1.038545  0
H  H30  1  0.56102156  0.08578874  0.19309027  1  0  0.108924  0  0.972249  0  0  0.117959  0  1.036338  0  0  0.121262  0  1.034916  0  0  0.107065  0.115378  0  1.037731  0
H  H31  1  0.39252976  0.36800704  0.30717863  1  0  0.107416  0  0.97297  0  0  0.116347  0  1.037247  0  0  0.119629  0  1.035868  0  0  0.106923  0.113817  0  1.038548  0
H  H32  1  0.68287299  0.02670686  0.93451468  1  0  0.071677  0  0.942762  0  0  0.082455  0  1.005537  0  0  0.084534  0  1.004044  0  0  0.114221  0.080671  0  1.007027  0
H  H33  1  0.59253268  0.74849255  0.56522826  1  0  0.071701  0  0.941267  0  0  0.08251  0  1.003935  0  0  0.084589  0  1.002441  0  0  0.114454  0.080749  0  1.005432  0
H  H34  1  0.31712974  0.97329639  0.06548342  1  0  0.07166  0  0.942764  0  0  0.08241  0  1.005576  0  0  0.084489  0  1.004083  0  0  0.114199  0.080631  0  1.007065  0
H  H35  1  0.40746743  0.25151187  0.43477435  1  0  0.071641  0  0.941266  0  0  0.082503  0  1.003887  0  0  0.084582  0  1.002393  0  0  0.114464  0.080738  0  1.005381  0
H  H36  1  0.96193234  0.34969915  0.81524823  1  0  0.080185  0  0.960449  0  0  0.086914  0  1.024717  0  0  0.088823  0  1.024605  0  0  0.114736  0.085326  0  1.025181  0
H  H37  1  0.03474223  0.14659744  0.68449949  1  0  0.079741  0  0.960873  0  0  0.086615  0  1.024946  0  0  0.088454  0  1.024944  0  0  0.11508  0.0851  0  1.025345  0
H  H38  1  0.03806613  0.65030174  0.18474614  1  0  0.080197  0  0.960487  0  0  0.086923  0  1.024748  0  0  0.088832  0  1.024637  0  0  0.114768  0.085316  0  1.025229  0
H  H39  1  0.96525965  0.85340228  0.31550192  1  0  0.079759  0  0.960791  0  0  0.086632  0  1.024876  0  0  0.088473  0  1.02487  0  0  0.115085  0.085114  0  1.025278  0
H  H40  1  0.73054982  0.24589579  0.68253591  1  0  0.113689  0  0.967794  0  0  0.120275  0  1.032313  0  0  0.123217  0  1.032192  0  0  0.10801  0.118068  0  1.032605  0
H  H41  1  0.06355112  0.04770386  0.81718228  1  0  0.1139  0  0.967941  0  0  0.120565  0  1.032359  0  0  0.123442  0  1.032309  0  0  0.108007  0.11842  0  1.032565  0
H  H42  1  0.26944371  0.75410158  0.31745878  1  0  0.113614  0  0.967782  0  0  0.120245  0  1.032252  0  0  0.123185  0  1.032135  0  0  0.107991  0.118035  0  1.032547  0
H  H43  1  0.93644993  0.95229822  0.18281732  1  0  0.113917  0  0.967883  0  0  0.120572  0  1.032318  0  0  0.123448  0  1.032271  0  0  0.108026  0.118425  0  1.032527  0
C  C44  1  0.71324859  0.80490632  0.03640523  1  0  0.129646  0  3.735685  0  0  0.09709  0  3.992689  0  0  0.105199  0  4.00879  0  0  0.044208  0.092118  0  3.981153  0
C  C45  1  0.26754518  0.67638306  0.46344326  1  0  0.12864  0  3.737469  0  0  0.095733  0  3.994033  0  0  0.103817  0  4.010166  0  0  0.044346  0.090793  0  3.98246  0
C  C46  1  0.28675584  0.19509224  0.96359466  1  0  0.129588  0  3.735592  0  0  0.097041  0  3.992604  0  0  0.10515  0  4.008709  0  0  0.044198  0.092072  0  3.981061  0
C  C47  1  0.73245493  0.32362136  0.53655935  1  0  0.1287  0  3.73747  0  0  0.095847  0  3.994044  0  0  0.103932  0  4.010178  0  0  0.044425  0.0909  0  3.982474  0
C  C48  1  0.59531354  0.80739009  0.06810299  1  0  -0.134895  0  3.751539  0  0  -0.149057  0  4.007794  0  0  -0.155921  0  4.028793  0  0  -0.091727  -0.144443  0  3.991974  0
C  C49  1  0.23827415  0.52672083  0.43167486  1  0  -0.134517  0  3.749676  0  0  -0.148012  0  4.005752  0  0  -0.15491  0  4.026724  0  0  -0.091106  -0.143386  0  3.989937  0
C  C50  1  0.40468865  0.19260611  0.93189646  1  0  -0.135024  0  3.751478  0  0  -0.149188  0  4.007725  0  0  -0.156056  0  4.028727  0  0  -0.091759  -0.144561  0  3.991914  0
C  C51  1  0.76172573  0.47328125  0.56833120  1  0  -0.13448  0  3.749675  0  0  -0.148016  0  4.005754  0  0  -0.154916  0  4.026723  0  0  -0.091114  -0.143391  0  3.989943  0
C  C52  1  0.52124962  0.69278978  0.11133769  1  0  0.013691  0  3.712274  0  0  -0.006557  0  3.963283  0  0  -0.001663  0  3.980375  0  0  -0.064589  -0.009949  0  3.952156  0
C  C53  1  0.08045630  0.40940357  0.38853057  1  0  0.013328  0  3.708792  0  0  -0.006737  0  3.959855  0  0  -0.00188  0  3.976964  0  0  -0.065065  -0.010108  0  3.948722  0
C  C54  1  0.47875116  0.30720760  0.88865862  1  0  0.013905  0  3.712215  0  0  -0.006327  0  3.963195  0  0  -0.001426  0  3.980286  0  0  -0.064497  -0.00972  0  3.952067  0
C  C55  1  0.91954405  0.59059733  0.61147369  1  0  0.013211  0  3.708877  0  0  -0.006824  0  3.959968  0  0  -0.001967  0  3.977078  0  0  -0.065087  -0.010195  0  3.948835  0
C  C56  1  0.56689721  0.58045666  0.12128421  1  0  -0.14137  0  3.676042  0  0  -0.158438  0  3.920921  0  0  -0.165628  0  3.941019  0  0  -0.081932  -0.154338  0  3.908695  0
C  C57  1  0.95821468  0.44512409  0.37871515  1  0  -0.141418  0  3.675326  0  0  -0.158934  0  3.920775  0  0  -0.166122  0  3.940878  0  0  -0.082511  -0.154841  0  3.908554  0
C  C58  1  0.43309846  0.41953484  0.87871228  1  0  -0.141455  0  3.676171  0  0  -0.158512  0  3.921136  0  0  -0.165702  0  3.941226  0  0  -0.081992  -0.154419  0  3.908922  0
C  C59  1  0.04178359  0.55487681  0.62128941  1  0  -0.14136  0  3.675268  0  0  -0.158915  0  3.920724  0  0  -0.166109  0  3.94083  0  0  -0.082536  -0.154814  0  3.908497  0
C  C60  1  0.68671745  0.58514933  0.08776385  1  0  0.195106  0  3.789408  0  0  0.192368  0  4.027344  0  0  0.200375  0  4.047627  0  0  0.11877  0.187209  0  4.013045  0
C  C61  1  0.99649574  0.59850559  0.41222242  1  0  0.196209  0  3.789781  0  0  0.19361  0  4.027827  0  0  0.201635  0  4.048062  0  0  0.119076  0.188423  0  4.013571  0
C  C62  1  0.31328166  0.41484687  0.91223337  1  0  0.195027  0  3.789509  0  0  0.192273  0  4.027472  0  0  0.200281  0  4.047751  0  0  0.118739  0.187112  0  4.013173  0
C  C63  1  0.00350255  0.40149531  0.58778095  1  0  0.196128  0  3.789832  0  0  0.193535  0  4.02789  0  0  0.201562  0  4.048125  0  0  0.119075  0.188348  0  4.013632  0
C  C64  1  0.74154564  0.47164816  0.09475072  1  0  0.095212  0  3.861912  0  0  0.087986  0  4.114243  0  0  0.092423  0  4.136297  0  0  0.070288  0.085191  0  4.09843  0
C  C65  1  0.87618487  0.64654149  0.40519534  1  0  0.095482  0  3.861974  0  0  0.087913  0  4.114763  0  0  0.092305  0  4.136863  0  0  0.070991  0.08516  0  4.098933  0
C  C66  1  0.25845347  0.52834803  0.90524710  1  0  0.095283  0  3.862084  0  0  0.088088  0  4.114386  0  0  0.092529  0  4.136431  0  0  0.070389  0.085296  0  4.098568  0
C  C67  1  0.12381450  0.35345941  0.59480577  1  0  0.095538  0  3.861896  0  0  0.087978  0  4.114676  0  0  0.09237  0  4.136777  0  0  0.071018  0.085225  0  4.098847  0
C  C68  1  0.71963443  0.36257217  0.14612470  1  0  -0.253344  0  3.785739  0  0  -0.274044  0  4.046088  0  0  -0.282483  0  4.067357  0  0  -0.128206  -0.267046  0  4.030763  0
C  C69  1  0.71592316  0.57355828  0.35368450  1  0  -0.2533  0  3.782693  0  0  -0.273924  0  4.043486  0  0  -0.282395  0  4.064734  0  0  -0.128796  -0.26699  0  4.028132  0
C  C70  1  0.28036419  0.63742520  0.85387552  1  0  -0.253427  0  3.785923  0  0  -0.27414  0  4.046279  0  0  -0.282579  0  4.067548  0  0  -0.128296  -0.267141  0  4.030953  0
C  C71  1  0.28407397  0.42644027  0.64631618  1  0  -0.253313  0  3.782714  0  0  -0.273962  0  4.043494  0  0  -0.282434  0  4.064742  0  0  -0.128786  -0.267029  0  4.028144  0
C  C72  1  0.80802342  0.29397204  0.12765675  1  0  0.021281  0  3.778535  0  0  -0.015864  0  4.046066  0  0  -0.009961  0  4.064921  0  0  -0.006862  -0.019628  0  4.031494  0
C  C73  1  0.66606178  0.68069356  0.37202841  1  0  0.021308  0  3.77926  0  0  -0.015776  0  4.046604  0  0  -0.009936  0  4.065446  0  0  -0.006663  -0.019508  0  4.032066  0
C  C74  1  0.19197865  0.70603003  0.87234420  1  0  0.021318  0  3.778537  0  0  -0.015825  0  4.046076  0  0  -0.009923  0  4.064931  0  0  -0.006834  -0.01959  0  4.031508  0
C  C75  1  0.33393536  0.31930498  0.62797227  1  0  0.021301  0  3.779201  0  0  -0.015789  0  4.046547  0  0  -0.009949  0  4.065388  0  0  -0.006641  -0.019516  0  4.032013  0
C  C76  1  0.55426288  0.00844546  0.80645114  1  0  -0.136723  0  3.732416  0  0  -0.157979  0  3.978369  0  0  -0.163413  0  3.999889  0  0  -0.081145  -0.154455  0  3.964123  0
C  C77  1  0.70220160  0.74771838  0.69328620  1  0  -0.135581  0  3.731913  0  0  -0.156469  0  3.977948  0  0  -0.161886  0  3.999469  0  0  -0.081338  -0.152965  0  3.963719  0
C  C78  1  0.44573969  0.99155544  0.19354681  1  0  -0.136913  0  3.732535  0  0  -0.158127  0  3.978489  0  0  -0.163558  0  4.000008  0  0  -0.081239  -0.154598  0  3.964245  0
C  C79  1  0.29779792  0.25228487  0.30671626  1  0  -0.135603  0  3.732073  0  0  -0.156511  0  3.978105  0  0  -0.161928  0  3.999625  0  0  -0.081359  -0.153009  0  3.963877  0
C  C80  1  0.68894662  0.07135381  0.87707686  1  0  0.119474  0  3.724382  0  0  0.089818  0  3.979271  0  0  0.095362  0  3.998448  0  0  0.043746  0.086149  0  3.966468  0
C  C81  1  0.69458680  0.81187553  0.62265845  1  0  0.120085  0  3.725466  0  0  0.090448  0  3.980071  0  0  0.096016  0  3.999222  0  0  0.043731  0.086753  0  3.96732  0
C  C82  1  0.31105698  0.92864709  0.12292123  1  0  0.119466  0  3.724418  0  0  0.089826  0  3.979293  0  0  0.09537  0  3.998469  0  0  0.043787  0.086155  0  3.966496  0
C  C83  1  0.30541319  0.18812655  0.37734221  1  0  0.120173  0  3.725416  0  0  0.090489  0  3.980021  0  0  0.096055  0  3.999172  0  0  0.043719  0.086789  0  3.967268  0
C  C84  1  0.84471118  0.25178730  0.81084831  1  0  0.125682  0  3.701043  0  0  0.097179  0  3.954258  0  0  0.103494  0  3.971779  0  0  0.046551  0.093067  0  3.941963  0
C  C85  1  0.94123227  0.03375438  0.68889419  1  0  0.126002  0  3.701429  0  0  0.097138  0  3.955242  0  0  0.103476  0  3.972732  0  0  0.046205  0.092985  0  3.94294  0
C  C86  1  0.15528443  0.74821007  0.18914668  1  0  0.125717  0  3.700803  0  0  0.097212  0  3.95402  0  0  0.10353  0  3.971535  0  0  0.046522  0.093118  0  3.941724  0
C  C87  1  0.05876968  0.96624534  0.31110421  1  0  0.126052  0  3.701316  0  0  0.097172  0  3.955146  0  0  0.10351  0  3.972637  0  0  0.046218  0.09302  0  3.942848  0
C  C88  1  0.71634757  0.19462569  0.73727718  1  0  -0.11178  0  3.688052  0  0  -0.131837  0  3.932018  0  0  -0.136069  0  3.951127  0  0  -0.07481  -0.129242  0  3.919443  0
C  C89  1  0.95755831  0.97884883  0.76244972  1  0  -0.112396  0  3.688338  0  0  -0.132112  0  3.932207  0  0  -0.136272  0  3.951323  0  0  -0.074917  -0.129566  0  3.91963  0
C  C90  1  0.28365085  0.80537520  0.26271958  1  0  -0.111726  0  3.687804  0  0  -0.131811  0  3.931791  0  0  -0.136042  0  3.950897  0  0  -0.074765  -0.129213  0  3.919197  0
C  C91  1  0.04245103  0.02115325  0.23755164  1  0  -0.1124  0  3.68847  0  0  -0.132122  0  3.932341  0  0  -0.136284  0  3.951459  0  0  -0.074936  -0.129576  0  3.919767  0
C  C92  1  0.56745429  0.07068684  0.73460756  1  0  0.002184  0  3.723201  0  0  0.021906  0  3.951993  0  0  0.019611  0  3.971871  0  0  0.0048  0.023127  0  3.938781  0
C  C93  1  0.83623151  0.83266009  0.76513299  1  0  0.003308  0  3.722116  0  0  0.022531  0  3.951274  0  0  0.020217  0  3.971175  0  0  0.005602  0.023766  0  3.938046  0
C  C94  1  0.43254351  0.92931288  0.26539027  1  0  0.002286  0  3.723023  0  0  0.021991  0  3.951856  0  0  0.019695  0  3.971734  0  0  0.004865  0.023215  0  3.93864  0
C  C95  1  0.16377100  0.16734081  0.23486736  1  0  0.003242  0  3.722288  0  0  0.022526  0  3.951359  0  0  0.020213  0  3.971258  0  0  0.005601  0.023759  0  3.938134  0
C  C96  1  0.42377281  0.01004575  0.65724390  1  0  0.611847  0  3.958614  0  0  0.566556  0  4.244856  0  0  0.599809  0  4.239131  0  0  0.18784  0.544103  0  4.247864  0
C  C97  1  0.85288169  0.76637546  0.84254855  1  0  0.611647  0  3.960188  0  0  0.566374  0  4.246509  0  0  0.599634  0  4.240784  0  0  0.187369  0.543917  0  4.24952  0
C  C98  1  0.57622435  0.98995280  0.34275558  1  0  0.611774  0  3.958454  0  0  0.566444  0  4.244753  0  0  0.599695  0  4.239033  0  0  0.187802  0.543992  0  4.247753  0
C  C99  1  0.14712262  0.23362896  0.15745224  1  0  0.611695  0  3.960143  0  0  0.566406  0  4.246464  0  0  0.599667  0  4.240737  0  0  0.187379  0.54395  0  4.249473  0
N  N100  1  0.87719156  0.35749429  0.06864803  1  0  -0.255353  0  3.262605  0  0  -0.185984  0  3.543193  0  0  -0.203103  0  3.566713  0  0  -0.264832  -0.175041  0  3.527656  0
N  N101  1  0.78855355  0.80872126  0.43111900  1  0  -0.256218  0  3.265959  0  0  -0.186843  0  3.546603  0  0  -0.203991  0  3.570197  0  0  -0.265342  -0.175871  0  3.531011  0
N  N102  1  0.12280690  0.64250074  0.93135144  1  0  -0.255388  0  3.262662  0  0  -0.186011  0  3.543257  0  0  -0.203131  0  3.566777  0  0  -0.264826  -0.175078  0  3.527726  0
N  N103  1  0.21144419  0.19127846  0.56888183  1  0  -0.256164  0  3.265913  0  0  -0.186782  0  3.546545  0  0  -0.203928  0  3.570135  0  0  -0.265297  -0.17581  0  3.530956  0
N  N104  1  0.83580687  0.46485704  0.04813095  1  0  -0.314104  0  3.231789  0  0  -0.250089  0  3.50762  0  0  -0.26628  0  3.529121  0  0  -0.270778  -0.239604  0  3.493234  0
N  N105  1  0.91614483  0.78749479  0.45180117  1  0  -0.313418  0  3.232502  0  0  -0.249323  0  3.508395  0  0  -0.265457  0  3.529873  0  0  -0.270446  -0.238864  0  3.494005  0
N  N106  1  0.16418941  0.53513563  0.95186569  1  0  -0.314084  0  3.231975  0  0  -0.250071  0  3.507774  0  0  -0.266261  0  3.529272  0  0  -0.270823  -0.239591  0  3.493399  0
N  N107  1  0.08385351  0.21250611  0.54819980  1  0  -0.313459  0  3.232422  0  0  -0.249374  0  3.50833  0  0  -0.265509  0  3.529809  0  0  -0.270485  -0.238908  0  3.493924  0
N  N108  1  0.75828398  0.69753567  0.04638495  1  0  -0.363299  0  3.232373  0  0  -0.28923  0  3.491888  0  0  -0.308546  0  3.509083  0  0  -0.329843  -0.275715  0  3.479357  0
N  N109  1  0.15022184  0.71143394  0.45354633  1  0  -0.36392  0  3.234259  0  0  -0.289643  0  3.493754  0  0  -0.308991  0  3.510979  0  0  -0.33019  -0.276107  0  3.481193  0
N  N110  1  0.24171615  0.30246053  0.95361361  1  0  -0.36323  0  3.232241  0  0  -0.289162  0  3.491765  0  0  -0.308479  0  3.50896  0  0  -0.329816  -0.275646  0  3.479234  0
N  N111  1  0.84977544  0.28856696  0.54645569  1  0  -0.363934  0  3.234323  0  0  -0.289656  0  3.493791  0  0  -0.309005  0  3.511016  0  0  -0.330238  -0.276118  0  3.481229  0
N  N112  1  0.83211207  0.19136681  0.87976472  1  0  -0.320895  0  3.237158  0  0  -0.249973  0  3.50917  0  0  -0.26734  0  3.527196  0  0  -0.325973  -0.237809  0  3.495807  0
N  N113  1  0.81194711  0.95236658  0.61999226  1  0  -0.321035  0  3.239941  0  0  -0.250033  0  3.512064  0  0  -0.267411  0  3.530111  0  0  -0.326024  -0.237865  0  3.498696  0
N  N114  1  0.16789216  0.80863526  0.12023172  1  0  -0.320859  0  3.2371  0  0  -0.249928  0  3.509104  0  0  -0.267294  0  3.527128  0  0  -0.325986  -0.237762  0  3.495732  0
N  N115  1  0.18805434  0.04763432  0.38000914  1  0  -0.321131  0  3.239787  0  0  -0.250108  0  3.511925  0  0  -0.267486  0  3.529972  0  0  -0.326058  -0.237942  0  3.498559  0
O  O116  1  0.28566388  0.92230390  0.66296989  1  0  -0.619796  0  1.899971  0  0  -0.5684  0  2.123607  0  0  -0.593205  0  2.115077  0  0  -0.331286  -0.551127  0  2.129063  0
O  O117  1  0.75926053  0.62265577  0.83698719  1  0  -0.620424  0  1.900209  0  0  -0.568975  0  2.123435  0  0  -0.593762  0  2.114924  0  0  -0.331705  -0.551703  0  2.128844  0
O  O118  1  0.71433387  0.07769582  0.33703033  1  0  -0.619811  0  1.899852  0  0  -0.568402  0  2.123505  0  0  -0.593207  0  2.114977  0  0  -0.331335  -0.551146  0  2.128975  0
O  O119  1  0.24073988  0.37734513  0.16301407  1  0  -0.620397  0  1.900321  0  0  -0.568957  0  2.123559  0  0  -0.593744  0  2.115044  0  0  -0.33169  -0.551698  0  2.12897  0
O  O120  1  0.45252669  0.05587197  0.59022373  1  0  -0.624335  0  1.955793  0  0  -0.56042  0  2.197972  0  0  -0.589241  0  2.189227  0  0  -0.332784  -0.540079  0  2.20267  0
O  O121  1  0.96594978  0.86222040  0.90948391  1  0  -0.62429  0  1.955439  0  0  -0.560348  0  2.197919  0  0  -0.58921  0  2.189188  0  0  -0.33264  -0.53999  0  2.202615  0
O  O122  1  0.54746737  0.94412657  0.40977471  1  0  -0.624291  0  1.955776  0  0  -0.560328  0  2.197917  0  0  -0.589143  0  2.189173  0  0  -0.332734  -0.539998  0  2.20265  0
O  O123  1  0.03405336  0.13778167  0.09051539  1  0  -0.624343  0  1.95531  0  0  -0.560402  0  2.197802  0  0  -0.589263  0  2.189075  0  0  -0.332676  -0.540039  0  2.202479  0
