# generated using pymatgen
data_ZnH11C8N3ClO
_symmetry_space_group_name_H-M   'P 1'
_cell_length_a   9.26443581
_cell_length_b   11.13294809
_cell_length_c   11.43813873
_cell_angle_alpha   109.81667027
_cell_angle_beta   90.00011169
_cell_angle_gamma   90.00007906
_symmetry_Int_Tables_number   1
_chemical_formula_structural   ZnH11C8N3ClO
_chemical_formula_sum   'Zn4 H44 C32 N12 Cl4 O4'
_cell_volume   1109.87380065
_cell_formula_units_Z   4
loop_
 _symmetry_equiv_pos_site_id
 _symmetry_equiv_pos_as_xyz
  1  'x, y, z'
loop_
 _atom_site_type_symbol
 _atom_site_label
 _atom_site_symmetry_multiplicity
 _atom_site_fract_x
 _atom_site_fract_y
 _atom_site_fract_z
 _atom_site_occupancy
 _atom_site_hle17_bader_spin_density
 _atom_site_hle17_ddec_charge
 _atom_site_hle17_ddec_spin_density
 _atom_site_hle17_ddec_sum_bond_order
 _atom_site_hle17_magmom
 _atom_site_hse06_10hf_bader_spin_density
 _atom_site_hse06_10hf_ddec_charge
 _atom_site_hse06_10hf_ddec_spin_density
 _atom_site_hse06_10hf_ddec_sum_bond_order
 _atom_site_hse06_10hf_magmom
 _atom_site_hse06_bader_spin_density
 _atom_site_hse06_ddec_charge
 _atom_site_hse06_ddec_spin_density
 _atom_site_hse06_ddec_sum_bond_order
 _atom_site_hse06_magmom
 _atom_site_pbe_bader_spin_density
 _atom_site_pbe_cm5_charge
 _atom_site_pbe_ddec_charge
 _atom_site_pbe_ddec_spin_density
 _atom_site_pbe_ddec_sum_bond_order
 _atom_site_pbe_magmom
Zn  Zn0  1  0.72017753  0.62992737  0.32980413  1  0  0.933665  0  2.034493  0  0  0.762003  0  2.516902  0  0  0.800649  0  2.470407  0  0  0.63884  0.735987  0  2.547328  0
Zn  Zn1  1  0.22017623  0.87007200  0.17019489  1  0  0.933651  0  2.034545  0  0  0.761979  0  2.516961  0  0  0.800627  0  2.470464  0  0  0.638831  0.735964  0  2.547386  0
Zn  Zn2  1  0.27982171  0.37007175  0.67019516  1  0  0.933645  0  2.034553  0  0  0.761964  0  2.516974  0  0  0.80061  0  2.470481  0  0  0.638832  0.73595  0  2.547401  0
Zn  Zn3  1  0.77982301  0.12992807  0.82980559  1  0  0.933641  0  2.034563  0  0  0.761961  0  2.516974  0  0  0.80061  0  2.470477  0  0  0.63882  0.735945  0  2.547396  0
H  H4  1  0.55529618  0.57436942  0.12408259  1  0  0.119104  0  0.971565  0  0  0.138969  0  1.035817  0  0  0.140852  0  1.035062  0  0  0.091894  0.137675  0  1.036602  0
H  H5  1  0.05529655  0.92563059  0.37591813  1  0  0.119112  0  0.971557  0  0  0.138979  0  1.035795  0  0  0.140862  0  1.03504  0  0  0.0919  0.137686  0  1.036578  0
H  H6  1  0.44470415  0.42563065  0.87591701  1  0  0.119104  0  0.971541  0  0  0.138958  0  1.035804  0  0  0.140842  0  1.035048  0  0  0.091896  0.137663  0  1.036587  0
H  H7  1  0.94470378  0.07436853  0.62408290  1  0  0.119104  0  0.971569  0  0  0.138968  0  1.035821  0  0  0.140851  0  1.035066  0  0  0.091898  0.137673  0  1.036605  0
H  H8  1  0.49547386  0.68012601  0.04592597  1  0  0.140145  0  0.927192  0  0  0.160589  0  0.983573  0  0  0.163738  0  0.981539  0  0  0.101388  0.158427  0  0.985537  0
H  H9  1  0.99547361  0.81987484  0.45407398  1  0  0.140184  0  0.92714  0  0  0.160636  0  0.983505  0  0  0.163786  0  0.98147  0  0  0.1014  0.15847  0  0.985477  0
H  H10  1  0.50452539  0.31987406  0.95407363  1  0  0.140163  0  0.927155  0  0  0.160618  0  0.983517  0  0  0.16377  0  0.981479  0  0  0.1014  0.158448  0  0.985493  0
H  H11  1  0.00452564  0.18012619  0.54592594  1  0  0.140162  0  0.927168  0  0  0.160618  0  0.983531  0  0  0.163769  0  0.981494  0  0  0.101405  0.158447  0  0.985506  0
H  H12  1  0.36839759  0.60159109  0.10959814  1  0  0.128137  0  0.950041  0  0  0.150297  0  1.008875  0  0  0.152034  0  1.009279  0  0  0.098759  0.149311  0  1.008759  0
H  H13  1  0.86839948  0.89840857  0.39040295  1  0  0.128158  0  0.950005  0  0  0.150322  0  1.008831  0  0  0.152059  0  1.009234  0  0  0.098773  0.149336  0  1.008715  0
H  H14  1  0.63160273  0.39840899  0.89040146  1  0  0.128132  0  0.949994  0  0  0.150299  0  1.008818  0  0  0.152035  0  1.009223  0  0  0.09877  0.149313  0  1.0087  0
H  H15  1  0.13160192  0.10159246  0.60959871  1  0  0.128157  0  0.949988  0  0  0.150316  0  1.008823  0  0  0.152053  0  1.009227  0  0  0.098781  0.14933  0  1.008706  0
H  H16  1  0.71067720  0.89559665  0.57378987  1  0  0.119975  0  0.986317  0  0  0.1255  0  1.057837  0  0  0.128706  0  1.056318  0  0  0.096021  0.123447  0  1.058502  0
H  H17  1  0.21067500  0.60440386  0.92621095  1  0  0.119956  0  0.986293  0  0  0.125479  0  1.057823  0  0  0.128685  0  1.056303  0  0  0.096005  0.123427  0  1.058487  0
H  H18  1  0.28932421  0.10440247  0.42621029  1  0  0.11995  0  0.986308  0  0  0.12547  0  1.057842  0  0  0.128677  0  1.056323  0  0  0.096  0.123418  0  1.058506  0
H  H19  1  0.78932425  0.39559621  0.07378952  1  0  0.119971  0  0.98625  0  0  0.125482  0  1.057793  0  0  0.128689  0  1.056272  0  0  0.09601  0.12343  0  1.058457  0
H  H20  1  0.64427033  0.60409782  0.58405127  1  0  0.045609  0  0.941939  0  0  0.052201  0  1.015858  0  0  0.054262  0  1.010367  0  0  0.119144  0.050297  0  1.020314  0
H  H21  1  0.14426859  0.89590256  0.91594940  1  0  0.045628  0  0.941931  0  0  0.052216  0  1.015853  0  0  0.054276  0  1.010362  0  0  0.119132  0.050303  0  1.020316  0
H  H22  1  0.35572999  0.39590225  0.41594920  1  0  0.04569  0  0.942001  0  0  0.052282  0  1.015897  0  0  0.054342  0  1.010407  0  0  0.11918  0.050373  0  1.020356  0
H  H23  1  0.85572958  0.10409751  0.08405107  1  0  0.045595  0  0.941959  0  0  0.052183  0  1.015875  0  0  0.05424  0  1.010384  0  0  0.119136  0.050265  0  1.020342  0
H  H24  1  0.04972147  0.53198304  0.65140431  1  0  0.096304  0  0.968512  0  0  0.113289  0  1.040125  0  0  0.113829  0  1.040252  0  0  0.097842  0.112356  0  1.04112  0
H  H25  1  0.54972121  0.96801621  0.84859671  1  0  0.096319  0  0.968512  0  0  0.113302  0  1.040129  0  0  0.113842  0  1.040257  0  0  0.097845  0.112365  0  1.041128  0
H  H26  1  0.95027886  0.46801608  0.34859585  1  0  0.096316  0  0.968506  0  0  0.113306  0  1.040121  0  0  0.113846  0  1.040247  0  0  0.097846  0.112369  0  1.041119  0
H  H27  1  0.45027803  0.03198386  0.15140289  1  0  0.096315  0  0.968509  0  0  0.113303  0  1.04012  0  0  0.113842  0  1.040248  0  0  0.097845  0.112366  0  1.041118  0
H  H28  1  0.02565983  0.68369938  0.76968448  1  0  0.099862  0  0.94126  0  0  0.119496  0  1.007512  0  0  0.119105  0  1.008862  0  0  0.100787  0.119367  0  1.007523  0
H  H29  1  0.52565904  0.81630269  0.73031656  1  0  0.099883  0  0.94126  0  0  0.119522  0  1.007497  0  0  0.119129  0  1.008849  0  0  0.100798  0.119393  0  1.007507  0
H  H30  1  0.97434158  0.31630260  0.23031750  1  0  0.099879  0  0.941255  0  0  0.119507  0  1.007513  0  0  0.119115  0  1.008866  0  0  0.100801  0.119379  0  1.007522  0
H  H31  1  0.47434129  0.18369739  0.26968391  1  0  0.099875  0  0.941253  0  0  0.119508  0  1.007501  0  0  0.119115  0  1.008853  0  0  0.100792  0.119379  0  1.007512  0
H  H32  1  0.02625329  0.67228573  0.60966599  1  0  0.115398  0  0.934681  0  0  0.134773  0  0.993505  0  0  0.136537  0  0.992239  0  0  0.109083  0.133166  0  0.99535  0
H  H33  1  0.52625183  0.82771443  0.89033355  1  0  0.115403  0  0.934693  0  0  0.134773  0  0.993518  0  0  0.136536  0  0.992252  0  0  0.109079  0.133165  0  0.995361  0
H  H34  1  0.97374811  0.32771530  0.39033392  1  0  0.115404  0  0.934688  0  0  0.134781  0  0.99351  0  0  0.136545  0  0.992243  0  0  0.109083  0.133174  0  0.995354  0
H  H35  1  0.47374742  0.17228469  0.10966661  1  0  0.115411  0  0.934694  0  0  0.13478  0  0.993515  0  0  0.136543  0  0.99225  0  0  0.109089  0.133173  0  0.99536  0
H  H36  1  0.65673536  0.55144498  0.74831990  1  0  0.106126  0  0.97627  0  0  0.122965  0  1.045608  0  0  0.12367  0  1.045851  0  0  0.09736  0.121632  0  1.046731  0
H  H37  1  0.15673655  0.94855447  0.75167874  1  0  0.106109  0  0.976285  0  0  0.122948  0  1.045629  0  0  0.123651  0  1.045873  0  0  0.097352  0.121615  0  1.046752  0
H  H38  1  0.34326389  0.44855509  0.25167970  1  0  0.106097  0  0.976286  0  0  0.122937  0  1.045631  0  0  0.123641  0  1.045874  0  0  0.097349  0.121603  0  1.046755  0
H  H39  1  0.84326378  0.05144560  0.24832086  1  0  0.106115  0  0.976295  0  0  0.122958  0  1.045629  0  0  0.123661  0  1.045873  0  0  0.097366  0.121625  0  1.046753  0
H  H40  1  0.79733559  0.62840878  0.85602762  1  0  0.104871  0  0.918174  0  0  0.125381  0  0.977182  0  0  0.126083  0  0.977617  0  0  0.105863  0.124699  0  0.977063  0
H  H41  1  0.29733423  0.87159094  0.64397221  1  0  0.104847  0  0.918213  0  0  0.125371  0  0.977209  0  0  0.126072  0  0.977645  0  0  0.105863  0.12469  0  0.97709  0
H  H42  1  0.20266582  0.37159034  0.14397254  1  0  0.104829  0  0.918242  0  0  0.125362  0  0.97723  0  0  0.126063  0  0.977665  0  0  0.105861  0.124681  0  0.977111  0
H  H43  1  0.70266610  0.12840913  0.35602739  1  0  0.104843  0  0.918238  0  0  0.125374  0  0.977224  0  0  0.126075  0  0.97766  0  0  0.105863  0.124693  0  0.977106  0
H  H44  1  0.82009873  0.46745912  0.75597895  1  0  0.105107  0  0.944427  0  0  0.124785  0  1.004508  0  0  0.124937  0  1.006058  0  0  0.103703  0.124869  0  1.002767  0
H  H45  1  0.32009813  0.03254174  0.74402132  1  0  0.105084  0  0.944427  0  0  0.124791  0  1.004481  0  0  0.124944  0  1.00603  0  0  0.103722  0.124875  0  1.00274  0
H  H46  1  0.17990160  0.53254096  0.24402065  1  0  0.105114  0  0.944415  0  0  0.124791  0  1.004501  0  0  0.124943  0  1.006051  0  0  0.10371  0.124875  0  1.002761  0
H  H47  1  0.67990220  0.96745929  0.25598034  1  0  0.105122  0  0.944427  0  0  0.1248  0  1.004507  0  0  0.124955  0  1.006053  0  0  0.103701  0.124885  0  1.002766  0
C  C48  1  0.48022552  0.75578813  0.24426113  1  0  0.45344  0  3.738727  0  0  0.434479  0  4.00485  0  0  0.454034  0  4.01733  0  0  0.212575  0.421512  0  3.996229  0
C  C49  1  0.98022899  0.74421078  0.25573814  1  0  0.453443  0  3.738637  0  0  0.434477  0  4.004757  0  0  0.454031  0  4.017238  0  0  0.212554  0.421508  0  3.996141  0
C  C50  1  0.51977264  0.24421099  0.75573815  1  0  0.453414  0  3.738655  0  0  0.434442  0  4.004777  0  0  0.453992  0  4.017264  0  0  0.212544  0.421475  0  3.996154  0
C  C51  1  0.01977241  0.25578833  0.74426202  1  0  0.453456  0  3.738608  0  0  0.434456  0  4.004759  0  0  0.454018  0  4.017232  0  0  0.212535  0.421489  0  3.996138  0
C  C52  1  0.47530648  0.64705008  0.12474973  1  0  -0.396039  0  3.690603  0  0  -0.473748  0  3.920904  0  0  -0.478254  0  3.925421  0  0  -0.237161  -0.471383  0  3.919007  0
C  C53  1  0.97530826  0.85294691  0.37524803  1  0  -0.396138  0  3.690554  0  0  -0.473863  0  3.920879  0  0  -0.47837  0  3.925395  0  0  -0.23721  -0.471495  0  3.918989  0
C  C54  1  0.52469277  0.35294712  0.87524805  1  0  -0.396054  0  3.690543  0  0  -0.473771  0  3.920867  0  0  -0.478278  0  3.925384  0  0  -0.237185  -0.471398  0  3.918975  0
C  C55  1  0.02469207  0.14705221  0.62475125  1  0  -0.396081  0  3.690544  0  0  -0.473795  0  3.920862  0  0  -0.478306  0  3.925376  0  0  -0.237198  -0.471422  0  3.918973  0
C  C56  1  0.55046434  0.88111658  0.42871316  1  0  0.143789  0  3.868383  0  0  0.138283  0  4.119039  0  0  0.142213  0  4.143209  0  0  0.068475  0.135894  0  4.102562  0
C  C57  1  0.05046239  0.61888342  0.07128667  1  0  0.143802  0  3.868355  0  0  0.138295  0  4.119007  0  0  0.142225  0  4.143178  0  0  0.068501  0.135907  0  4.10253  0
C  C58  1  0.44953707  0.11888254  0.57128612  1  0  0.143774  0  3.868365  0  0  0.138263  0  4.119031  0  0  0.142193  0  4.143203  0  0  0.068495  0.135875  0  4.102552  0
C  C59  1  0.94953686  0.38111761  0.92871325  1  0  0.14377  0  3.868419  0  0  0.138248  0  4.119081  0  0  0.142177  0  4.143255  0  0  0.068489  0.135858  0  4.102602  0
C  C60  1  0.62128050  0.93996088  0.54167128  1  0  -0.255179  0  3.757751  0  0  -0.277743  0  4.014077  0  0  -0.282476  0  4.033748  0  0  -0.115003  -0.27489  0  4.000291  0
C  C61  1  0.12127830  0.56004041  0.95832879  1  0  -0.255142  0  3.757732  0  0  -0.277707  0  4.014051  0  0  -0.282445  0  4.033727  0  0  -0.114992  -0.274848  0  4.000239  0
C  C62  1  0.37871983  0.06003728  0.45832769  1  0  -0.255132  0  3.757661  0  0  -0.2777  0  4.013982  0  0  -0.282434  0  4.033652  0  0  -0.114989  -0.274847  0  4.000191  0
C  C63  1  0.87871987  0.43996157  0.04167144  1  0  -0.255139  0  3.757706  0  0  -0.277691  0  4.014034  0  0  -0.282427  0  4.033704  0  0  -0.114992  -0.274842  0  4.000248  0
C  C64  1  0.56789613  0.06021624  0.61186282  1  0  0.145203  0  3.869708  0  0  0.139532  0  4.120051  0  0  0.143075  0  4.14517  0  0  0.06987  0.137523  0  4.102133  0
C  C65  1  0.06789548  0.43978414  0.88813776  1  0  0.145186  0  3.869701  0  0  0.139533  0  4.120014  0  0  0.143078  0  4.145132  0  0  0.069868  0.137526  0  4.102096  0
C  C66  1  0.43210527  0.93978193  0.38813702  1  0  0.145156  0  3.869697  0  0  0.139514  0  4.120006  0  0  0.143057  0  4.145126  0  0  0.06988  0.137504  0  4.102089  0
C  C67  1  0.93210377  0.56021689  0.11186302  1  0  0.145153  0  3.869719  0  0  0.139496  0  4.120036  0  0  0.143041  0  4.145154  0  0  0.069859  0.137486  0  4.102119  0
C  C68  1  0.76010147  0.62575533  0.58139554  1  0  0.392405  0  3.784433  0  0  0.314375  0  4.066599  0  0  0.342828  0  4.066769  0  0  0.179295  0.295706  0  4.065643  0
C  C69  1  0.26010078  0.87424527  0.91860539  1  0  0.392335  0  3.78452  0  0  0.314309  0  4.066678  0  0  0.342763  0  4.06685  0  0  0.179282  0.295647  0  4.065721  0
C  C70  1  0.23989993  0.37424474  0.41860581  1  0  0.392264  0  3.784538  0  0  0.314247  0  4.066687  0  0  0.342699  0  4.066858  0  0  0.179223  0.295584  0  4.065729  0
C  C71  1  0.73989847  0.12575480  0.08139508  1  0  0.392383  0  3.784443  0  0  0.314365  0  4.066602  0  0  0.342823  0  4.066769  0  0  0.179284  0.295709  0  4.065646  0
C  C72  1  0.99504088  0.62457841  0.67505610  1  0  -0.165166  0  3.635529  0  0  -0.267672  0  3.883587  0  0  -0.26419  0  3.89406  0  0  -0.139031  -0.270727  0  3.878525  0
C  C73  1  0.49503996  0.87542169  0.82494416  1  0  -0.165204  0  3.635573  0  0  -0.267711  0  3.883625  0  0  -0.264229  0  3.894102  0  0  -0.13904  -0.270762  0  3.878564  0
C  C74  1  0.00496053  0.37542166  0.32494437  1  0  -0.165189  0  3.635549  0  0  -0.267709  0  3.883638  0  0  -0.264225  0  3.894109  0  0  -0.139046  -0.27076  0  3.878578  0
C  C75  1  0.50496037  0.12457839  0.17505631  1  0  -0.1652  0  3.635546  0  0  -0.267695  0  3.883591  0  0  -0.264216  0  3.894072  0  0  -0.139033  -0.270746  0  3.878531  0
C  C76  1  0.77396109  0.56048729  0.76271016  1  0  -0.176545  0  3.640208  0  0  -0.274541  0  3.884149  0  0  -0.271977  0  3.895708  0  0  -0.131184  -0.275561  0  3.876021  0
C  C77  1  0.27396115  0.93951238  0.73728961  1  0  -0.176505  0  3.640248  0  0  -0.274533  0  3.884177  0  0  -0.27197  0  3.895738  0  0  -0.131199  -0.275551  0  3.876052  0
C  C78  1  0.22603924  0.43951182  0.23728913  1  0  -0.176489  0  3.640267  0  0  -0.274505  0  3.884211  0  0  -0.271942  0  3.895772  0  0  -0.131183  -0.275523  0  3.876086  0
C  C79  1  0.72603918  0.06048769  0.26271086  1  0  -0.176536  0  3.640302  0  0  -0.274554  0  3.884239  0  0  -0.27199  0  3.8958  0  0  -0.131192  -0.275569  0  3.876107  0
N  N80  1  0.57727958  0.76494490  0.33523476  1  0  -0.528537  0  3.236584  0  0  -0.451497  0  3.525986  0  0  -0.475024  0  3.535693  0  0  -0.381721  -0.435401  0  3.518456  0
N  N81  1  0.07728128  0.73505514  0.16476338  1  0  -0.528524  0  3.2365  0  0  -0.451464  0  3.525885  0  0  -0.474991  0  3.535594  0  0  -0.381712  -0.435368  0  3.518357  0
N  N82  1  0.42271859  0.23505517  0.66476309  1  0  -0.528481  0  3.236447  0  0  -0.451414  0  3.52583  0  0  -0.47494  0  3.53554  0  0  -0.381682  -0.435318  0  3.5183  0
N  N83  1  0.92271796  0.26494493  0.83523622  1  0  -0.528508  0  3.236498  0  0  -0.451431  0  3.525893  0  0  -0.47496  0  3.535601  0  0  -0.381681  -0.435332  0  3.518361  0
N  N84  1  0.39057636  0.85754324  0.27152622  1  0  -0.523087  0  3.219671  0  0  -0.447018  0  3.510895  0  0  -0.470348  0  3.520589  0  0  -0.382673  -0.430843  0  3.502814  0
N  N85  1  0.89057744  0.64245741  0.22847349  1  0  -0.523068  0  3.219609  0  0  -0.446998  0  3.510831  0  0  -0.470325  0  3.520524  0  0  -0.382647  -0.430821  0  3.50275  0
N  N86  1  0.60942289  0.14245683  0.72847338  1  0  -0.523113  0  3.219664  0  0  -0.447034  0  3.510898  0  0  -0.470362  0  3.520593  0  0  -0.382678  -0.43086  0  3.502818  0
N  N87  1  0.10942289  0.35754267  0.77152699  1  0  -0.523136  0  3.219606  0  0  -0.44705  0  3.510827  0  0  -0.470379  0  3.520518  0  0  -0.382671  -0.430876  0  3.502749  0
N  N88  1  0.83936597  0.60532491  0.66930563  1  0  -0.063122  0  3.506409  0  0  0.042485  0  3.734832  0  0  0.023046  0  3.760145  0  0  -0.272607  0.055919  0  3.716472  0
N  N89  1  0.33936510  0.89467489  0.83069341  1  0  -0.063102  0  3.506435  0  0  0.042503  0  3.73485  0  0  0.023063  0  3.760166  0  0  -0.272597  0.05594  0  3.716486  0
N  N90  1  0.16063544  0.39467421  0.33069366  1  0  -0.063129  0  3.506379  0  0  0.042482  0  3.73479  0  0  0.023042  0  3.760105  0  0  -0.272597  0.055917  0  3.716427  0
N  N91  1  0.66063415  0.10532518  0.16930619  1  0  -0.063133  0  3.50641  0  0  0.042457  0  3.734841  0  0  0.023017  0  3.760154  0  0  -0.272626  0.055893  0  3.716476  0
Cl  Cl92  1  0.62212495  0.43605271  0.29329328  1  0  -0.596014  0  0.892232  0  0  -0.532875  0  1.154608  0  0  -0.547738  0  1.132021  0  0  -0.320788  -0.522385  0  1.171911  0
Cl  Cl93  1  0.12212539  0.06394660  0.20670736  1  0  -0.596015  0  0.892239  0  0  -0.532871  0  1.154616  0  0  -0.547736  0  1.132029  0  0  -0.320783  -0.522381  0  1.171915  0
Cl  Cl94  1  0.37787538  0.56394736  0.70670720  1  0  -0.596019  0  0.892236  0  0  -0.532871  0  1.154612  0  0  -0.547737  0  1.132026  0  0  -0.320792  -0.522386  0  1.171919  0
Cl  Cl95  1  0.87787494  0.93605347  0.79329312  1  0  -0.596017  0  0.892242  0  0  -0.532867  0  1.154618  0  0  -0.547732  0  1.132031  0  0  -0.320782  -0.522378  0  1.171918  0
O  O96  1  0.81250179  0.66607979  0.49934703  1  0  -0.545421  0  2.169073  0  0  -0.474304  0  2.449435  0  0  -0.499585  0  2.438679  0  0  -0.310736  -0.45659  0  2.455436  0
O  O97  1  0.31250110  0.83392071  0.00065251  1  0  -0.545379  0  2.169127  0  0  -0.474257  0  2.44947  0  0  -0.499532  0  2.438711  0  0  -0.310727  -0.456556  0  2.455496  0
O  O98  1  0.18749962  0.33392028  0.50065345  1  0  -0.545337  0  2.169084  0  0  -0.474214  0  2.449421  0  0  -0.499491  0  2.438664  0  0  -0.310704  -0.456512  0  2.455445  0
O  O99  1  0.68749814  0.16607937  0.99934709  1  0  -0.545365  0  2.169082  0  0  -0.474229  0  2.449401  0  0  -0.499506  0  2.438642  0  0  -0.310704  -0.456525  0  2.455421  0
