# generated using pymatgen
data_Cd3H44C52(N2Cl)6
_symmetry_space_group_name_H-M   'P 1'
_cell_length_a   10.50448402
_cell_length_b   10.63304592
_cell_length_c   13.01600000
_cell_angle_alpha   89.12843631
_cell_angle_beta   74.45777147
_cell_angle_gamma   69.77292236
_symmetry_Int_Tables_number   1
_chemical_formula_structural   Cd3H44C52(N2Cl)6
_chemical_formula_sum   'Cd3 H44 C52 N12 Cl6'
_cell_volume   1309.44775288
_cell_formula_units_Z   1
loop_
 _symmetry_equiv_pos_site_id
 _symmetry_equiv_pos_as_xyz
  1  'x, y, z'
loop_
 _atom_site_type_symbol
 _atom_site_label
 _atom_site_symmetry_multiplicity
 _atom_site_fract_x
 _atom_site_fract_y
 _atom_site_fract_z
 _atom_site_occupancy
 _atom_site_hle17_bader_spin_density
 _atom_site_hle17_ddec_charge
 _atom_site_hle17_ddec_spin_density
 _atom_site_hle17_ddec_sum_bond_order
 _atom_site_hle17_magmom
 _atom_site_hse06_10hf_bader_spin_density
 _atom_site_hse06_10hf_ddec_charge
 _atom_site_hse06_10hf_ddec_spin_density
 _atom_site_hse06_10hf_ddec_sum_bond_order
 _atom_site_hse06_10hf_magmom
 _atom_site_hse06_bader_spin_density
 _atom_site_hse06_ddec_charge
 _atom_site_hse06_ddec_spin_density
 _atom_site_hse06_ddec_sum_bond_order
 _atom_site_hse06_magmom
 _atom_site_pbe_bader_charge
 _atom_site_pbe_bader_spin_density
 _atom_site_pbe_cm5_charge
 _atom_site_pbe_ddec_charge
 _atom_site_pbe_ddec_spin_density
 _atom_site_pbe_ddec_sum_bond_order
 _atom_site_pbe_magmom
Cd  Cd0  1  0.99999879  0.99999913  0.50000096  1  0  0.956628  0  1.919387  0  0  0.785229  0  2.370077  0  0  0.833348  0  2.330564  0  1.148692  0  0.596426  0.752103  0  2.395694  0
Cd  Cd1  1  0.96846934  0.71546007  0.68456812  1  0  0.968524  0  1.94188  0  0  0.798989  0  2.410302  0  0  0.844523  0  2.367877  0  1.129389  0  0.620222  0.768145  0  2.437726  0
Cd  Cd2  1  0.03153181  0.28453806  0.31543312  1  0  0.968536  0  1.941884  0  0  0.798995  0  2.410331  0  0  0.844534  0  2.367888  0  1.129484  0  0.62021  0.768151  0  2.437754  0
H  H3  1  0.78766337  0.55508003  0.85679902  1  0  0.097215  0  0.978443  0  0  0.096197  0  1.057194  0  0  0.100397  0  1.052229  0  0.210118  0  0.129367  0.093106  0  1.060718  0
H  H4  1  0.21234012  0.44491709  0.14320019  1  0  0.097211  0  0.978446  0  0  0.096167  0  1.057226  0  0  0.100366  0  1.052259  0  0.210041  0  0.129363  0.093075  0  1.06075  0
H  H5  1  0.72337419  0.93739047  0.62476132  1  0  0.062031  0  0.996779  0  0  0.065146  0  1.075411  0  0  0.066892  0  1.07387  0  0.118495  0  0.1009  0.063732  0  1.07663  0
H  H6  1  0.27662310  0.06261268  0.37524453  1  0  0.06202  0  0.996819  0  0  0.065173  0  1.075422  0  0  0.066921  0  1.073877  0  0.118518  0  0.1009  0.063757  0  1.076638  0
H  H7  1  0.19757304  0.42982449  0.44964882  1  0  0.103646  0  0.932965  0  0  0.109938  0  1.003023  0  0  0.112607  0  0.998805  0  0.192741  0  0.132186  0.108107  0  1.005556  0
H  H8  1  0.80242848  0.57017262  0.55035158  1  0  0.103698  0  0.932894  0  0  0.109961  0  1.00298  0  0  0.112633  0  0.998763  0  0.192708  0  0.132195  0.108142  0  1.005485  0
H  H9  1  0.18382416  0.70902084  0.24957516  1  0  0.072141  0  0.963186  0  0  0.078084  0  1.033316  0  0  0.080254  0  1.031665  0  0.107568  0  0.100489  0.076395  0  1.034882  0
H  H10  1  0.81617525  0.29097929  0.75042489  1  0  0.072118  0  0.963177  0  0  0.078061  0  1.033305  0  0  0.080231  0  1.031652  0  0.107584  0  0.100479  0.076375  0  1.034869  0
H  H11  1  0.84173407  0.64802878  0.21930176  1  0  0.111465  0  0.988417  0  0  0.118589  0  1.054781  0  0  0.122079  0  1.052671  0  0.109459  0  0.091091  0.115997  0  1.056589  0
H  H12  1  0.15826360  0.35197336  0.78069864  1  0  0.111489  0  0.988356  0  0  0.118593  0  1.054742  0  0  0.122099  0  1.052611  0  0.109445  0  0.091081  0.116002  0  1.056548  0
H  H13  1  0.96757070  0.80405699  0.23663862  1  0  0.093547  0  0.965396  0  0  0.10438  0  1.026313  0  0  0.107105  0  1.025149  0  0.099839  0  0.092448  0.102275  0  1.027561  0
H  H14  1  0.03242870  0.19594314  0.76336220  1  0  0.093559  0  0.965383  0  0  0.104388  0  1.026305  0  0  0.107111  0  1.025142  0  0.099651  0  0.092446  0.102282  0  1.027555  0
H  H15  1  0.07610646  0.90150143  0.07929450  1  0  0.088251  0  0.968519  0  0  0.097655  0  1.03382  0  0  0.100104  0  1.033348  0  0.071203  0  0.092101  0.095869  0  1.034385  0
H  H16  1  0.92389530  0.09849770  0.92070505  1  0  0.088203  0  0.968484  0  0  0.097599  0  1.033808  0  0  0.100048  0  1.033336  0  0.071214  0  0.092079  0.095815  0  1.034372  0
H  H17  1  0.05086117  0.85843981  0.89771043  1  0  0.10493  0  0.971159  0  0  0.114649  0  1.035715  0  0  0.117192  0  1.034664  0  0.097817  0  0.096611  0.112909  0  1.036299  0
H  H18  1  0.94913960  0.14155931  0.10228933  1  0  0.104929  0  0.971201  0  0  0.114653  0  1.035742  0  0  0.117192  0  1.034704  0  0.097809  0  0.096598  0.112914  0  1.036324  0
H  H19  1  0.40058897  0.45506130  0.49340552  1  0  0.09783  0  0.96395  0  0  0.112072  0  1.027375  0  0  0.113066  0  1.027078  0  0.134191  0  0.106029  0.11119  0  1.027926  0
H  H20  1  0.59941377  0.54493782  0.50659382  1  0  0.097852  0  0.963916  0  0  0.112085  0  1.02733  0  0  0.113079  0  1.027036  0  0.134168  0  0.106033  0.111202  0  1.027884  0
H  H21  1  0.56628311  0.40692456  0.39128373  1  0  0.094772  0  0.947789  0  0  0.106125  0  1.01368  0  0  0.107903  0  1.012048  0  0.121246  0  0.104346  0.105225  0  1.014325  0
H  H22  1  0.43371964  0.59307457  0.60871715  1  0  0.094773  0  0.947814  0  0  0.106133  0  1.013686  0  0  0.107912  0  1.012053  0  0.121268  0  0.104352  0.105234  0  1.014327  0
H  H23  1  0.34448866  0.23401112  0.57987187  1  0  0.106213  0  0.929417  0  0  0.118743  0  0.987173  0  0  0.121243  0  0.98524  0  0.090326  0  0.108559  0.116599  0  0.989203  0
H  H24  1  0.65551014  0.76598801  0.42012679  1  0  0.106216  0  0.929433  0  0  0.118746  0  0.987186  0  0  0.121247  0  0.985252  0  0.089873  0  0.108559  0.116591  0  0.989229  0
H  H25  1  0.76013725  0.24678092  0.43641034  1  0  0.063753  0  1.007695  0  0  0.066533  0  1.089093  0  0  0.068573  0  1.08703  0  0.138899  0  0.093461  0.064656  0  1.091277  0
H  H26  1  0.23986290  0.75321720  0.56359034  1  0  0.063757  0  1.00768  0  0  0.066526  0  1.08909  0  0  0.068569  0  1.087022  0  0.138725  0  0.093451  0.064648  0  1.091275  0
H  H27  1  0.71278659  0.18868405  0.25596110  1  0  0.109626  0  0.958676  0  0  0.117381  0  1.025532  0  0  0.120244  0  1.024098  0  0.098133  0  0.10294  0.115281  0  1.026601  0
H  H28  1  0.28721343  0.81131709  0.74403497  1  0  0.109637  0  0.958631  0  0  0.11742  0  1.025451  0  0  0.120285  0  1.024017  0  0.098106  0  0.102934  0.11532  0  1.02652  0
H  H29  1  0.77434984  0.02538267  0.09893687  1  0  0.088601  0  0.986033  0  0  0.101024  0  1.044736  0  0  0.102394  0  1.046448  0  0.083855  0  0.095952  0.099964  0  1.043669  0
H  H30  1  0.22565328  0.97461545  0.90106163  1  0  0.088584  0  0.986044  0  0  0.101014  0  1.044732  0  0  0.102383  0  1.046443  0  0.083893  0  0.095951  0.099978  0  1.043641  0
H  H31  1  0.58983136  0.98313703  0.03771374  1  0  0.084382  0  0.975674  0  0  0.097278  0  1.035576  0  0  0.099486  0  1.035145  0  0.062101  0  0.09711  0.095713  0  1.03594  0
H  H32  1  0.41017115  0.01686008  0.96228414  1  0  0.084385  0  0.975734  0  0  0.097275  0  1.035631  0  0  0.09949  0  1.035194  0  0.062133  0  0.097123  0.095712  0  1.035993  0
H  H33  1  0.76678106  0.41610204  0.01987023  1  0  0.087792  0  0.932603  0  0  0.103017  0  0.995547  0  0  0.103137  0  0.996968  0  0.103009  0  0.114841  0.102649  0  0.99514  0
H  H34  1  0.23321835  0.58389810  0.98012982  1  0  0.087783  0  0.932597  0  0  0.103015  0  0.995543  0  0  0.103135  0  0.996964  0  0.102997  0  0.11484  0.102654  0  0.99514  0
H  H35  1  0.78860321  0.47447153  0.13830503  1  0  0.095304  0  0.944997  0  0  0.107983  0  1.012307  0  0  0.108759  0  1.011807  0  0.114242  0  0.106375  0.107344  0  1.012797  0
H  H36  1  0.21139719  0.52552861  0.86169481  1  0  0.095329  0  0.945063  0  0  0.108013  0  1.012365  0  0  0.108789  0  1.011868  0  0.114241  0  0.106403  0.10738  0  1.012861  0
H  H37  1  0.57846612  0.77605577  0.14103217  1  0  0.091052  0  0.961946  0  0  0.100066  0  1.029076  0  0  0.102353  0  1.028441  0  0.068  0  0.100771  0.098556  0  1.029378  0
H  H38  1  0.42153268  0.22394336  0.85896879  1  0  0.091068  0  0.961892  0  0  0.100078  0  1.029037  0  0  0.102365  0  1.028396  0  0.067988  0  0.100784  0.098568  0  1.029339  0
H  H39  1  0.33269793  0.10262821  0.13028342  1  0  0.106531  0  0.961233  0  0  0.116636  0  1.022935  0  0  0.119687  0  1.021343  0  0.086984  0  0.102756  0.114328  0  1.024417  0
H  H40  1  0.66730420  0.89736991  0.86971683  1  0  0.106509  0  0.961232  0  0  0.116614  0  1.022942  0  0  0.119666  0  1.02135  0  0.086979  0  0.102754  0.114305  0  1.024424  0
H  H41  1  0.54512882  0.38854646  0.09865809  1  0  0.069548  0  0.94957  0  0  0.078728  0  1.014304  0  0  0.080469  0  1.014408  0  0.069476  0  0.105832  0.077105  0  1.014866  0
H  H42  1  0.45486997  0.61145266  0.90134211  1  0  0.069557  0  0.949569  0  0  0.078748  0  1.014296  0  0  0.080494  0  1.014389  0  0.069488  0  0.105838  0.077125  0  1.014858  0
H  H43  1  0.45896026  0.02790968  0.66563448  1  0  0.10147  0  0.968684  0  0  0.111366  0  1.028049  0  0  0.113246  0  1.030183  0  0.093715  0  0.103778  0.109857  0  1.026961  0
H  H44  1  0.54103741  0.97209247  0.33436746  1  0  0.1015  0  0.968672  0  0  0.111383  0  1.028047  0  0  0.113258  0  1.030186  0  0.093724  0  0.103773  0.109873  0  1.026962  0
H  H45  1  0.31501999  0.86705998  0.22408476  1  0  0.094236  0  0.986898  0  0  0.101776  0  1.053568  0  0  0.104279  0  1.053587  0  0.122143  0  0.091925  0.099843  0  1.054045  0
H  H46  1  0.68497979  0.13293914  0.77591522  1  0  0.094244  0  0.986888  0  0  0.101784  0  1.053558  0  0  0.104286  0  1.053577  0  0.122138  0  0.091925  0.099851  0  1.054033  0
C  C47  1  0.83019686  0.60573070  0.90427600  1  0  0.208369  0  3.640161  0  0  0.146121  0  3.915728  0  0  0.163361  0  3.925048  0  0.974495  0  0.155563  0.13528  0  3.90903  0
C  C48  1  0.16980292  0.39426843  0.09572398  1  0  0.208419  0  3.640145  0  0  0.146177  0  3.91566  0  0  0.163419  0  3.92498  0  0.974584  0  0.155577  0.135338  0  3.908962  0
C  C49  1  0.93000849  0.73072669  0.95788212  1  0  0.140728  0  3.831471  0  0  0.137439  0  4.080447  0  0  0.140971  0  4.10365  0  0.382479  0  0.079931  0.135244  0  4.064479  0
C  C50  1  0.06999016  0.26927545  0.04211807  1  0  0.140808  0  3.831499  0  0  0.137514  0  4.080498  0  0  0.141048  0  4.103702  0  0.38252  0  0.079959  0.135319  0  4.064531  0
C  C51  1  0.37928006  0.21578392  0.24325940  1  0  0.143676  0  3.825233  0  0  0.141402  0  4.070143  0  0  0.145029  0  4.09343  0  0.338115  0  0.086001  0.138835  0  4.05471  0
C  C52  1  0.62072058  0.78421822  0.75673806  1  0  0.143708  0  3.825158  0  0  0.141335  0  4.070226  0  0  0.144963  0  4.093512  0  0.338584  0  0.085971  0.138767  0  4.054791  0
C  C53  1  0.66864317  0.02867120  0.59224100  1  0  0.127256  0  3.715357  0  0  0.095235  0  3.965762  0  0  0.102636  0  3.984587  0  0.514407  0  0.042404  0.0906  0  3.95314  0
C  C54  1  0.33135412  0.97133195  0.40776254  1  0  0.127278  0  3.715296  0  0  0.095202  0  3.96573  0  0  0.102603  0  3.984556  0  0.514324  0  0.042442  0.090571  0  3.953105  0
C  C55  1  0.27565856  0.36043559  0.38340410  1  0  0.229189  0  3.629779  0  0  0.160385  0  3.908022  0  0  0.179463  0  3.91627  0  0.970949  0  0.168569  0.147928  0  3.902119  0
C  C56  1  0.72434381  0.63956454  0.61659531  1  0  0.229144  0  3.629672  0  0  0.160365  0  3.907895  0  0  0.17944  0  3.916147  0  0.971125  0  0.168575  0.147906  0  3.901999  0
C  C57  1  0.29689663  0.67319719  0.20942330  1  0  0.11084  0  3.732272  0  0  0.085675  0  3.98697  0  0  0.090456  0  4.005634  0  0.478347  0  0.034931  0.082469  0  3.974597  0
C  C58  1  0.70310179  0.32680295  0.79057696  1  0  0.110841  0  3.732311  0  0  0.085675  0  3.987012  0  0  0.090458  0  4.005675  0  0.478422  0  0.034937  0.082465  0  3.974642  0
C  C59  1  0.87240175  0.67176670  0.04876792  1  0  0.09982  0  3.772127  0  0  0.088327  0  4.018807  0  0  0.092638  0  4.040662  0  0.318924  0  0.089683  0.085674  0  4.003905  0
C  C60  1  0.12759531  0.32823444  0.95123416  1  0  0.099846  0  3.772134  0  0  0.088298  0  4.018829  0  0  0.092605  0  4.040689  0  0.318807  0  0.089671  0.085646  0  4.003923  0
C  C61  1  0.88453371  0.69555189  0.15036255  1  0  -0.151757  0  3.758182  0  0  -0.168359  0  4.008588  0  0  -0.171616  0  4.028594  0  0.001919  0  -0.101498  -0.1665  0  3.995584  0
C  C62  1  0.11546494  0.30445026  0.84963841  1  0  -0.151758  0  3.758025  0  0  -0.168336  0  4.008449  0  0  -0.171602  0  4.028447  0  0.002289  0  -0.101459  -0.166478  0  3.995444  0
C  C63  1  0.95772307  0.78031204  0.15856151  1  0  -0.071442  0  3.777013  0  0  -0.086778  0  4.02949  0  0  -0.08896  0  4.051989  0  -0.089099  0  -0.098063  -0.085325  0  4.014841  0
C  C64  1  0.04227398  0.21968910  0.84143904  1  0  -0.071484  0  3.777035  0  0  -0.086814  0  4.029505  0  0  -0.088999  0  4.052009  0  -0.089217  0  -0.098047  -0.085362  0  4.014857  0
C  C65  1  0.01830175  0.83734459  0.06849298  1  0  -0.092639  0  3.801043  0  0  -0.109517  0  4.057919  0  0  -0.111838  0  4.080028  0  -0.055102  0  -0.104528  -0.107755  0  4.043048  0
C  C66  1  0.98169926  0.16265655  0.93150517  1  0  -0.092534  0  3.801082  0  0  -0.109398  0  4.057937  0  0  -0.111719  0  4.080046  0  -0.055109  0  -0.104511  -0.107639  0  4.04307  0
C  C67  1  0.00497198  0.81422032  0.96742114  1  0  -0.15193  0  3.757336  0  0  -0.168565  0  4.006756  0  0  -0.170781  0  4.026274  0  -0.064618  0  -0.097549  -0.166588  0  3.992754  0
C  C68  1  0.99502780  0.18577881  0.03257884  1  0  -0.152004  0  3.757401  0  0  -0.168644  0  4.006825  0  0  -0.17086  0  4.026339  0  -0.064598  0  -0.097558  -0.166666  0  3.992824  0
C  C69  1  0.48342650  0.37173064  0.43853216  1  0  -0.045622  0  3.644416  0  0  -0.110462  0  3.885845  0  0  -0.106112  0  3.896965  0  0.255588  0  -0.049909  -0.113645  0  3.878652  0
C  C70  1  0.51657489  0.62826949  0.56146746  1  0  -0.045653  0  3.644409  0  0  -0.110471  0  3.885803  0  0  -0.106122  0  3.896925  0  0.255596  0  -0.049919  -0.113651  0  3.878612  0
C  C71  1  0.54464304  0.25469188  0.49954522  1  0  0.024035  0  3.714015  0  0  0.048175  0  3.954694  0  0  0.042583  0  3.979586  0  -0.00958  0  -0.00762  0.051689  0  3.938009  0
C  C72  1  0.45535773  0.74530724  0.50045531  1  0  0.024019  0  3.714056  0  0  0.048149  0  3.954722  0  0  0.042558  0  3.979616  0  -0.009513  0  -0.007625  0.051663  0  3.938036  0
C  C73  1  0.45892399  0.19328336  0.56624715  1  0  -0.038978  0  3.672148  0  0  -0.068661  0  3.921006  0  0  -0.064885  0  3.938592  0  -0.04571  0  -0.06333  -0.070921  0  3.90925  0
C  C74  1  0.54107443  0.80671678  0.43375388  1  0  -0.038988  0  3.672251  0  0  -0.068671  0  3.921104  0  0  -0.064894  0  3.938688  0  -0.044797  0  -0.063319  -0.07092  0  3.909352  0
C  C75  1  0.69010000  0.20009177  0.48572600  1  0  0.082321  0  3.694415  0  0  0.046893  0  3.937006  0  0  0.052683  0  3.957725  0  0.453728  0  0.042122  0.043327  0  3.923287  0
C  C76  1  0.30989940  0.79990836  0.51427482  1  0  0.082392  0  3.694348  0  0  0.046981  0  3.936916  0  0  0.052772  0  3.957636  0  0.453986  0  0.042207  0.043414  0  3.923201  0
C  C77  1  0.63058399  0.17184711  0.22802745  1  0  -0.147203  0  3.753724  0  0  -0.165625  0  4.006576  0  0  -0.167999  0  4.025049  0  0.01681  0  -0.093353  -0.163746  0  3.993846  0
C  C78  1  0.36941875  0.82815202  0.77196959  1  0  -0.147281  0  3.753589  0  0  -0.165713  0  4.006457  0  0  -0.168093  0  4.024937  0  0.016816  0  -0.093369  -0.163836  0  3.993733  0
C  C79  1  0.66397090  0.08099781  0.14041767  1  0  -0.069384  0  3.778435  0  0  -0.084335  0  4.026715  0  0  -0.085768  0  4.04877  0  -0.022764  0  -0.09664  -0.083321  0  4.012079  0
C  C80  1  0.33603110  0.91900332  0.85957950  1  0  -0.069377  0  3.778505  0  0  -0.084327  0  4.026791  0  0  -0.085761  0  4.048854  0  -0.022772  0  -0.096652  -0.083332  0  4.012146  0
C  C81  1  0.55789890  0.05678508  0.10554620  1  0  -0.08487  0  3.79263  0  0  -0.099663  0  4.044435  0  0  -0.101813  0  4.066499  0  -0.073448  0  -0.101326  -0.098143  0  4.029841  0
C  C82  1  0.44209716  0.94321605  0.89445456  1  0  -0.084873  0  3.792672  0  0  -0.099662  0  4.044476  0  0  -0.101819  0  4.066536  0  -0.073492  0  -0.101313  -0.098145  0  4.029889  0
C  C83  1  0.48686662  0.23824425  0.27817009  1  0  0.093264  0  3.783254  0  0  0.083564  0  4.027359  0  0  0.087473  0  4.049215  0  0.324584  0  0.092768  0.080832  0  4.012609  0
C  C84  1  0.51313500  0.76175790  0.72182638  1  0  0.093273  0  3.783212  0  0  0.083555  0  4.027393  0  0  0.087464  0  4.049253  0  0.324371  0  0.092759  0.080828  0  4.012635  0
C  C85  1  0.74105777  0.50672096  0.07206028  1  0  -0.032683  0  3.658103  0  0  -0.099673  0  3.902548  0  0  -0.094777  0  3.913936  0  0.296841  0  -0.045762  -0.102864  0  3.895239  0
C  C86  1  0.25894065  0.49327917  0.92793999  1  0  -0.032686  0  3.658096  0  0  -0.099752  0  3.902591  0  0  -0.094857  0  3.913982  0  0.296849  0  -0.045811  -0.102974  0  3.895325  0
C  C87  1  0.58329021  0.57321971  0.11647536  1  0  0.020702  0  3.746024  0  0  0.045031  0  3.984696  0  0  0.040536  0  4.008766  0  0.017001  0  -0.012446  0.047557  0  3.968554  0
C  C88  1  0.41670919  0.42678042  0.88352393  1  0  0.020669  0  3.745966  0  0  0.045023  0  3.984627  0  0  0.040522  0  4.008701  0  0.017011  0  -0.012457  0.047558  0  3.968492  0
C  C89  1  0.51707387  0.71012137  0.15043618  1  0  -0.068947  0  3.725677  0  0  -0.094359  0  3.969642  0  0  -0.093097  0  3.990357  0  -0.079594  0  -0.078756  -0.094842  0  3.955365  0
C  C90  1  0.48292591  0.28987775  0.84956380  1  0  -0.068941  0  3.725578  0  0  -0.094351  0  3.969529  0  0  -0.093082  0  3.990248  0  -0.079609  0  -0.078765  -0.094834  0  3.955252  0
C  C91  1  0.41473563  0.12283014  0.15600286  1  0  -0.145481  0  3.747577  0  0  -0.164758  0  3.998895  0  0  -0.167435  0  4.018931  0  -0.060506  0  -0.094592  -0.163061  0  3.985917  0
C  C92  1  0.58526612  0.87716899  0.84399362  1  0  -0.145426  0  3.747385  0  0  -0.164671  0  3.998727  0  0  -0.16734  0  4.018751  0  -0.060694  0  -0.094568  -0.162972  0  3.985748  0
C  C93  1  0.49793087  0.49495009  0.12813231  1  0  0.058769  0  3.732781  0  0  0.026365  0  3.991807  0  0  0.031437  0  4.009094  0  0.51165  0  0.034601  0.02364  0  3.979698  0
C  C94  1  0.50206891  0.50504904  0.87186767  1  0  0.058742  0  3.732919  0  0  0.026309  0  3.991957  0  0  0.031384  0  4.009249  0  0.511717  0  0.034595  0.023586  0  3.979844  0
C  C95  1  0.52194945  0.07880983  0.61355659  1  0  -0.113787  0  3.733548  0  0  -0.121342  0  3.980552  0  0  -0.128555  0  4.002798  0  -0.054494  0  -0.083704  -0.116876  0  3.965926  0
C  C96  1  0.47804859  0.92119131  0.38644605  1  0  -0.113812  0  3.733534  0  0  -0.121348  0  3.980552  0  0  -0.128557  0  4.002799  0  -0.054909  0  -0.083705  -0.116882  0  3.96592  0
C  C97  1  0.37148081  0.76106377  0.19684104  1  0  -0.120421  0  3.767829  0  0  -0.128251  0  4.009922  0  0  -0.135097  0  4.033977  0  -0.104693  0  -0.093888  -0.123688  0  3.993806  0
C  C98  1  0.62851760  0.23893636  0.80315922  1  0  -0.120427  0  3.767878  0  0  -0.128261  0  4.009976  0  0  -0.135108  0  4.034031  0  -0.104704  0  -0.093888  -0.123697  0  3.99386  0
N  N99  1  0.35799808  0.54217341  0.17433049  1  0  -0.311452  0  3.121135  0  0  -0.270097  0  3.391679  0  0  -0.282152  0  3.408984  0  -1.2201  0  -0.32274  -0.261447  0  3.379587  0
N  N100  1  0.64200034  0.45782672  0.82567054  1  0  -0.311408  0  3.121271  0  0  -0.270052  0  3.391826  0  0  -0.282109  0  3.409126  0  -1.220147  0  -0.32272  -0.261405  0  3.379741  0
N  N101  1  0.75110644  0.08897114  0.53058004  1  0  -0.319854  0  3.294897  0  0  -0.237021  0  3.546855  0  0  -0.25837  0  3.569828  0  -1.237249  0  -0.328018  -0.222871  0  3.530955  0
N  N102  1  0.24889296  0.91102899  0.46942385  1  0  -0.319915  0  3.294864  0  0  -0.237073  0  3.54684  0  0  -0.258424  0  3.569821  0  -1.237419  0  -0.32813  -0.222922  0  3.530938  0
N  N103  1  0.90103822  0.68724558  0.86920926  1  0  -0.439818  0  3.198723  0  0  -0.373983  0  3.480059  0  0  -0.395971  0  3.496085  0  -1.219093  0  -0.358979  -0.359092  0  3.468487  0
N  N104  1  0.09896081  0.31275556  0.13079009  1  0  -0.439924  0  3.19879  0  0  -0.374095  0  3.480129  0  0  -0.396084  0  3.496154  0  -1.219189  0  -0.359  -0.359205  0  3.468558  0
N  N105  1  0.24851899  0.29404247  0.31119736  1  0  -0.435512  0  3.220711  0  0  -0.364142  0  3.503633  0  0  -0.387046  0  3.51872  0  -1.190113  0  -0.358672  -0.348879  0  3.492795  0
N  N106  1  0.75148239  0.70595766  0.68880149  1  0  -0.435545  0  3.220642  0  0  -0.364136  0  3.503572  0  0  -0.387041  0  3.518659  0  -1.190144  0  -0.358686  -0.348875  0  3.49274  0
N  N107  1  0.81054924  0.59259070  0.01114037  1  0  -0.116684  0  3.513725  0  0  -0.027546  0  3.73688  0  0  -0.044325  0  3.760439  0  -1.245805  0  -0.241812  -0.016637  0  3.721015  0
N  N108  1  0.18944942  0.40741145  0.98885982  1  0  -0.116706  0  3.513668  0  0  -0.027457  0  3.736714  0  0  -0.044235  0  3.760272  0  -1.245823  0  -0.241811  -0.01654  0  3.720856  0
N  N109  1  0.41663809  0.33111454  0.36675020  1  0  -0.104901  0  3.514461  0  0  -0.017806  0  3.73908  0  0  -0.034631  0  3.762941  0  -1.202849  0  -0.237475  -0.006569  0  3.722884  0
N  N110  1  0.58336391  0.66888660  0.63324774  1  0  -0.104877  0  3.514435  0  0  -0.017751  0  3.739011  0  0  -0.034577  0  3.762874  0  -1.203034  0  -0.237446  -0.006517  0  3.722817  0
Cl  Cl111  1  0.00068596  0.75145071  0.47527502  1  0  -0.596572  0  0.882133  0  0  -0.534976  0  1.137553  0  0  -0.554136  0  1.117558  0  -0.65999  0  -0.336997  -0.520711  0  1.150352  0
Cl  Cl112  1  0.99931443  0.24854942  0.52472482  1  0  -0.596573  0  0.882134  0  0  -0.534977  0  1.137557  0  0  -0.554138  0  1.117561  0  -0.660039  0  -0.336996  -0.520713  0  1.150356  0
Cl  Cl113  1  0.03211361  0.04613788  0.29014511  1  0  -0.553611  0  0.953128  0  0  -0.484761  0  1.232412  0  0  -0.501818  0  1.210042  0  -0.64547  0  -0.291866  -0.472916  0  1.247941  0
Cl  Cl114  1  0.96788815  0.95386125  0.70985598  1  0  -0.553626  0  0.953135  0  0  -0.484773  0  1.232424  0  0  -0.50183  0  1.210055  0  -0.64549  0  -0.291864  -0.472928  0  1.247955  0
Cl  Cl115  1  0.20398522  0.53441838  0.65915826  1  0  -0.596588  0  0.908322  0  0  -0.538889  0  1.167314  0  0  -0.554748  0  1.146522  0  -0.672835  0  -0.315355  -0.527567  0  1.180797  0
Cl  Cl116  1  0.79601715  0.46558175  0.34084038  1  0  -0.5966  0  0.908329  0  0  -0.538899  0  1.167315  0  0  -0.554754  0  1.146518  0  -0.672843  0  -0.315355  -0.527579  0  1.180803  0
