# generated using pymatgen
data_Cu4H24C29N8
_symmetry_space_group_name_H-M   'P 1'
_cell_length_a   25.95788603
_cell_length_b   25.98877826
_cell_length_c   26.13851125
_cell_angle_alpha   89.90865406
_cell_angle_beta   90.01553597
_cell_angle_gamma   89.60180777
_symmetry_Int_Tables_number   1
_chemical_formula_structural   Cu4H24C29N8
_chemical_formula_sum   'Cu12 H72 C87 N24'
_cell_volume   17632.94998566
_cell_formula_units_Z   3
loop_
 _symmetry_equiv_pos_site_id
 _symmetry_equiv_pos_as_xyz
  1  'x, y, z'
loop_
 _atom_site_type_symbol
 _atom_site_label
 _atom_site_symmetry_multiplicity
 _atom_site_fract_x
 _atom_site_fract_y
 _atom_site_fract_z
 _atom_site_occupancy
 _atom_site_pbe_bader_charge
 _atom_site_pbe_bader_spin_density
 _atom_site_pbe_cm5_charge
 _atom_site_pbe_ddec_charge
 _atom_site_pbe_ddec_spin_density
 _atom_site_pbe_ddec_sum_bond_order
 _atom_site_pbe_magmom
Cu  Cu0  1  0.78801677  0.78591066  0.86867040  1  0.519994  0  0.483627  0.202694  0  2.123189  0
Cu  Cu1  1  0.87293732  0.78356508  0.78181459  1  0.553983  0  0.486885  0.205096  0  2.119503  0
Cu  Cu2  1  0.78624662  0.87122924  0.78198963  1  0.551171  0  0.486086  0.204271  0  2.120712  0
Cu  Cu3  1  0.77957250  0.21679202  0.13201753  1  0.547427  0  0.485667  0.202133  0  2.129677  0
Cu  Cu4  1  0.86466395  0.21782311  0.21908402  1  0.553406  0  0.485529  0.204979  0  2.115719  0
Cu  Cu5  1  0.77899214  0.13089883  0.21811964  1  0.530089  0  0.487055  0.204872  0  2.121266  0
Cu  Cu6  1  0.21288918  0.78543713  0.13154915  1  0.54473  0  0.485277  0.201844  0  2.130622  0
Cu  Cu7  1  0.12757437  0.78618380  0.21848975  1  0.526569  0  0.484699  0.203732  0  2.116388  0
Cu  Cu8  1  0.21612383  0.87040679  0.21801065  1  0.547334  0  0.486854  0.205451  0  2.119861  0
Cu  Cu9  1  0.21559310  0.21918176  0.86511449  1  0.551009  0  0.486858  0.203891  0  2.129008  0
Cu  Cu10  1  0.12806033  0.22186063  0.78040528  1  0.530376  0  0.485106  0.203378  0  2.118539  0
Cu  Cu11  1  0.21171336  0.13131437  0.78174482  1  0.546283  0  0.486311  0.204185  0  2.121362  0
H  H12  1  0.82418474  0.69072735  0.93642361  1  0.105121  0  0.119669  0.11086  0  0.989763  0
H  H13  1  0.93935834  0.68652003  0.81647489  1  0.091935  0  0.119762  0.109604  0  0.992532  0
H  H14  1  0.68770677  0.93610068  0.81483819  1  0.112949  0  0.119662  0.108857  0  0.993427  0
H  H15  1  0.69179301  0.82115812  0.93512337  1  0.075575  0  0.119732  0.111636  0  0.989134  0
H  H16  1  0.93807521  0.81691063  0.68542283  1  0.092819  0  0.119785  0.109304  0  0.992813  0
H  H17  1  0.82350243  0.93890057  0.68802305  1  0.097507  0  0.119767  0.111416  0  0.989303  0
H  H18  1  0.81431781  0.31265260  0.06563814  1  0.08254  0  0.119845  0.111974  0  0.98939  0
H  H19  1  0.92864630  0.31604400  0.18642755  1  0.085152  0  0.120009  0.109742  0  0.993098  0
H  H20  1  0.68412680  0.06380753  0.18221849  1  0.087805  0  0.119816  0.109443  0  0.993073  0
H  H21  1  0.68650125  0.17983768  0.06294604  1  0.116652  0  0.119757  0.111304  0  0.989905  0
H  H22  1  0.93299222  0.17988911  0.31313977  1  0.104067  0  0.119762  0.111308  0  0.989228  0
H  H23  1  0.81326170  0.06450811  0.31382221  1  0.085494  0  0.119996  0.110139  0  0.992682  0
H  H24  1  0.17622361  0.69060213  0.06540025  1  0.082248  0  0.119693  0.111392  0  0.989341  0
H  H25  1  0.06204854  0.68861791  0.18633637  1  0.093382  0  0.119755  0.109398  0  0.99298  0
H  H26  1  0.31275796  0.93511199  0.18235471  1  0.10247  0  0.11963  0.109278  0  0.994348  0
H  H27  1  0.30707170  0.82021493  0.06250734  1  0.118231  0  0.119623  0.111368  0  0.989665  0
H  H28  1  0.05991034  0.82616134  0.31198257  1  0.124389  0  0.119923  0.112114  0  0.988196  0
H  H29  1  0.18371233  0.93717222  0.31377682  1  0.091977  0  0.119793  0.109568  0  0.991808  0
H  H30  1  0.18492170  0.31608731  0.93101999  1  0.086438  0  0.119926  0.109758  0  0.991918  0
H  H31  1  0.06222602  0.31857370  0.81861053  1  0.069647  0  0.119446  0.111185  0  0.989848  0
H  H32  1  0.30720416  0.06245060  0.81580285  1  0.071856  0  0.11992  0.109215  0  0.99342  0
H  H33  1  0.31112396  0.18152922  0.93159680  1  0.084847  0  0.119544  0.110969  0  0.988988  0
H  H34  1  0.06240490  0.19032423  0.68353062  1  0.102125  0  0.120011  0.110277  0  0.992602  0
H  H35  1  0.17143741  0.06348879  0.68948206  1  0.098976  0  0.119396  0.111034  0  0.989534  0
H  H36  1  0.97308707  0.60617945  0.86017817  1  0.073099  0  0.093305  0.089501  0  0.999576  0
H  H37  1  0.01308340  0.53649364  0.90593017  1  0.081023  0  0.092597  0.090592  0  1.011717  0
H  H38  1  0.89742810  0.61624847  0.95020986  1  0.049113  0  0.09885  0.099216  0  0.996101  0
H  H39  1  0.93816787  0.55769929  0.99488084  1  0.027572  0  0.096253  0.095128  0  1.006225  0
H  H40  1  0.96263922  0.39327654  0.14401765  1  0.051093  0  0.093502  0.089122  0  0.999433  0
H  H41  1  0.00997711  0.45639385  0.09874501  1  0.078954  0  0.095229  0.092454  0  1.009319  0
H  H42  1  0.88961586  0.38594094  0.05171549  1  0.049879  0  0.098748  0.098611  0  0.994806  0
H  H43  1  0.93004785  0.45265712  0.01212601  1  0.049186  0  0.094637  0.09235  0  1.006388  0
H  H44  1  0.02796554  0.60971535  0.14434817  1  0.034454  0  0.092964  0.089264  0  0.998271  0
H  H45  1  0.98248102  0.54514145  0.09808822  1  0.075926  0  0.093342  0.090192  0  1.014727  0
H  H46  1  0.10134704  0.61763158  0.05233522  1  0.050859  0  0.099439  0.100604  0  0.995896  0
H  H47  1  0.06824677  0.54774157  0.01701751  1  0.045059  0  0.096982  0.092326  0  1.012842  0
H  H48  1  0.14366321  0.39591715  0.96689736  1  0.060888  0  0.093472  0.089202  0  0.999426  0
H  H49  1  0.09971382  0.46348407  0.01129957  1  0.058819  0  0.093612  0.090593  0  1.008938  0
H  H50  1  0.05076134  0.39066311  0.89408334  1  0.03365  0  0.098393  0.098444  0  0.996792  0
H  H51  1  0.00727530  0.44659942  0.93977765  1  0.048485  0  0.096056  0.09135  0  1.007046  0
H  H52  1  0.60845649  0.96976188  0.85734248  1  0.026729  0  0.093162  0.089151  0  0.999594  0
H  H53  1  0.54190813  0.01385382  0.90247876  1  0.060078  0  0.093479  0.090684  0  1.013183  0
H  H54  1  0.61724295  0.89561781  0.94872826  1  0.035603  0  0.098747  0.099188  0  0.995101  0
H  H55  1  0.55008507  0.93245181  0.98771633  1  0.047285  0  0.096036  0.094188  0  1.005073  0
H  H56  1  0.38702731  0.02733781  0.85799951  1  0.002172  0  0.093126  0.088952  0  0.999206  0
H  H57  1  0.45386521  0.98336249  0.90290829  1  0.050225  0  0.093615  0.090649  0  1.011747  0
H  H58  1  0.38214643  0.10464562  0.94678947  1  0.054808  0  0.0986  0.098316  0  0.997088  0
H  H59  1  0.44681661  0.06537461  0.98739754  1  0.073252  0  0.096133  0.094246  0  1.005509  0
H  H60  1  0.60692215  0.02932636  0.13858849  1  0.05221  0  0.092979  0.088461  0  0.99954  0
H  H61  1  0.54255768  0.98381020  0.09269076  1  0.059292  0  0.093615  0.090824  0  1.012148  0
H  H62  1  0.61493991  0.10353241  0.04722489  1  0.056619  0  0.098929  0.099454  0  0.995326  0
H  H63  1  0.54821839  0.06599551  0.00810916  1  0.017228  0  0.096222  0.094468  0  1.004511  0
H  H64  1  0.38956444  0.96863713  0.13852187  1  0.04557  0  0.092974  0.08889  0  1.000039  0
H  H65  1  0.45457048  0.01358585  0.09282904  1  0.053459  0  0.09338  0.090655  0  1.013014  0
H  H66  1  0.38069361  0.89496540  0.04707330  1  0.019171  0  0.098981  0.099427  0  0.994817  0
H  H67  1  0.44803552  0.93191768  0.00810578  1  0.065854  0  0.096147  0.094387  0  1.005327  0
H  H68  1  0.96968522  0.85793090  0.60376121  1  0.043217  0  0.093584  0.090177  0  0.998971  0
H  H69  1  0.01233143  0.90408754  0.53631760  1  0.060859  0  0.093081  0.091675  0  1.009112  0
H  H70  1  0.89847124  0.95219545  0.61556516  1  0.037156  0  0.099143  0.099732  0  0.99617  0
H  H71  1  0.93548209  0.99307009  0.55391613  1  0.038388  0  0.097507  0.095181  0  1.007382  0
H  H72  1  0.14372213  0.96987335  0.39569799  1  0.01996  0  0.093294  0.089581  0  0.998696  0
H  H73  1  0.09778183  0.01457702  0.46236396  1  0.03932  0  0.093419  0.091672  0  1.007831  0
H  H74  1  0.04782270  0.90200746  0.38379450  1  0.062315  0  0.099163  0.099659  0  0.996618  0
H  H75  1  0.00919077  0.93784242  0.44715571  1  0.045893  0  0.097217  0.094041  0  1.008772  0
H  H76  1  0.03009031  0.14888694  0.60085245  1  0.02587  0  0.093679  0.090579  0  0.998385  0
H  H77  1  0.98576627  0.10129268  0.53536764  1  0.038242  0  0.093096  0.091486  0  1.008696  0
H  H78  1  0.09635284  0.05175532  0.61751459  1  0.014495  0  0.099234  0.099756  0  0.996716  0
H  H79  1  0.06397580  0.01333147  0.55244298  1  0.059673  0  0.09737  0.094669  0  1.008733  0
H  H80  1  0.85399659  0.03276636  0.39597689  1  0.027999  0  0.093687  0.090269  0  0.998821  0
H  H81  1  0.90021488  0.99021349  0.46380270  1  0.053882  0  0.093391  0.092167  0  1.007925  0
H  H82  1  0.94725615  0.10436928  0.38492323  1  0.02995  0  0.09913  0.099694  0  0.996576  0
H  H83  1  0.98900641  0.06605960  0.44550281  1  0.037413  0  0.097461  0.094355  0  1.007668  0
C  C84  1  0.84842423  0.69680754  0.90313924  1  0.382904  0  0.00581  -0.058854  0  3.956264  0
C  C85  1  0.89221472  0.66890706  0.88714867  1  0.058315  0  -0.039603  0.012164  0  4.137314  0
C  C86  1  0.90720766  0.69429262  0.84189549  1  0.369207  0  0.008395  -0.051152  0  3.936716  0
C  C87  1  0.69549054  0.90406698  0.84041574  1  0.40279  0  0.008072  -0.050176  0  3.93497  0
C  C88  1  0.66989418  0.88906420  0.88555194  1  0.001555  0  -0.040107  0.010809  0  4.137483  0
C  C89  1  0.69789687  0.84544658  0.90186716  1  0.425029  0  0.005537  -0.060026  0  3.954545  0
C  C90  1  0.90583730  0.84269990  0.69256799  1  0.442808  0  0.008066  -0.050646  0  3.937928  0
C  C91  1  0.89115284  0.88828873  0.66703201  1  -0.038448  0  -0.039258  0.012878  0  4.140366  0
C  C92  1  0.84746984  0.90509046  0.69435425  1  0.384308  0  0.005412  -0.06052  0  3.958693  0
C  C93  1  0.83836338  0.30653850  0.09913156  1  0.345227  0  0.004619  -0.061968  0  3.958477  0
C  C94  1  0.88185596  0.33409599  0.11547517  1  0.093287  0  -0.039453  0.011649  0  4.135748  0
C  C95  1  0.89664288  0.30856826  0.16086798  1  0.397867  0  0.008269  -0.051329  0  3.937425  0
C  C96  1  0.69118378  0.09626657  0.15709863  1  0.405253  0  0.007767  -0.052108  0  3.936659  0
C  C97  1  0.66604126  0.11097214  0.11148526  1  -0.019316  0  -0.039091  0.012901  0  4.135544  0
C  C98  1  0.69268885  0.15540413  0.09614096  1  0.393308  0  0.004883  -0.060357  0  3.95496  0
C  C99  1  0.89964728  0.15583053  0.30637731  1  0.398765  0  0.0057  -0.059816  0  3.956101  0
C  C100  1  0.88354849  0.11171741  0.33313756  1  -0.028719  0  -0.038811  0.013715  0  4.138792  0
C  C101  1  0.83841816  0.09701567  0.30717694  1  0.440311  0  0.007164  -0.052782  0  3.938703  0
C  C102  1  0.15222323  0.69713114  0.09881110  1  0.404444  0  0.005279  -0.060056  0  3.957808  0
C  C103  1  0.10859209  0.66995159  0.11544872  1  0.043181  0  -0.039064  0.01257  0  4.138341  0
C  C104  1  0.09401328  0.69579756  0.16061704  1  0.404972  0  0.007379  -0.052347  0  3.936518  0
C  C105  1  0.30477727  0.90307663  0.15708183  1  0.39578  0  0.007739  -0.05211  0  3.937912  0
C  C106  1  0.32934833  0.88815343  0.11129681  1  0.00754  0  -0.039043  0.012921  0  4.136584  0
C  C107  1  0.30156659  0.84452159  0.09583365  1  0.380543  0  0.005275  -0.060115  0  3.956531  0
C  C108  1  0.09413236  0.84906693  0.30548415  1  0.351654  0  0.005427  -0.061345  0  3.953342  0
C  C109  1  0.11162393  0.89242089  0.33246753  1  0.073523  0  -0.039323  0.013708  0  4.137375  0
C  C110  1  0.15743774  0.90563438  0.30687197  1  0.387566  0  0.007736  -0.051915  0  3.937555  0
C  C111  1  0.15869473  0.31004897  0.89931026  1  0.396133  0  0.0078  -0.052081  0  3.936322  0
C  C112  1  0.11346482  0.33707642  0.88570920  1  0.067187  0  -0.039623  0.012934  0  4.136988  0
C  C113  1  0.09606888  0.31092995  0.84190620  1  0.399641  0  0.005103  -0.060168  0  3.955626  0
C  C114  1  0.30155650  0.09573085  0.84020940  1  0.398291  0  0.007827  -0.051711  0  3.936545  0
C  C115  1  0.32870028  0.11100265  0.88432134  1  0.054625  0  -0.039053  0.012476  0  4.13513  0
C  C116  1  0.30319231  0.15650448  0.89936083  1  0.372332  0  0.005662  -0.058659  0  3.956421  0
C  C117  1  0.09341231  0.16327171  0.69146587  1  0.332881  0  0.007231  -0.0534  0  3.939178  0
C  C118  1  0.10623807  0.11663945  0.66698440  1  0.077304  0  -0.038683  0.014399  0  4.138488  0
C  C119  1  0.14897258  0.09842875  0.69500797  1  0.380387  0  0.005476  -0.060491  0  3.957555  0
C  C120  1  0.99922497  0.00259672  0.49975666  1  0.070258  0  -0.008761  0.142796  0  3.991309  0
C  C121  1  0.99979822  0.50020014  0.00410020  1  0.068954  0  -0.006367  0.144903  0  3.967257  0
C  C122  1  0.49831415  0.99881397  0.99766782  1  0.084013  0  -0.005503  0.14473  0  3.956613  0
C  C123  1  0.91519308  0.62562690  0.91343347  1  -0.070467  0  -0.09686  -0.120413  0  4.038352  0
C  C124  1  0.95601802  0.59707603  0.89735107  1  -0.048702  0  -0.108648  -0.099967  0  4.063935  0
C  C125  1  0.98075270  0.55538968  0.92533919  1  -0.096343  0  -0.110424  -0.106451  0  4.084629  0
C  C126  1  0.96908286  0.53917968  0.97307470  1  -0.030605  0  -0.090869  -0.134231  0  3.888659  0
C  C127  1  0.90593051  0.37650751  0.08921181  1  -0.070944  0  -0.095364  -0.117704  0  4.035105  0
C  C128  1  0.94709877  0.40336401  0.10636997  1  -0.017814  0  -0.10766  -0.102125  0  4.063426  0
C  C129  1  0.97506228  0.44326010  0.07954033  1  -0.017752  0  -0.105473  -0.093943  0  4.079226  0
C  C130  1  0.96423480  0.46442491  0.03353183  1  -0.128843  0  -0.090341  -0.134791  0  3.871329  0
C  C131  1  0.08489432  0.62709794  0.08971764  1  -0.063219  0  -0.096376  -0.11966  0  4.038112  0
C  C132  1  0.04427707  0.59950738  0.10707286  1  -0.049067  0  -0.108652  -0.101607  0  4.064329  0
C  C133  1  0.01826564  0.55821679  0.08042475  1  -0.064914  0  -0.108093  -0.105541  0  4.079951  0
C  C134  1  0.03286130  0.53563881  0.03611017  1  -0.057755  0  -0.086533  -0.125662  0  3.874085  0
C  C135  1  0.08814811  0.37994318  0.91043288  1  -0.097958  0  -0.097785  -0.122268  0  4.037733  0
C  C136  1  0.10573218  0.40625938  0.95161410  1  0.002411  0  -0.108218  -0.099473  0  4.059915  0
C  C137  1  0.07865111  0.44673793  0.97917614  1  -0.037646  0  -0.108611  -0.104875  0  4.082125  0
C  C138  1  0.03004069  0.46342483  0.97067897  1  -0.101292  0  -0.089641  -0.129003  0  3.904557  0
C  C139  1  0.62665801  0.91247297  0.91153884  1  0.015993  0  -0.096139  -0.119442  0  4.038194  0
C  C140  1  0.59861076  0.95333223  0.89463206  1  -0.044118  0  -0.108573  -0.101258  0  4.067003  0
C  C141  1  0.55694341  0.97932240  0.92136305  1  -0.02786  0  -0.109106  -0.104559  0  4.080396  0
C  C142  1  0.53594366  0.96627594  0.96688902  1  -0.11081  0  -0.088132  -0.129542  0  3.870631  0
C  C143  1  0.37143861  0.08678262  0.91047071  1  -0.127968  0  -0.096697  -0.119639  0  4.039303  0
C  C144  1  0.39789993  0.04452194  0.89461194  1  0.076559  0  -0.108796  -0.101586  0  4.064925  0
C  C145  1  0.43936037  0.01822519  0.92149177  1  -0.056182  0  -0.108209  -0.103158  0  4.077267  0
C  C146  1  0.46071076  0.03139548  0.96679052  1  -0.08936  0  -0.088154  -0.129514  0  3.870031  0
C  C147  1  0.62416086  0.08674994  0.08456298  1  -0.078845  0  -0.096445  -0.120691  0  4.036657  0
C  C148  1  0.59708988  0.04545056  0.10110678  1  0.006087  0  -0.108426  -0.100232  0  4.064001  0
C  C149  1  0.55649390  0.01872442  0.07401700  1  0.036702  0  -0.108377  -0.103879  0  4.077739  0
C  C150  1  0.53509786  0.03173164  0.02856794  1  -0.155908  0  -0.088006  -0.129595  0  3.867871  0
C  C151  1  0.37168440  0.91169629  0.08442281  1  -0.050765  0  -0.096399  -0.120211  0  4.03603  0
C  C152  1  0.39932147  0.95252648  0.10107005  1  -0.022022  0  -0.10845  -0.100956  0  4.064313  0
C  C153  1  0.44025833  0.97891042  0.07411649  1  0.004825  0  -0.108587  -0.104028  0  4.079953  0
C  C154  1  0.46144207  0.96597727  0.02861684  1  -0.156352  0  -0.088275  -0.129738  0  3.871591  0
C  C155  1  0.91459304  0.91415883  0.62418947  1  -0.091912  0  -0.096126  -0.119323  0  4.037716  0
C  C156  1  0.95415492  0.89622677  0.59521898  1  0.048716  0  -0.109521  -0.101751  0  4.063502  0
C  C157  1  0.97941272  0.92374900  0.55393998  1  -0.093556  0  -0.109019  -0.106695  0  4.0807  0
C  C158  1  0.96736369  0.97141977  0.53682126  1  -0.048622  0  -0.088882  -0.13096  0  3.897611  0
C  C159  1  0.08627445  0.91672388  0.37526654  1  -0.054383  0  -0.096576  -0.120146  0  4.035833  0
C  C160  1  0.10512221  0.95555697  0.40425728  1  -0.033176  0  -0.108301  -0.1  0  4.060604  0
C  C161  1  0.07805811  0.98159650  0.44549575  1  -0.033356  0  -0.109165  -0.106193  0  4.079621  0
C  C162  1  0.03067381  0.97001177  0.46330837  1  -0.078676  0  -0.088883  -0.130865  0  3.900361  0
C  C163  1  0.08217783  0.09086550  0.62449330  1  -0.021906  0  -0.096338  -0.119509  0  4.03947  0
C  C164  1  0.04422885  0.10975916  0.59395833  1  0.005268  0  -0.109134  -0.102093  0  4.0636  0
C  C165  1  0.01895686  0.08197531  0.55293017  1  0.014546  0  -0.109117  -0.105952  0  4.081376  0
C  C166  1  0.03143207  0.03444737  0.53586644  1  -0.136677  0  -0.089413  -0.132366  0  3.898956  0
C  C167  1  0.90953312  0.08810723  0.37603403  1  -0.061696  0  -0.096632  -0.119772  0  4.038078  0
C  C168  1  0.89204773  0.04832868  0.40471484  1  0.040348  0  -0.109107  -0.101714  0  4.063462  0
C  C169  1  0.91976017  0.02284002  0.44597724  1  -0.20495  0  -0.109644  -0.107809  0  4.081321  0
C  C170  1  0.96749015  0.03448141  0.46280341  1  0.071161  0  -0.088129  -0.128175  0  3.897166  0
N  N171  1  0.87484475  0.73385314  0.83214696  1  -0.749044  0  -0.336664  -0.137265  0  3.776765  0
N  N172  1  0.83824063  0.73545022  0.87016075  1  -0.793774  0  -0.340657  -0.143216  0  3.780404  0
N  N173  1  0.73689310  0.83548381  0.86924861  1  -0.792959  0  -0.340263  -0.142409  0  3.774727  0
N  N174  1  0.73538560  0.87201257  0.83113551  1  -0.775078  0  -0.336895  -0.137828  0  3.774882  0
N  N175  1  0.83695559  0.87212415  0.73273129  1  -0.765236  0  -0.339701  -0.141383  0  3.78005  0
N  N176  1  0.87337973  0.83345203  0.73165769  1  -0.79601  0  -0.337193  -0.138557  0  3.779283  0
N  N177  1  0.86461368  0.26913632  0.17027856  1  -0.757418  0  -0.336418  -0.137167  0  3.776125  0
N  N178  1  0.82828062  0.26789682  0.13199920  1  -0.798887  0  -0.340732  -0.140957  0  3.781184  0
N  N179  1  0.73041664  0.16613632  0.12982253  1  -0.778745  0  -0.341146  -0.142762  0  3.780163  0
N  N180  1  0.72948634  0.12930448  0.16762115  1  -0.752539  0  -0.336971  -0.136837  0  3.774754  0
N  N181  1  0.82875828  0.12986457  0.26837634  1  -0.774505  0  -0.337032  -0.13821  0  3.776118  0
N  N182  1  0.86668865  0.16656807  0.26790913  1  -0.777716  0  -0.339121  -0.141617  0  3.773608  0
N  N183  1  0.12639073  0.73502280  0.16970179  1  -0.748791  0  -0.335963  -0.136612  0  3.773222  0
N  N184  1  0.16269303  0.73578595  0.13139780  1  -0.802386  0  -0.341211  -0.142519  0  3.782584  0
N  N185  1  0.26369710  0.83445803  0.12957960  1  -0.762089  0  -0.340618  -0.141681  0  3.779288  0
N  N186  1  0.26570530  0.87092541  0.16756716  1  -0.755908  0  -0.337363  -0.138203  0  3.775689  0
N  N187  1  0.16621476  0.87266283  0.26808542  1  -0.78105  0  -0.336985  -0.138433  0  3.774738  0
N  N188  1  0.12698741  0.83734942  0.26725715  1  -0.77557  0  -0.339186  -0.140995  0  3.773809  0
N  N189  1  0.12828186  0.27170771  0.83047150  1  -0.776838  0  -0.33997  -0.143006  0  3.775106  0
N  N190  1  0.16712144  0.27120298  0.86626866  1  -0.783269  0  -0.338037  -0.13714  0  3.775757  0
N  N191  1  0.26423399  0.16732288  0.86692457  1  -0.802319  0  -0.341504  -0.144327  0  3.78379  0
N  N192  1  0.26318126  0.12943403  0.83028538  1  -0.736317  0  -0.336613  -0.135919  0  3.777023  0
N  N193  1  0.16066759  0.13155123  0.73279212  1  -0.797478  0  -0.340339  -0.142122  0  3.77942  0
N  N194  1  0.12595158  0.17173493  0.73067527  1  -0.750746  0  -0.336135  -0.136444  0  3.774779  0
