# generated using pymatgen
data_Ni2H68C53(N3O2)4
_symmetry_space_group_name_H-M   'P 1'
_cell_length_a   12.18730395
_cell_length_b   16.66009176
_cell_length_c   16.66006635
_cell_angle_alpha   89.99997482
_cell_angle_beta   89.99989701
_cell_angle_gamma   90.00002817
_symmetry_Int_Tables_number   1
_chemical_formula_structural   Ni2H68C53(N3O2)4
_chemical_formula_sum   'Ni4 H136 C106 N24 O16'
_cell_volume   3382.68656236
_cell_formula_units_Z   2
loop_
 _symmetry_equiv_pos_site_id
 _symmetry_equiv_pos_as_xyz
  1  'x, y, z'
loop_
 _atom_site_type_symbol
 _atom_site_label
 _atom_site_symmetry_multiplicity
 _atom_site_fract_x
 _atom_site_fract_y
 _atom_site_fract_z
 _atom_site_occupancy
 _atom_site_pbe_bader_charge
 _atom_site_pbe_bader_spin_density
 _atom_site_pbe_cm5_charge
 _atom_site_pbe_ddec_charge
 _atom_site_pbe_ddec_spin_density
 _atom_site_pbe_ddec_sum_bond_order
 _atom_site_pbe_magmom
Ni  Ni0  1  0.00000170  0.69330693  0.80669411  1  1.049611  1.491361  0.646263  0.595099  1.726183  2.525197  1.478
Ni  Ni1  1  0.99999875  0.80669135  0.30669302  1  1.049632  1.49136  0.64625  0.595112  1.726183  2.525162  1.478
Ni  Ni2  1  0.99999954  0.30669173  0.19330823  1  1.049612  1.49136  0.646279  0.595118  1.726185  2.525175  1.478
Ni  Ni3  1  0.99999889  0.19330749  0.69330746  1  1.049583  1.491359  0.64629  0.595108  1.726184  2.525278  1.478
H  H4  1  0.15328326  0.60994966  0.85673285  1  0.497348  -0.000409  0.28504  0.245804  -0.000276  1.027738  -0.001
H  H5  1  0.84671456  0.85673424  0.39005112  1  0.497275  -0.000409  0.285042  0.245828  -0.000276  1.027638  -0.001
H  H6  1  0.15328652  0.39005127  0.14326515  1  0.497284  -0.000409  0.285078  0.245787  -0.000275  1.027656  -0.001
H  H7  1  0.84671323  0.14326514  0.60994956  1  0.497293  -0.000409  0.2851  0.245834  -0.000276  1.027648  -0.001
H  H8  1  0.15328561  0.89005147  0.35673418  1  0.497305  -0.000409  0.285039  0.245812  -0.000276  1.027615  -0.001
H  H9  1  0.84671637  0.35673466  0.10994971  1  0.497321  -0.000409  0.2851  0.245879  -0.000276  1.027601  -0.001
H  H10  1  0.15328581  0.10994886  0.64326562  1  0.497292  -0.000409  0.285052  0.245818  -0.000275  1.027706  -0.001
H  H11  1  0.84671387  0.64326532  0.89004978  1  0.49729  -0.000409  0.28509  0.245866  -0.000276  1.027613  -0.001
H  H12  1  0.48307337  0.46217207  0.66357917  1  0.071164  0.000204  0.097021  0.102845  9.4e-05  1.032937  0.0
H  H13  1  0.51692603  0.66357735  0.53782630  1  0.071185  0.000204  0.097066  0.102894  9.4e-05  1.032935  0.0
H  H14  1  0.48307461  0.53782838  0.33642139  1  0.071168  0.000204  0.097025  0.10285  9.4e-05  1.032955  0.0
H  H15  1  0.51692765  0.33642191  0.46217362  1  0.071179  0.000204  0.097043  0.102888  9.4e-05  1.032914  0.0
H  H16  1  0.48307302  0.03782757  0.16358006  1  0.071155  0.000204  0.097035  0.102888  9.4e-05  1.032912  0.0
H  H17  1  0.51692534  0.16357821  0.96217166  1  0.071338  0.000204  0.097058  0.102887  9.4e-05  1.032929  0.0
H  H18  1  0.48307414  0.96217107  0.83642231  1  0.071321  0.000204  0.097046  0.102883  9.4e-05  1.03291  0.0
H  H19  1  0.51692260  0.83642165  0.03782586  1  0.071221  0.000204  0.097052  0.102881  9.4e-05  1.032909  0.0
H  H20  1  0.68732224  0.58920925  0.49448725  1  0.0608  1.4e-05  0.09863  0.097427  -3e-06  1.040419  0.0
H  H21  1  0.31267423  0.49448524  0.41078977  1  0.060759  1.4e-05  0.098632  0.09749  -3e-06  1.040361  0.0
H  H22  1  0.68732298  0.41079007  0.50551245  1  0.060776  1.4e-05  0.098627  0.097454  -3e-06  1.040458  0.0
H  H23  1  0.31267483  0.50551215  0.58920862  1  0.060794  1.4e-05  0.09863  0.097457  -3e-06  1.040424  0.0
H  H24  1  0.68732337  0.91078901  0.99448758  1  0.060775  1.4e-05  0.098633  0.097463  -3e-06  1.040475  0.0
H  H25  1  0.31267643  0.99448556  0.08920991  1  0.060781  1.4e-05  0.098613  0.097433  -3e-06  1.040402  0.0
H  H26  1  0.68732431  0.08920911  0.00551331  1  0.060758  1.4e-05  0.098616  0.097428  -3e-06  1.040452  0.0
H  H27  1  0.31267427  0.00551543  0.91078848  1  0.060763  1.4e-05  0.098625  0.097452  -3e-06  1.040379  0.0
H  H28  1  0.80921864  0.63034108  0.60440148  1  0.063881  0.000354  0.096912  0.094567  0.000225  1.038696  0.0
H  H29  1  0.19078107  0.60440359  0.36965793  1  0.063837  0.000354  0.096909  0.094526  0.000224  1.038745  0.0
H  H30  1  0.80921881  0.36966009  0.39559685  1  0.063871  0.000354  0.096917  0.09455  0.000224  1.03876  0.0
H  H31  1  0.19078068  0.39559676  0.63034242  1  0.063817  0.000354  0.096897  0.094497  0.000224  1.03877  0.0
H  H32  1  0.80921851  0.86965740  0.10440282  1  0.063848  0.000354  0.096903  0.094537  0.000225  1.038697  0.0
H  H33  1  0.19078202  0.10440279  0.13034207  1  0.063855  0.000354  0.096896  0.094528  0.000224  1.038757  0.0
H  H34  1  0.80921811  0.13034317  0.89559671  1  0.06386  0.000354  0.096907  0.094549  0.000224  1.038692  0.0
H  H35  1  0.19078548  0.89559515  0.86965528  1  0.063832  0.000354  0.096911  0.094544  0.000224  1.038757  0.0
H  H36  1  0.60640323  0.50622104  0.77429233  1  0.085712  7.7e-05  0.10293  0.107458  1.2e-05  1.00262  0.0
H  H37  1  0.39359696  0.77429162  0.49377912  1  0.085719  7.7e-05  0.102904  0.107421  1.2e-05  1.002533  0.0
H  H38  1  0.60640472  0.49378005  0.22570748  1  0.085689  7.7e-05  0.102909  0.1074  1.2e-05  1.002538  0.0
H  H39  1  0.39359676  0.22570700  0.50622217  1  0.085661  7.7e-05  0.10292  0.107437  1.2e-05  1.002517  0.0
H  H40  1  0.60640319  0.99377789  0.27429241  1  0.085724  7.7e-05  0.102928  0.107423  1.2e-05  1.002634  0.0
H  H41  1  0.39359739  0.27429328  0.00622175  1  0.085704  7.7e-05  0.102916  0.107429  1.2e-05  1.002595  0.0
H  H42  1  0.60640148  0.00622200  0.72570799  1  0.085752  7.7e-05  0.102909  0.107404  1.2e-05  1.002568  0.0
H  H43  1  0.39359879  0.72570534  0.99377594  1  0.085713  7.7e-05  0.102879  0.107371  1.2e-05  1.002495  0.0
H  H44  1  0.31213488  0.63113449  0.66074012  1  0.063411  3.4e-05  0.098286  0.078655  1.3e-05  0.993118  0.0
H  H45  1  0.68786478  0.66073890  0.36886708  1  0.063063  3.4e-05  0.098256  0.078615  1.3e-05  0.993102  0.0
H  H46  1  0.31213437  0.36886650  0.33926127  1  0.063371  3.4e-05  0.098255  0.078591  1.3e-05  0.993139  0.0
H  H47  1  0.68786435  0.33926102  0.63113261  1  0.063068  3.4e-05  0.098248  0.078607  1.3e-05  0.993112  0.0
H  H48  1  0.31213558  0.86886738  0.16073906  1  0.063055  3.4e-05  0.098246  0.078605  1.3e-05  0.993114  0.0
H  H49  1  0.68786573  0.16073931  0.13113404  1  0.063402  3.4e-05  0.098283  0.078665  1.3e-05  0.993106  0.0
H  H50  1  0.31213367  0.13113360  0.83926173  1  0.063368  3.4e-05  0.09825  0.078627  1.3e-05  0.993131  0.0
H  H51  1  0.68786423  0.83926122  0.86886685  1  0.063432  3.4e-05  0.098248  0.078588  1.3e-05  0.993117  0.0
H  H52  1  0.27981505  0.62983255  0.76481776  1  0.077922  -6e-05  0.112497  0.101065  -0.000106  0.979212  0.0
H  H53  1  0.72018369  0.76481636  0.37016895  1  0.077941  -6e-05  0.11246  0.10099  -0.000106  0.979244  0.0
H  H54  1  0.27981644  0.37016723  0.23518307  1  0.077928  -6e-05  0.112479  0.101007  -0.000106  0.979212  0.0
H  H55  1  0.72018320  0.23518297  0.62983190  1  0.077925  -6e-05  0.112481  0.101005  -0.000106  0.979209  0.0
H  H56  1  0.27981493  0.87016807  0.26481670  1  0.077946  -6e-05  0.112485  0.101031  -0.000106  0.979199  0.0
H  H57  1  0.72018464  0.26481737  0.12983269  1  0.077926  -6e-05  0.112481  0.101036  -0.000106  0.979212  0.0
H  H58  1  0.27981492  0.12983171  0.73518413  1  0.077959  -6e-05  0.112455  0.100995  -0.000106  0.979198  0.0
H  H59  1  0.72018225  0.73518316  0.87016817  1  0.077912  -6e-05  0.112464  0.100962  -0.000106  0.979176  0.0
H  H60  1  0.21864081  0.76609049  0.74525242  1  0.072613  0.001163  0.106615  0.097171  0.000345  1.010968  0.001
H  H61  1  0.78135817  0.74525169  0.23391016  1  0.072643  0.001163  0.106632  0.097214  0.000345  1.010948  0.001
H  H62  1  0.21864205  0.23390926  0.25474729  1  0.072603  0.001163  0.106616  0.097178  0.000345  1.010981  0.001
H  H63  1  0.78135899  0.25474827  0.76608942  1  0.072633  0.001163  0.106628  0.097204  0.000345  1.010961  0.001
H  H64  1  0.21864059  0.73391071  0.24525142  1  0.072657  0.001163  0.106634  0.09721  0.000345  1.010961  0.001
H  H65  1  0.78135879  0.24525263  0.26609081  1  0.072592  0.001163  0.106625  0.097201  0.000345  1.01092  0.001
H  H66  1  0.21864063  0.26608964  0.75474709  1  0.072601  0.001163  0.10663  0.097206  0.000345  1.010914  0.001
H  H67  1  0.78135592  0.75474852  0.73390936  1  0.07217  0.001163  0.106632  0.097211  0.000345  1.01091  0.001
H  H68  1  0.22446667  0.75314221  0.63840771  1  0.048877  0.00457  0.096092  0.070456  0.00213  0.987268  0.002
H  H69  1  0.77553485  0.63840713  0.24685911  1  0.048882  0.00457  0.096111  0.070493  0.00213  0.987272  0.002
H  H70  1  0.22446520  0.24685754  0.36159260  1  0.048885  0.004569  0.096127  0.070505  0.002129  0.987302  0.002
H  H71  1  0.77553249  0.36159342  0.75314167  1  0.048858  0.004569  0.096114  0.070489  0.00213  0.987296  0.002
H  H72  1  0.22446482  0.74685964  0.13840730  1  0.04889  0.004568  0.096119  0.070485  0.002129  0.987258  0.002
H  H73  1  0.77553385  0.13840808  0.25314191  1  0.048893  0.004569  0.096101  0.070472  0.002129  0.987282  0.002
H  H74  1  0.22446458  0.25314191  0.86159240  1  0.048911  0.00457  0.096089  0.070456  0.00213  0.987307  0.002
H  H75  1  0.77553267  0.86159247  0.74685827  1  0.048867  0.004569  0.096097  0.070464  0.002129  0.987321  0.002
H  H76  1  0.93473533  0.75230441  0.63660653  1  0.067144  0.000126  0.112633  0.092876  -2.5e-05  0.994793  0.0
H  H77  1  0.06526537  0.63660690  0.24769451  1  0.066784  0.000126  0.112656  0.092897  -2.5e-05  0.99478  0.0
H  H78  1  0.93473467  0.24769560  0.36339344  1  0.067136  0.000126  0.112629  0.092862  -2.5e-05  0.994795  0.0
H  H79  1  0.06526630  0.36339340  0.75230300  1  0.067109  0.000126  0.112607  0.092806  -2.5e-05  0.99484  0.0
H  H80  1  0.93473266  0.74769710  0.13660672  1  0.067081  0.000126  0.112604  0.092784  -2.5e-05  0.994831  0.0
H  H81  1  0.06526520  0.13660605  0.25230384  1  0.067114  0.000126  0.112634  0.092861  -2.5e-05  0.994784  0.0
H  H82  1  0.93473488  0.25230591  0.86339385  1  0.066774  0.000126  0.112658  0.092861  -2.5e-05  0.994802  0.0
H  H83  1  0.06526483  0.86339425  0.74769547  1  0.067107  0.000126  0.112644  0.092852  -2.5e-05  0.994819  0.0
H  H84  1  0.05485907  0.80586519  0.60682210  1  0.029075  0.002935  0.099561  0.073807  0.001375  1.001107  0.001
H  H85  1  0.94514091  0.60682212  0.19413473  1  0.02908  0.002935  0.099555  0.073789  0.001375  1.001112  0.001
H  H86  1  0.05485913  0.19413451  0.39317843  1  0.029066  0.002935  0.099556  0.073788  0.001375  1.001114  0.001
H  H87  1  0.94514255  0.39317790  0.80586403  1  0.029105  0.002934  0.09955  0.073773  0.001374  1.001074  0.001
H  H88  1  0.05485637  0.69413662  0.10682111  1  0.029103  0.002935  0.099545  0.073769  0.001375  1.001102  0.001
H  H89  1  0.94514061  0.10682124  0.30586548  1  0.029061  0.002935  0.099545  0.073792  0.001375  1.001098  0.001
H  H90  1  0.05485855  0.30586608  0.89317821  1  0.029075  0.002935  0.099541  0.073765  0.001375  1.00105  0.001
H  H91  1  0.94514121  0.89317817  0.69413387  1  0.029057  0.002934  0.099561  0.073806  0.001374  1.001127  0.001
H  H92  1  0.06756197  0.49950306  0.92116965  1  0.018808  0.00422  0.098467  0.074903  0.001944  0.97711  0.002
H  H93  1  0.93243808  0.92116965  0.50049719  1  0.018638  0.004223  0.098446  0.074872  0.001945  0.977079  0.002
H  H94  1  0.06756136  0.50049664  0.07882966  1  0.01859  0.004223  0.098472  0.074883  0.001944  0.977092  0.002
H  H95  1  0.93243862  0.07882976  0.49950338  1  0.018567  0.004223  0.098472  0.074923  0.001944  0.977096  0.002
H  H96  1  0.06755995  0.00049632  0.42117115  1  0.018594  0.004225  0.098429  0.074835  0.001944  0.977155  0.002
H  H97  1  0.93243894  0.42116990  0.99950372  1  0.018678  0.004222  0.098461  0.074897  0.001944  0.977111  0.002
H  H98  1  0.06756174  0.99950338  0.57882996  1  0.018808  0.004221  0.098454  0.074901  0.001944  0.977107  0.002
H  H99  1  0.93243858  0.57882891  0.00049626  1  0.018564  0.004225  0.098481  0.07491  0.001944  0.977126  0.002
H  H100  1  0.94654808  0.51868260  0.86341419  1  0.029669  0.000614  0.102779  0.078516  0.000162  1.016442  0.0
H  H101  1  0.05345205  0.86341412  0.48131599  1  0.02967  0.000614  0.102799  0.078559  0.000162  1.016403  0.0
H  H102  1  0.94654896  0.48131682  0.13658696  1  0.029673  0.000614  0.102791  0.078521  0.000162  1.016436  0.0
H  H103  1  0.05345093  0.13658618  0.51868274  1  0.029671  0.000614  0.102776  0.078524  0.000162  1.01645  0.0
H  H104  1  0.94654803  0.98131641  0.36341428  1  0.029678  0.000614  0.102755  0.078493  0.000162  1.016399  0.0
H  H105  1  0.05345163  0.36341397  0.01868348  1  0.029672  0.000614  0.102792  0.078556  0.000162  1.01644  0.0
H  H106  1  0.94654901  0.01868300  0.63658567  1  0.029667  0.000614  0.102776  0.078518  0.000162  1.01646  0.0
H  H107  1  0.05345053  0.63658632  0.98131765  1  0.029685  0.000614  0.102753  0.078481  0.000162  1.016392  0.0
H  H108  1  0.17447915  0.49423243  0.77311675  1  0.033606  0.007402  0.106715  0.061151  0.003421  0.960837  0.004
H  H109  1  0.82551856  0.77311523  0.50576858  1  0.033591  0.007402  0.106728  0.061171  0.00342  0.960823  0.004
H  H110  1  0.17448065  0.50576790  0.22688422  1  0.033575  0.007401  0.10673  0.061178  0.00342  0.960823  0.004
H  H111  1  0.82552003  0.22688414  0.49423153  1  0.033588  0.007402  0.106727  0.061188  0.003421  0.960859  0.004
H  H112  1  0.17448042  0.00576885  0.27311644  1  0.033584  0.007402  0.106696  0.061116  0.003421  0.960849  0.004
H  H113  1  0.82551943  0.27311607  0.99423253  1  0.033603  0.007401  0.106729  0.061156  0.00342  0.960818  0.004
H  H114  1  0.17448020  0.99423149  0.72688573  1  0.033622  0.007401  0.106716  0.061154  0.00342  0.960829  0.004
H  H115  1  0.82551834  0.72688390  0.00576878  1  0.033592  0.007402  0.106727  0.061183  0.00342  0.960811  0.004
H  H116  1  0.03774674  0.50800065  0.73710197  1  0.051397  0.000535  0.114425  0.067108  0.000111  1.002405  0.0
H  H117  1  0.96225348  0.73710165  0.49199965  1  0.051392  0.000535  0.114411  0.067086  0.000111  1.002397  0.0
H  H118  1  0.03774650  0.49199904  0.26289798  1  0.051413  0.000535  0.114436  0.06713  0.000111  1.002371  0.0
H  H119  1  0.96225412  0.26289657  0.50800089  1  0.051389  0.000535  0.114436  0.067127  0.000111  1.002435  0.0
H  H120  1  0.03774670  0.99199989  0.23710265  1  0.05139  0.000535  0.114412  0.067073  0.000111  1.002416  0.0
H  H121  1  0.96225391  0.23710271  0.00800169  1  0.051401  0.000535  0.11444  0.067117  0.00011  1.002385  0.0
H  H122  1  0.03774572  0.00800040  0.76289790  1  0.051379  0.000535  0.114422  0.067113  0.000111  1.002371  0.0
H  H123  1  0.96225287  0.76289731  0.99199885  1  0.051416  0.000535  0.11444  0.067127  0.000111  1.002387  0.0
H  H124  1  0.99053185  0.60856691  0.65030395  1  0.120157  0.000629  0.120771  0.094666  0.000149  1.026406  0.001
H  H125  1  0.00947107  0.65030486  0.39143227  1  0.12009  0.000629  0.120787  0.094765  0.000149  1.026375  0.001
H  H126  1  0.99053051  0.39143252  0.34969595  1  0.120117  0.00063  0.120773  0.094699  0.000149  1.02638  0.001
H  H127  1  0.00946824  0.34969542  0.60856532  1  0.120127  0.000629  0.120757  0.094722  0.000149  1.026364  0.001
H  H128  1  0.99053174  0.89143521  0.15030468  1  0.120118  0.00063  0.120785  0.094819  0.000149  1.026376  0.001
H  H129  1  0.00946961  0.15030407  0.10856796  1  0.12014  0.00063  0.1208  0.094796  0.000149  1.026375  0.001
H  H130  1  0.99052980  0.10856782  0.84969642  1  0.120094  0.000629  0.120792  0.094777  0.000149  1.026409  0.001
H  H131  1  0.00946724  0.84969561  0.89143263  1  0.120138  0.000629  0.12078  0.094702  0.000149  1.026391  0.001
H  H132  1  0.09890406  0.64406897  0.58482640  1  0.052986  0.00463  0.105097  0.066749  0.00214  0.964261  0.002
H  H133  1  0.90109815  0.58482699  0.35593064  1  0.05303  0.004629  0.105117  0.066789  0.002139  0.964273  0.002
H  H134  1  0.09890253  0.35593074  0.41517227  1  0.05302  0.00463  0.105112  0.066765  0.00214  0.964285  0.002
H  H135  1  0.90109692  0.41517300  0.64406698  1  0.053023  0.00463  0.105111  0.066751  0.00214  0.964289  0.002
H  H136  1  0.09890393  0.85593346  0.08482714  1  0.053008  0.00463  0.105093  0.066747  0.00214  0.964261  0.002
H  H137  1  0.90109660  0.08482799  0.14406904  1  0.053019  0.00463  0.105118  0.06679  0.00214  0.964278  0.002
H  H138  1  0.09890103  0.14406865  0.91517333  1  0.053006  0.004628  0.105102  0.06676  0.002139  0.96429  0.002
H  H139  1  0.90109519  0.91517260  0.85593097  1  0.053004  0.004629  0.105109  0.066767  0.002139  0.964281  0.002
C  C140  1  0.49999857  0.50000023  0.49999877  1  -0.006052  -2.7e-05  0.0101  -0.008769  -0.000107  3.795386  0.0
C  C141  1  0.50000099  0.99999878  0.00000065  1  -0.006094  -2.7e-05  0.010201  -0.008619  -0.000107  3.795737  0.0
C  C142  1  0.57461713  0.52330262  0.57086878  1  -0.096232  -0.000994  -0.001727  0.074315  -0.001109  3.910478  -0.001
C  C143  1  0.42537917  0.57086598  0.47669458  1  -0.096448  -0.000994  -0.00165  0.074367  -0.001108  3.910703  -0.001
C  C144  1  0.57461811  0.47669726  0.42913226  1  -0.096241  -0.000994  -0.001702  0.074368  -0.001108  3.910574  -0.001
C  C145  1  0.42537906  0.42913265  0.52330306  1  -0.096419  -0.000994  -0.001664  0.074333  -0.001108  3.910603  -0.001
C  C146  1  0.57461707  0.97669639  0.07086827  1  -0.096216  -0.000995  -0.001706  0.074353  -0.001109  3.910552  -0.001
C  C147  1  0.42537956  0.07086583  0.02330393  1  -0.096444  -0.000994  -0.001725  0.074261  -0.001109  3.910692  -0.001
C  C148  1  0.57461652  0.02330169  0.92913277  1  -0.096451  -0.000994  -0.001753  0.074333  -0.001109  3.910729  -0.001
C  C149  1  0.42537703  0.92913520  0.97669551  1  -0.096432  -0.000994  -0.001703  0.074274  -0.001108  3.910701  -0.001
C  C150  1  0.55378223  0.49976311  0.65005816  1  -0.0089  0.000745  -0.098136  -0.143276  0.000388  3.997861  0.001
C  C151  1  0.44622052  0.65005761  0.50023527  1  -0.008938  0.000745  -0.098188  -0.14323  0.000388  3.997824  0.001
C  C152  1  0.55378177  0.50023736  0.34994231  1  -0.00895  0.000745  -0.098167  -0.143295  0.000388  3.997851  0.001
C  C153  1  0.44621960  0.34994162  0.49976415  1  -0.008956  0.000745  -0.098171  -0.143256  0.000388  3.997787  0.001
C  C154  1  0.55378103  0.00023656  0.15005906  1  -0.00895  0.000745  -0.098179  -0.14332  0.000388  3.997823  0.001
C  C155  1  0.44621892  0.15005786  0.99976220  1  -0.009079  0.000745  -0.098173  -0.143226  0.000388  3.997676  0.001
C  C156  1  0.55378133  0.99976211  0.84994261  1  -0.009088  0.000745  -0.098189  -0.143294  0.000388  3.997915  0.001
C  C157  1  0.44621793  0.84994018  0.00023601  1  -0.008916  0.000745  -0.098161  -0.143251  0.000388  3.997705  0.001
C  C158  1  0.66769189  0.57080118  0.55558966  1  0.008372  0.000258  -0.094434  -0.135452  0.000106  4.003745  0.0
C  C159  1  0.33231024  0.55558934  0.42919903  1  0.008192  0.000258  -0.094526  -0.135756  0.000105  4.004008  0.0
C  C160  1  0.66769034  0.42919754  0.44441246  1  0.008355  0.000258  -0.094455  -0.135641  0.000105  4.003953  0.0
C  C161  1  0.33230920  0.44441105  0.57080113  1  0.008202  0.000258  -0.094478  -0.13561  0.000105  4.003859  0.0
C  C162  1  0.66769016  0.92919667  0.05558797  1  0.008386  0.000258  -0.094424  -0.135598  0.000105  4.003856  0.0
C  C163  1  0.33231133  0.05558977  0.07080021  1  0.008555  0.000258  -0.094494  -0.135661  0.000105  4.00402  0.0
C  C164  1  0.66769288  0.07079964  0.94441295  1  0.008249  0.000258  -0.094438  -0.135564  0.000105  4.003807  0.0
C  C165  1  0.33231221  0.94441002  0.92919936  1  0.007929  0.000257  -0.09453  -0.135746  0.000105  4.004116  0.0
C  C166  1  0.73720597  0.59385267  0.61737028  1  -0.066729  -0.000331  -0.094408  -0.101464  -0.000493  4.009785  0.0
C  C167  1  0.26279122  0.61736991  0.40614513  1  -0.066398  -0.000331  -0.094376  -0.101345  -0.000493  4.009487  0.0
C  C168  1  0.73720783  0.40614727  0.38262996  1  -0.066831  -0.00033  -0.094396  -0.10141  -0.000492  4.009736  0.0
C  C169  1  0.26279009  0.38262986  0.59385572  1  -0.06642  -0.000331  -0.094381  -0.101366  -0.000493  4.00954  0.0
C  C170  1  0.73720669  0.90614518  0.11737100  1  -0.066831  -0.000331  -0.094393  -0.101365  -0.000493  4.009609  0.0
C  C171  1  0.26279061  0.11736973  0.09385297  1  -0.066789  -0.000331  -0.094353  -0.101338  -0.000493  4.009548  0.0
C  C172  1  0.73720793  0.09385296  0.88262923  1  -0.066475  -0.00033  -0.094384  -0.101422  -0.000492  4.009676  0.0
C  C173  1  0.26279315  0.88263124  0.90614128  1  -0.066136  -0.000331  -0.094391  -0.101373  -0.000493  4.009356  0.0
C  C174  1  0.71537330  0.57068171  0.69664489  1  -0.028854  0.007013  -0.030964  -0.052834  0.004205  4.022475  0.005
C  C175  1  0.28463116  0.69664498  0.42932088  1  -0.028778  0.007011  -0.030846  -0.05253  0.004204  4.0224  0.005
C  C176  1  0.71537128  0.42932063  0.30335597  1  -0.028748  0.007011  -0.030856  -0.052561  0.004204  4.022425  0.005
C  C177  1  0.28463003  0.30335540  0.57068115  1  -0.028735  0.00701  -0.030853  -0.052539  0.004203  4.02242  0.005
C  C178  1  0.71537404  0.92931850  0.19664440  1  -0.028684  0.007011  -0.030876  -0.052678  0.004204  4.022312  0.005
C  C179  1  0.28462897  0.19664541  0.07067836  1  -0.028766  0.00701  -0.030886  -0.052609  0.004204  4.022435  0.005
C  C180  1  0.71537054  0.07068084  0.80335646  1  -0.028713  0.007011  -0.030874  -0.052621  0.004204  4.022458  0.005
C  C181  1  0.28463386  0.80335317  0.92931826  1  -0.028764  0.00701  -0.030816  -0.052541  0.004203  4.022364  0.005
C  C182  1  0.62297548  0.52358711  0.71237239  1  -0.069735  0.000373  -0.089272  -0.093182  -6e-05  4.001691  0.0
C  C183  1  0.37702480  0.71236879  0.47641006  1  -0.069723  0.000373  -0.089304  -0.09332  -6e-05  4.002035  0.0
C  C184  1  0.62297762  0.47641339  0.28762979  1  -0.069651  0.000373  -0.089251  -0.093168  -6e-05  4.001833  0.0
C  C185  1  0.37702542  0.28763042  0.52359124  1  -0.069636  0.000373  -0.089293  -0.093279  -6e-05  4.001956  0.0
C  C186  1  0.62297378  0.97641185  0.21237188  1  -0.069681  0.000373  -0.089298  -0.093205  -6e-05  4.001742  0.0
C  C187  1  0.37702354  0.21237104  0.02358845  1  -0.069696  0.000373  -0.089268  -0.093254  -6e-05  4.00193  0.0
C  C188  1  0.62297439  0.02358864  0.78763030  1  -0.069724  0.000373  -0.089279  -0.093245  -6e-05  4.001977  0.0
C  C189  1  0.37702256  0.78763057  0.97640866  1  -0.06976  0.000373  -0.089214  -0.093112  -6e-05  4.002091  0.0
C  C190  1  0.78845912  0.59698828  0.76415657  1  1.56666  -0.000443  0.196824  0.549144  -0.000761  4.240676  0.0
C  C191  1  0.21154204  0.76415300  0.40301069  1  1.566492  -0.000442  0.19681  0.549067  -0.00076  4.240548  0.0
C  C192  1  0.78845971  0.40301348  0.23584659  1  1.566489  -0.000442  0.196858  0.549071  -0.00076  4.240354  0.0
C  C193  1  0.21153916  0.23584675  0.59699023  1  1.566646  -0.000442  0.196827  0.549079  -0.000761  4.240389  0.0
C  C194  1  0.78845902  0.90301012  0.26415609  1  1.566627  -0.000443  0.196803  0.549065  -0.000761  4.240622  0.0
C  C195  1  0.21154224  0.26415222  0.09698801  1  1.566501  -0.000442  0.196893  0.549232  -0.000761  4.24048  0.0
C  C196  1  0.78845735  0.09698924  0.73584347  1  1.566648  -0.000442  0.196849  0.549111  -0.000761  4.240417  0.0
C  C197  1  0.21153731  0.73585053  0.90300691  1  1.566523  -0.000442  0.196836  0.549246  -0.000761  4.240168  0.0
C  C198  1  0.24592330  0.64022205  0.70472318  1  0.213944  5.5e-05  -0.061925  -0.0708  -0.000172  3.828001  0.0
C  C199  1  0.75407716  0.70472187  0.35977883  1  0.214282  5.5e-05  -0.061838  -0.070619  -0.000173  3.82797  0.0
C  C200  1  0.24592535  0.35977771  0.29527770  1  0.213955  5.5e-05  -0.061816  -0.070539  -0.000172  3.827876  0.0
C  C201  1  0.75407585  0.29527808  0.64022078  1  0.214394  5.5e-05  -0.061883  -0.070715  -0.000172  3.82792  0.0
C  C202  1  0.24592399  0.85977918  0.20472152  1  0.214268  5.5e-05  -0.061874  -0.070713  -0.000173  3.827963  0.0
C  C203  1  0.75407644  0.20472347  0.14022279  1  0.213973  5.5e-05  -0.061903  -0.070779  -0.000173  3.827893  0.0
C  C204  1  0.24592385  0.14022119  0.79527875  1  0.213854  5.5e-05  -0.061892  -0.070762  -0.000173  3.827857  0.0
C  C205  1  0.75407329  0.79527768  0.85977742  1  0.213878  5.5e-05  -0.061886  -0.07062  -0.000173  3.82776  0.0
C  C206  1  0.19731456  0.72602350  0.69564880  1  0.217458  -0.000197  -0.070361  -0.089881  -0.000615  3.82831  -0.001
C  C207  1  0.80268522  0.69564811  0.27397662  1  0.217438  -0.000197  -0.070429  -0.089995  -0.000614  3.828307  -0.001
C  C208  1  0.19731489  0.27397565  0.30435154  1  0.217456  -0.000197  -0.070413  -0.089973  -0.000614  3.828293  -0.001
C  C209  1  0.80268289  0.30435185  0.72602293  1  0.217336  -0.000197  -0.070406  -0.08993  -0.000614  3.828351  -0.001
C  C210  1  0.19731437  0.77397772  0.19564778  1  0.217479  -0.000197  -0.070413  -0.089922  -0.000615  3.828207  -0.001
C  C211  1  0.80268429  0.19564968  0.22602374  1  0.217453  -0.000197  -0.070365  -0.089864  -0.000615  3.828169  -0.001
C  C212  1  0.19731262  0.22602382  0.80435136  1  0.217502  -0.000197  -0.07035  -0.089847  -0.000614  3.828175  -0.001
C  C213  1  0.80268300  0.80435149  0.77397641  1  0.217892  -0.000197  -0.070348  -0.089882  -0.000614  3.828226  -0.001
C  C214  1  0.01230980  0.77794215  0.65835314  1  0.281269  0.000297  -0.066383  -0.088949  -0.000247  3.902682  -0.001
C  C215  1  0.98768927  0.65835365  0.22205715  1  0.253404  0.000298  -0.066396  -0.088989  -0.000247  3.902738  -0.001
C  C216  1  0.01231001  0.22205753  0.34164684  1  0.253016  0.000298  -0.066378  -0.088925  -0.000247  3.902697  -0.001
C  C217  1  0.98769176  0.34164638  0.77794156  1  0.281261  0.000297  -0.066343  -0.088799  -0.000248  3.902701  -0.001
C  C218  1  0.01230712  0.72205902  0.15835274  1  0.281246  0.000298  -0.066325  -0.088739  -0.000247  3.902647  -0.001
C  C219  1  0.98768904  0.15835339  0.27794239  1  0.281294  0.000298  -0.066354  -0.088869  -0.000247  3.902643  -0.001
C  C220  1  0.01230941  0.27794306  0.84164604  1  0.253376  0.000298  -0.066387  -0.088874  -0.000247  3.90282  -0.001
C  C221  1  0.98769036  0.84164784  0.72205692  1  0.253049  0.000298  -0.06639  -0.088921  -0.000247  3.902678  -0.001
C  C222  1  0.01899344  0.54674289  0.89105094  1  0.318615  0.000522  -0.070253  -0.049644  -0.000232  3.898512  -0.001
C  C223  1  0.98100752  0.89105039  0.45325666  1  0.303937  0.00052  -0.07026  -0.049631  -0.000231  3.898568  -0.001
C  C224  1  0.01899438  0.45325799  0.10894963  1  0.318401  0.000523  -0.070216  -0.049524  -0.000231  3.898555  -0.001
C  C225  1  0.98100714  0.10894904  0.54674325  1  0.299329  0.000519  -0.070262  -0.04967  -0.000231  3.898604  -0.001
C  C226  1  0.01899338  0.95325637  0.39105104  1  0.313759  0.000523  -0.070196  -0.049561  -0.000231  3.898606  -0.001
C  C227  1  0.98100785  0.39105143  0.04674338  1  0.299448  0.00052  -0.070263  -0.04971  -0.000231  3.898644  -0.001
C  C228  1  0.01899280  0.04674271  0.60894953  1  0.318592  0.000523  -0.070211  -0.049624  -0.000231  3.898575  -0.001
C  C229  1  0.98100681  0.60894799  0.95325653  1  0.299127  0.000519  -0.070208  -0.049541  -0.000232  3.898581  -0.001
C  C230  1  0.11206095  0.53962353  0.75689715  1  0.626719  0.000546  0.026553  0.064259  -0.000102  3.931587  -0.002
C  C231  1  0.88793848  0.75689805  0.46037737  1  0.626798  0.000546  0.026528  0.064298  -0.000102  3.931571  -0.002
C  C232  1  0.11206238  0.46037678  0.24310150  1  0.626848  0.000545  0.026556  0.064305  -0.000102  3.931436  -0.002
C  C233  1  0.88793986  0.24310134  0.53962326  1  0.626759  0.000546  0.02654  0.064198  -0.000102  3.931643  -0.002
C  C234  1  0.11206007  0.96037643  0.25689845  1  0.626747  0.000546  0.026541  0.064336  -0.000103  3.931514  -0.002
C  C235  1  0.88793965  0.25689790  0.03962405  1  0.626743  0.000546  0.026533  0.064271  -0.000102  3.931533  -0.002
C  C236  1  0.11206080  0.03962329  0.74310320  1  0.626642  0.000546  0.026588  0.064341  -0.000102  3.931316  -0.002
C  C237  1  0.88793786  0.74310210  0.96037658  1  0.626928  0.000546  0.026525  0.064258  -0.000102  3.9316  -0.002
C  C238  1  0.07311403  0.63410862  0.64789879  1  0.529393  -0.001046  0.01951  0.003625  -0.001576  3.892988  -0.002
C  C239  1  0.92688811  0.64789988  0.36589095  1  0.529401  -0.001046  0.019465  0.003458  -0.001576  3.893186  -0.002
C  C240  1  0.07311430  0.36589108  0.35210111  1  0.52936  -0.001046  0.019488  0.003564  -0.001575  3.893181  -0.002
C  C241  1  0.92688522  0.35210013  0.63410723  1  0.529376  -0.001045  0.019453  0.003496  -0.001575  3.893204  -0.002
C  C242  1  0.07311226  0.86589257  0.14789953  1  0.529353  -0.001045  0.019505  0.003429  -0.001576  3.893329  -0.002
C  C243  1  0.92688741  0.14789968  0.13410927  1  0.529377  -0.001046  0.019439  0.003384  -0.001576  3.893312  -0.002
C  C244  1  0.07311197  0.13410893  0.85210217  1  0.529386  -0.001046  0.01947  0.003486  -0.001576  3.893181  -0.002
C  C245  1  0.92688511  0.85210093  0.86589131  1  0.52939  -0.001046  0.019489  0.003566  -0.001575  3.893139  -0.002
N  N246  1  0.07718463  0.71185428  0.69261468  1  -0.963827  0.066175  -0.340849  -0.116795  0.038973  3.48708  0.06
N  N247  1  0.92281677  0.69261694  0.28814395  1  -0.963874  0.066171  -0.340863  -0.116843  0.03897  3.487128  0.06
N  N248  1  0.07718168  0.28814422  0.30738582  1  -0.963833  0.066173  -0.340869  -0.116803  0.038972  3.48713  0.06
N  N249  1  0.92281530  0.30738427  0.71185423  1  -0.963795  0.066173  -0.340848  -0.116886  0.038972  3.487089  0.06
N  N250  1  0.07717953  0.78814629  0.19261305  1  -0.963806  0.066176  -0.340853  -0.116827  0.038974  3.487138  0.06
N  N251  1  0.92281752  0.19261550  0.21185565  1  -0.963857  0.066176  -0.340867  -0.116933  0.038973  3.487315  0.06
N  N252  1  0.07718104  0.21185701  0.80738324  1  -0.963937  0.06617  -0.340865  -0.116906  0.03897  3.487209  0.06
N  N253  1  0.92281620  0.80738570  0.78814434  1  -0.963768  0.06617  -0.340842  -0.116824  0.03897  3.487026  0.06
N  N254  1  0.15347874  0.58457049  0.68830675  1  -1.012558  0.001502  -0.339098  -0.1818  0.000401  3.453048  0.002
N  N255  1  0.84652329  0.68830599  0.41542801  1  -1.012402  0.001502  -0.339086  -0.181843  0.000401  3.453072  0.002
N  N256  1  0.15347833  0.41542684  0.31169545  1  -1.012383  0.001502  -0.33918  -0.182012  0.000401  3.45312  0.002
N  N257  1  0.84652295  0.31169459  0.58457028  1  -1.012614  0.001502  -0.339103  -0.181764  0.000401  3.453068  0.002
N  N258  1  0.15347701  0.91542832  0.18830627  1  -1.012532  0.001502  -0.33908  -0.1818  0.000401  3.453092  0.002
N  N259  1  0.84652435  0.18830462  0.08457109  1  -1.012525  0.001502  -0.339141  -0.18178  0.000401  3.452956  0.002
N  N260  1  0.15347842  0.08457021  0.81169653  1  -1.012328  0.001502  -0.339103  -0.181816  0.000401  3.452939  0.002
N  N261  1  0.84652107  0.81169476  0.91542959  1  -1.012544  0.001502  -0.339139  -0.181915  0.000401  3.452978  0.002
N  N262  1  0.08284687  0.58805362  0.82829004  1  -1.097703  0.085884  -0.501816  -0.350218  0.049743  3.524602  0.074
N  N263  1  0.91715504  0.82829083  0.41195136  1  -1.097823  0.085879  -0.501753  -0.350258  0.04974  3.524685  0.074
N  N264  1  0.08284844  0.41195089  0.17170745  1  -1.097793  0.085879  -0.501827  -0.350203  0.049739  3.524635  0.074
N  N265  1  0.91715542  0.17170917  0.58805164  1  -1.097619  0.08588  -0.50183  -0.350211  0.04974  3.524602  0.074
N  N266  1  0.08284431  0.91194930  0.32829196  1  -1.097698  0.085873  -0.501765  -0.350206  0.049737  3.524578  0.074
N  N267  1  0.91715527  0.32829125  0.08805180  1  -1.097702  0.085875  -0.501823  -0.350246  0.049738  3.52461  0.074
N  N268  1  0.08284443  0.08805280  0.67170794  1  -1.097628  0.085882  -0.501815  -0.350224  0.049742  3.524575  0.074
N  N269  1  0.91715519  0.67170815  0.91194940  1  -1.097799  0.085878  -0.501821  -0.350309  0.049739  3.524682  0.074
O  O270  1  0.87617586  0.63434884  0.74241770  1  -1.180453  0.068141  -0.324249  -0.563935  0.03886  2.412147  0.063
O  O271  1  0.12383030  0.74241842  0.36565496  1  -1.180359  0.068108  -0.324248  -0.563933  0.038842  2.412516  0.063
O  O272  1  0.87617636  0.36565655  0.25757995  1  -1.180331  0.068117  -0.324301  -0.563959  0.038847  2.412366  0.063
O  O273  1  0.12382407  0.25758010  0.63434548  1  -1.180425  0.068112  -0.324252  -0.563912  0.038845  2.412457  0.063
O  O274  1  0.87617409  0.86565020  0.24241844  1  -1.180401  0.068131  -0.32419  -0.563891  0.038855  2.412403  0.063
O  O275  1  0.12382714  0.24241462  0.13434807  1  -1.180449  0.068123  -0.324276  -0.564025  0.03885  2.412418  0.063
O  O276  1  0.87617485  0.13434499  0.75757921  1  -1.180325  0.068126  -0.324303  -0.564004  0.038852  2.412272  0.063
O  O277  1  0.12382887  0.75758209  0.86565597  1  -1.180496  0.068091  -0.324253  -0.563936  0.038833  2.412649  0.063
O  O278  1  0.75954287  0.58221823  0.83543962  1  -1.181338  -0.001181  -0.339162  -0.553659  -0.002068  2.121653  -0.001
O  O279  1  0.24046640  0.83544013  0.41777951  1  -1.181185  -0.00118  -0.339214  -0.55375  -0.002066  2.121263  -0.001
O  O280  1  0.75953872  0.41778711  0.16455938  1  -1.181216  -0.001181  -0.339262  -0.553763  -0.002067  2.121226  -0.001
O  O281  1  0.24045695  0.16455483  0.58222138  1  -1.181317  -0.00118  -0.339254  -0.553798  -0.002067  2.121098  -0.001
O  O282  1  0.75954606  0.91777832  0.33544334  1  -1.181343  -0.001182  -0.33924  -0.553726  -0.002068  2.121389  -0.001
O  O283  1  0.24046337  0.33543815  0.08221673  1  -1.181149  -0.001181  -0.339263  -0.553809  -0.002067  2.121343  -0.001
O  O284  1  0.75954292  0.08222223  0.66455746  1  -1.181378  -0.001181  -0.339176  -0.553651  -0.002068  2.121492  -0.001
O  O285  1  0.24046163  0.66455561  0.91778055  1  -1.181133  -0.001178  -0.339312  -0.553989  -0.002064  2.120816  -0.001
