# generated using pymatgen
data_Co3H16C30(NO)8
_symmetry_space_group_name_H-M   'P 1'
_cell_length_a   9.17742051
_cell_length_b   10.67395272
_cell_length_c   11.05525112
_cell_angle_alpha   63.30339969
_cell_angle_beta   86.68602989
_cell_angle_gamma   74.04314673
_symmetry_Int_Tables_number   1
_chemical_formula_structural   Co3H16C30(NO)8
_chemical_formula_sum   'Co3 H16 C30 N8 O8'
_cell_volume   927.51436930
_cell_formula_units_Z   1
loop_
 _symmetry_equiv_pos_site_id
 _symmetry_equiv_pos_as_xyz
  1  'x, y, z'
loop_
 _atom_site_type_symbol
 _atom_site_label
 _atom_site_symmetry_multiplicity
 _atom_site_fract_x
 _atom_site_fract_y
 _atom_site_fract_z
 _atom_site_occupancy
 _atom_site_pbe_cm5_charge
 _atom_site_pbe_ddec_charge
 _atom_site_pbe_ddec_spin_density
 _atom_site_pbe_ddec_sum_bond_order
 _atom_site_pbe_magmom
Co  Co0  1  0.49969466  0.49917328  0.50059911  1  0.721075  1.016095  -2.875956  2.459055  -2.629
Co  Co1  1  0.21666436  0.27046144  0.47899648  1  0.678671  0.817493  -2.755623  2.579393  -2.521
Co  Co2  1  0.78316989  0.72949945  0.52123466  1  0.680426  0.820785  2.824352  2.576694  2.519
H  H3  1  0.59844348  0.21821913  0.89256156  1  0.105566  0.113323  -0.000132  1.007543  0.0
H  H4  1  0.40180193  0.78169394  0.10786153  1  0.105803  0.1138  -0.000142  1.00783  0.0
H  H5  1  0.67510088  0.03676075  0.13661227  1  0.100931  0.103777  -2.1e-05  1.018846  0.0
H  H6  1  0.32533915  0.96294589  0.86361148  1  0.100783  0.103619  1.2e-05  1.018247  0.0
H  H7  1  0.63903324  0.53236441  0.16603855  1  0.10566  0.11512  2.2e-05  0.999285  0.0
H  H8  1  0.36147500  0.46723348  0.83406041  1  0.105423  0.11494  -4.8e-05  0.999813  0.0
H  H9  1  0.70711249  0.62107689  0.92346658  1  0.102147  0.106465  1.7e-05  1.005404  0.0
H  H10  1  0.29341283  0.37846759  0.07663192  1  0.102004  0.106363  -4.4e-05  1.005227  0.0
H  H11  1  0.89420413  0.22469974  0.30125717  1  0.11648  0.12569  0.000411  0.977652  0.0
H  H12  1  0.10554596  0.77535624  0.69861336  1  0.116383  0.125451  -0.0004  0.978181  0.0
H  H13  1  0.85898751  0.99371803  0.31641258  1  0.121496  0.090448  0.000821  0.985835  0.001
H  H14  1  0.14091732  0.00621912  0.68363623  1  0.121331  0.089931  -0.000823  0.985831  -0.001
H  H15  1  0.69086812  0.88458444  0.69510539  1  0.120357  0.095568  0.00048  1.000234  0.001
H  H16  1  0.30878935  0.11562010  0.30480435  1  0.120315  0.095284  -0.000463  1.000623  -0.001
H  H17  1  0.71780260  0.11244974  0.69576464  1  0.112668  0.123649  0.000499  1.013075  0.0
H  H18  1  0.28204256  0.88762222  0.30417841  1  0.112614  0.123651  -0.000343  1.013359  0.0
C  C19  1  0.41205835  0.20962983  0.71803563  1  0.219441  0.592587  -0.000258  4.161601  0.0
C  C20  1  0.58870301  0.78992175  0.28208338  1  0.221379  0.595285  0.002066  4.160971  0.0
C  C21  1  0.45694960  0.10145837  0.86400465  1  -0.018695  -0.038373  -0.005843  3.96973  -0.009
C  C22  1  0.54327215  0.89846353  0.13622857  1  -0.018544  -0.037349  0.002392  3.969513  0.003
C  C23  1  0.55655222  0.12202587  0.94056818  1  -0.087941  -0.101079  0.000161  3.988309  0.0
C  C24  1  0.44357480  0.87794668  0.05973386  1  -0.087736  -0.101849  0.00045  3.99026  0.0
C  C25  1  0.59904471  0.02133972  0.07568275  1  -0.088552  -0.096486  -0.000245  3.982504  -0.001
C  C26  1  0.40117584  0.97855925  0.92457398  1  -0.088455  -0.095902  0.000898  3.982057  0.001
C  C27  1  0.42313381  0.39795125  0.28035069  1  0.221242  0.59972  -0.002692  4.149752  -0.003
C  C28  1  0.57684635  0.60234940  0.71962103  1  0.222244  0.600764  -0.001859  4.148973  -0.006
C  C29  1  0.46280855  0.44986607  0.13559880  1  -0.018671  -0.035332  -0.005158  3.96319  -0.008
C  C30  1  0.53744978  0.55000527  0.86445629  1  -0.018687  -0.035629  0.002167  3.96438  0.003
C  C31  1  0.57978820  0.51807894  0.09245970  1  -0.08465  -0.097855  -3.1e-05  3.982142  0.0
C  C32  1  0.42057650  0.48166948  0.90761411  1  -0.084247  -0.097664  -4.5e-05  3.982592  0.0
C  C33  1  0.61666081  0.56772463  0.95804532  1  -0.088072  -0.100242  -0.000619  3.984571  -0.001
C  C34  1  0.38373056  0.43199086  0.04203954  1  -0.088049  -0.100218  0.000469  3.98368  0.001
C  C35  1  0.94538196  0.46343336  0.50277319  1  0.208999  0.223296  -0.004134  4.20261  -0.006
C  C36  1  0.05391111  0.53711379  0.49655206  1  0.209183  0.222806  0.001898  4.203647  0.002
C  C37  1  0.83889203  0.31276620  0.50167592  1  0.219905  0.293018  -0.001765  3.955578  -0.003
C  C38  1  0.16068461  0.68745366  0.49817152  1  0.220013  0.292339  0.000952  3.955921  0.001
C  C39  1  0.81083207  0.18543601  0.49930573  1  0.024304  0.084555  -0.004021  3.985492  -0.006
C  C40  1  0.18880176  0.81478220  0.50052782  1  0.024477  0.085696  0.005288  3.984077  0.006
C  C41  1  0.84929864  0.15202603  0.39052423  1  -0.075523  -0.156852  0.00369  3.942333  0.005
C  C42  1  0.15037295  0.84810794  0.60934645  1  -0.07559  -0.157169  -0.002822  3.943066  -0.005
C  C43  1  0.82969014  0.02439345  0.39831796  1  0.047721  0.091331  -0.002297  3.961603  -0.004
C  C44  1  0.16999506  0.97571950  0.60159819  1  0.048157  0.092097  0.00274  3.960743  0.004
C  C45  1  0.73493891  0.96365782  0.61018059  1  0.05025  0.097106  -0.002713  3.936685  -0.004
C  C46  1  0.26465910  0.03655618  0.38970450  1  0.050656  0.097665  0.002889  3.935679  0.004
C  C47  1  0.74987500  0.08970795  0.60983939  1  -0.075154  -0.153274  0.00375  3.922325  0.005
C  C48  1  0.24979870  0.91047711  0.39002094  1  -0.074894  -0.152928  -0.00243  3.920959  -0.004
N  N49  1  0.97728636  0.34182105  0.48486685  1  -0.345583  -0.43555  -0.031793  3.414698  -0.04
N  N50  1  0.02206164  0.65888323  0.51420437  1  -0.344878  -0.434752  0.030563  3.416287  0.037
N  N51  1  0.80363548  0.50956460  0.52764208  1  -0.22594  -0.229456  0.025455  3.430737  0.042
N  N52  1  0.19586250  0.49040361  0.47251213  1  -0.227243  -0.230834  -0.023756  3.430465  -0.039
N  N53  1  0.73311018  0.41299531  0.52679622  1  -0.233599  -0.241274  -0.028933  3.43595  -0.045
N  N54  1  0.26648177  0.58685750  0.47363279  1  -0.232411  -0.238596  -0.025027  3.432278  -0.037
N  N55  1  0.77646183  0.92948950  0.50725829  1  -0.335298  -0.253048  0.036615  3.6191  0.053
N  N56  1  0.22310530  0.07071394  0.49263378  1  -0.335592  -0.252532  -0.0344  3.61884  -0.051
O  O57  1  0.47008601  0.31499691  0.66664633  1  -0.295723  -0.560675  -0.041764  2.427951  -0.066
O  O58  1  0.52894964  0.68584014  0.33411814  1  -0.296861  -0.562656  -0.033339  2.418597  -0.05
O  O59  1  0.31948328  0.18103527  0.65742826  1  -0.321472  -0.555879  -0.05563  2.447971  -0.087
O  O60  1  0.68374327  0.81721330  0.34155753  1  -0.323049  -0.557861  0.057853  2.445819  0.087
O  O61  1  0.49791012  0.41468543  0.36140383  1  -0.300933  -0.570801  -0.032016  2.410645  -0.049
O  O62  1  0.50189571  0.58648313  0.63809868  1  -0.30145  -0.571351  -0.026099  2.40639  -0.038
O  O63  1  0.31525065  0.33499145  0.31109065  1  -0.321897  -0.557734  -0.05988  2.42444  -0.092
O  O64  1  0.68480600  0.66525544  0.68903431  1  -0.322718  -0.55852  0.056653  2.424834  0.084
