# generated using pymatgen
data_ZnTeH4CN
_symmetry_space_group_name_H-M   'P 1'
_cell_length_a   6.91999183
_cell_length_b   6.99207659
_cell_length_c   17.15086815
_cell_angle_alpha   90.00005515
_cell_angle_beta   89.99953853
_cell_angle_gamma   90.00094635
_symmetry_Int_Tables_number   1
_chemical_formula_structural   ZnTeH4CN
_chemical_formula_sum   'Zn8 Te8 H32 C8 N8'
_cell_volume   829.84669123
_cell_formula_units_Z   8
loop_
 _symmetry_equiv_pos_site_id
 _symmetry_equiv_pos_as_xyz
  1  'x, y, z'
loop_
 _atom_site_type_symbol
 _atom_site_label
 _atom_site_symmetry_multiplicity
 _atom_site_fract_x
 _atom_site_fract_y
 _atom_site_fract_z
 _atom_site_occupancy
 _atom_site_hle17_bader_spin_density
 _atom_site_hle17_ddec_charge
 _atom_site_hle17_ddec_spin_density
 _atom_site_hle17_ddec_sum_bond_order
 _atom_site_hle17_magmom
 _atom_site_hse06_10hf_bader_spin_density
 _atom_site_hse06_10hf_ddec_charge
 _atom_site_hse06_10hf_ddec_spin_density
 _atom_site_hse06_10hf_ddec_sum_bond_order
 _atom_site_hse06_10hf_magmom
 _atom_site_hse06_bader_spin_density
 _atom_site_hse06_ddec_charge
 _atom_site_hse06_ddec_spin_density
 _atom_site_hse06_ddec_sum_bond_order
 _atom_site_hse06_magmom
 _atom_site_pbe_bader_spin_density
 _atom_site_pbe_cm5_charge
 _atom_site_pbe_ddec_charge
 _atom_site_pbe_ddec_spin_density
 _atom_site_pbe_ddec_sum_bond_order
 _atom_site_pbe_magmom
Zn  Zn0  1  0.78799058  0.89877726  0.69654463  1  0  0.56947  0  2.252351  0  0  0.442922  0  2.686206  0  0  0.482076  0  2.658325  0  0  0.305841  0.416705  0  2.704188  0
Zn  Zn1  1  0.21201985  0.60122387  0.19654076  1  0  0.569507  0  2.2524  0  0  0.442997  0  2.68622  0  0  0.482159  0  2.658335  0  0  0.305861  0.416789  0  2.704195  0
Zn  Zn2  1  0.71201651  0.39878885  0.30345671  1  0  0.569509  0  2.252303  0  0  0.442987  0  2.686147  0  0  0.482143  0  2.658263  0  0  0.305854  0.416772  0  2.704128  0
Zn  Zn3  1  0.28799111  0.10121488  0.80345671  1  0  0.569473  0  2.252427  0  0  0.442948  0  2.686247  0  0  0.482103  0  2.658366  0  0  0.305844  0.416734  0  2.704233  0
Zn  Zn4  1  0.21201050  0.10122660  0.30345652  1  0  0.569596  0  2.252435  0  0  0.443046  0  2.686357  0  0  0.482205  0  2.658471  0  0  0.305898  0.416844  0  2.704337  0
Zn  Zn5  1  0.78799279  0.39877570  0.80345573  1  0  0.569626  0  2.252407  0  0  0.443067  0  2.686311  0  0  0.482219  0  2.658425  0  0  0.305907  0.416847  0  2.704291  0
Zn  Zn6  1  0.28799180  0.60121358  0.69654386  1  0  0.569542  0  2.252414  0  0  0.442998  0  2.686252  0  0  0.482149  0  2.658368  0  0  0.305883  0.41678  0  2.704241  0
Zn  Zn7  1  0.71201286  0.89878755  0.19654444  1  0  0.569562  0  2.252425  0  0  0.443045  0  2.686242  0  0  0.482202  0  2.658354  0  0  0.305888  0.416839  0  2.704224  0
Te  Te8  1  0.91571768  0.54667256  0.67183650  1  0  -0.692591  0  2.279139  0  0  -0.59447  0  2.766414  0  0  -0.632115  0  2.739966  0  0  -0.283302  -0.568186  0  2.784115  0
Te  Te9  1  0.08428877  0.95332709  0.17183681  1  0  -0.692642  0  2.279118  0  0  -0.594514  0  2.76639  0  0  -0.632165  0  2.739945  0  0  -0.283308  -0.568245  0  2.784095  0
Te  Te10  1  0.58428053  0.04668359  0.32816352  1  0  -0.692557  0  2.27897  0  0  -0.594458  0  2.766218  0  0  -0.632107  0  2.739773  0  0  -0.283319  -0.568195  0  2.783931  0
Te  Te11  1  0.41571952  0.45331877  0.82816256  1  0  -0.692563  0  2.279067  0  0  -0.594443  0  2.766304  0  0  -0.632092  0  2.739862  0  0  -0.283302  -0.568162  0  2.784008  0
Te  Te12  1  0.08428195  0.45332987  0.32816232  1  0  -0.692573  0  2.279163  0  0  -0.594475  0  2.76641  0  0  -0.632132  0  2.739975  0  0  -0.283314  -0.568201  0  2.784099  0
Te  Te13  1  0.91571520  0.04667105  0.82816376  1  0  -0.692579  0  2.279132  0  0  -0.594449  0  2.766393  0  0  -0.632098  0  2.73995  0  0  -0.283286  -0.568164  0  2.784092  0
Te  Te14  1  0.41571766  0.95331741  0.67183763  1  0  -0.692507  0  2.279093  0  0  -0.59443  0  2.76636  0  0  -0.632075  0  2.739914  0  0  -0.283314  -0.568149  0  2.784061  0
Te  Te15  1  0.58428590  0.54668223  0.17183568  1  0  -0.69253  0  2.279113  0  0  -0.594436  0  2.766315  0  0  -0.632088  0  2.739874  0  0  -0.283311  -0.568163  0  2.784012  0
H  H16  1  0.88502577  0.18709666  0.60386500  1  0  0.269141  0  0.932756  0  0  0.26106  0  0.991609  0  0  0.267721  0  0.986868  0  0  0.263167  0.255812  0  0.995932  0
H  H17  1  0.11498038  0.31290665  0.10386046  1  0  0.269176  0  0.932707  0  0  0.261117  0  0.991532  0  0  0.267779  0  0.986786  0  0  0.263213  0.255873  0  0.995851  0
H  H18  1  0.61497339  0.68709022  0.39614033  1  0  0.269041  0  0.932907  0  0  0.261007  0  0.991691  0  0  0.267662  0  0.986942  0  0  0.263256  0.255764  0  0.996005  0
H  H19  1  0.38502408  0.81289704  0.89613943  1  0  0.269054  0  0.932863  0  0  0.261004  0  0.991655  0  0  0.267666  0  0.986911  0  0  0.263175  0.255762  0  0.995967  0
H  H20  1  0.11498398  0.81291722  0.39614023  1  0  0.269124  0  0.932863  0  0  0.261085  0  0.991641  0  0  0.267744  0  0.9869  0  0  0.26324  0.255844  0  0.995966  0
H  H21  1  0.88501926  0.68708720  0.89613894  1  0  0.269115  0  0.932823  0  0  0.261058  0  0.991609  0  0  0.267719  0  0.986864  0  0  0.263222  0.25581  0  0.995927  0
H  H22  1  0.38502625  0.31290220  0.60386141  1  0  0.269045  0  0.932931  0  0  0.260995  0  0.99172  0  0  0.26765  0  0.986976  0  0  0.263206  0.255752  0  0.996027  0
H  H23  1  0.61497990  0.18710110  0.10385997  1  0  0.269039  0  0.932829  0  0  0.260997  0  0.991633  0  0  0.267656  0  0.986892  0  0  0.263157  0.255756  0  0.995949  0
H  H24  1  0.07210010  0.05229187  0.62521194  1  0  0.262104  0  0.959556  0  0  0.254274  0  1.019074  0  0  0.260667  0  1.015142  0  0  0.253632  0.24962  0  1.022056  0
H  H25  1  0.92790430  0.44771005  0.12521107  1  0  0.262043  0  0.959689  0  0  0.254247  0  1.019148  0  0  0.26064  0  1.015219  0  0  0.253605  0.249594  0  1.022131  0
H  H26  1  0.42790425  0.55229326  0.37479075  1  0  0.262093  0  0.959685  0  0  0.254268  0  1.019187  0  0  0.260664  0  1.015251  0  0  0.2536  0.249613  0  1.022168  0
H  H27  1  0.57208918  0.94770825  0.87479321  1  0  0.262404  0  0.959395  0  0  0.254497  0  1.019046  0  0  0.260888  0  1.015112  0  0  0.253699  0.249846  0  1.022029  0
H  H28  1  0.92790387  0.94771485  0.37479154  1  0  0.262356  0  0.959455  0  0  0.254507  0  1.019005  0  0  0.260899  0  1.015067  0  0  0.253666  0.249856  0  1.021991  0
H  H29  1  0.07209679  0.55228523  0.87479067  1  0  0.262376  0  0.959441  0  0  0.254513  0  1.018993  0  0  0.260906  0  1.015054  0  0  0.253687  0.249855  0  1.021979  0
H  H30  1  0.57210261  0.44770631  0.62520982  1  0  0.262218  0  0.959492  0  0  0.254346  0  1.019079  0  0  0.260739  0  1.015145  0  0  0.253606  0.24969  0  1.022064  0
H  H31  1  0.42790757  0.05229275  0.12521144  1  0  0.262433  0  0.959423  0  0  0.254519  0  1.0191  0  0  0.260909  0  1.015163  0  0  0.253707  0.249867  0  1.022085  0
H  H32  1  0.77959806  0.97092579  0.50410134  1  0  0.05498  0  0.939642  0  0  0.069468  0  1.009232  0  0  0.070727  0  1.008248  0  0  0.089934  0.068425  0  1.010117  0
H  H33  1  0.22040502  0.52907921  0.00409624  1  0  0.054996  0  0.939622  0  0  0.069453  0  1.009289  0  0  0.070715  0  1.008303  0  0  0.089913  0.068408  0  1.010181  0
H  H34  1  0.72042327  0.47093078  0.49590294  1  0  0.054878  0  0.939443  0  0  0.069382  0  1.009089  0  0  0.070638  0  1.0081  0  0  0.089873  0.068332  0  1.009997  0
H  H35  1  0.27957871  0.02907908  0.99590236  1  0  0.054932  0  0.939604  0  0  0.069373  0  1.009281  0  0  0.07063  0  1.008292  0  0  0.089892  0.068332  0  1.010164  0
H  H36  1  0.22044060  0.02909523  0.49590389  1  0  0.054758  0  0.939276  0  0  0.069293  0  1.0089  0  0  0.070551  0  1.007912  0  0  0.089831  0.068252  0  1.009791  0
H  H37  1  0.77956282  0.47090891  0.99590141  1  0  0.054831  0  0.939382  0  0  0.069281  0  1.00907  0  0  0.070543  0  1.00808  0  0  0.089873  0.068244  0  1.009957  0
H  H38  1  0.27957203  0.52906450  0.50409821  1  0  0.0549  0  0.939385  0  0  0.069395  0  1.009026  0  0  0.070653  0  1.008036  0  0  0.08985  0.068313  0  1.009954  0
H  H39  1  0.72042238  0.97091190  0.00409879  1  0  0.0549  0  0.939406  0  0  0.069339  0  1.009043  0  0  0.070598  0  1.008055  0  0  0.089871  0.068303  0  1.009928  0
H  H40  1  0.95463562  0.80293708  0.53598155  1  0  0.05621  0  0.950578  0  0  0.073538  0  1.015401  0  0  0.074572  0  1.015003  0  0  0.085398  0.07261  0  1.01594  0
H  H41  1  0.04536266  0.69706657  0.03598132  1  0  0.056179  0  0.950637  0  0  0.073535  0  1.015452  0  0  0.07457  0  1.01506  0  0  0.085383  0.072621  0  1.015977  0
H  H42  1  0.54537851  0.30293634  0.46401567  1  0  0.056224  0  0.950676  0  0  0.073577  0  1.015484  0  0  0.07461  0  1.015085  0  0  0.085381  0.072698  0  1.015977  0
H  H43  1  0.45463115  0.19706059  0.96401793  1  0  0.056198  0  0.950625  0  0  0.07355  0  1.015426  0  0  0.07458  0  1.015031  0  0  0.085394  0.072624  0  1.015963  0
H  H44  1  0.04535968  0.19709110  0.46401436  1  0  0.056089  0  0.95032  0  0  0.073408  0  1.015205  0  0  0.074457  0  1.014788  0  0  0.085306  0.072469  0  1.015757  0
H  H45  1  0.95463408  0.30291441  0.96401225  1  0  0.056043  0  0.950381  0  0  0.073385  0  1.015227  0  0  0.074421  0  1.014829  0  0  0.085319  0.072452  0  1.015781  0
H  H46  1  0.45462257  0.69706180  0.53598548  1  0  0.056191  0  0.95061  0  0  0.073514  0  1.015448  0  0  0.074547  0  1.015049  0  0  0.085341  0.07259  0  1.015982  0
H  H47  1  0.54535693  0.80292897  0.03598905  1  0  0.056136  0  0.950586  0  0  0.073437  0  1.015406  0  0  0.074472  0  1.015006  0  0  0.085326  0.072497  0  1.015964  0
C  C48  1  0.92640863  0.95687966  0.52818028  1  0  0.044906  0  3.644982  0  0  -0.010013  0  3.904417  0  0  -0.006555  0  3.916941  0  0  -0.085241  -0.012256  0  3.895825  0
C  C49  1  0.07358254  0.54311395  0.02817346  1  0  0.044699  0  3.644965  0  0  -0.010262  0  3.904513  0  0  -0.00681  0  3.917044  0  0  -0.085341  -0.012512  0  3.895924  0
C  C50  1  0.57357199  0.45688797  0.47181933  1  0  0.044835  0  3.644462  0  0  -0.010158  0  3.904032  0  0  -0.006682  0  3.916523  0  0  -0.085236  -0.012441  0  3.89546  0
C  C51  1  0.42640142  0.04311040  0.97182281  1  0  0.044929  0  3.6447  0  0  -0.010017  0  3.904163  0  0  -0.006543  0  3.916658  0  0  -0.08527  -0.012263  0  3.895581  0
C  C52  1  0.07355054  0.04308129  0.47182495  1  0  0.044935  0  3.643656  0  0  -0.009991  0  3.903203  0  0  -0.006527  0  3.915697  0  0  -0.085213  -0.012227  0  3.894643  0
C  C53  1  0.92643299  0.45691851  0.97182011  1  0  0.045136  0  3.644114  0  0  -0.00972  0  3.903573  0  0  -0.006253  0  3.916088  0  0  -0.085148  -0.011986  0  3.895018  0
C  C54  1  0.42643342  0.54310302  0.52817774  1  0  0.044805  0  3.64405  0  0  -0.010095  0  3.903468  0  0  -0.006626  0  3.915963  0  0  -0.085212  -0.012321  0  3.894911  0
C  C55  1  0.57355631  0.95690490  0.02817717  1  0  0.044775  0  3.644089  0  0  -0.009961  0  3.90338  0  0  -0.006495  0  3.915876  0  0  -0.085188  -0.012207  0  3.89483  0
N  N56  1  0.93092924  0.04707138  0.60576041  1  0  -0.564137  0  3.181335  0  0  -0.49669  0  3.410276  0  0  -0.517009  0  3.411248  0  0  -0.629379  -0.482636  0  3.409892  0
N  N57  1  0.06908266  0.45292477  0.10576195  1  0  -0.564034  0  3.181217  0  0  -0.496638  0  3.410266  0  0  -0.516957  0  3.411235  0  0  -0.629354  -0.482592  0  3.409893  0
N  N58  1  0.56908487  0.54710140  0.39423495  1  0  -0.563993  0  3.181241  0  0  -0.496601  0  3.4103  0  0  -0.516916  0  3.411257  0  0  -0.629432  -0.482541  0  3.409928  0
N  N59  1  0.43093285  0.95291875  0.89423509  1  0  -0.564324  0  3.181301  0  0  -0.496869  0  3.410254  0  0  -0.51719  0  3.411217  0  0  -0.629426  -0.482822  0  3.40988  0
N  N60  1  0.06908340  0.95291817  0.39422092  1  0  -0.564404  0  3.181057  0  0  -0.497003  0  3.410065  0  0  -0.517326  0  3.41102  0  0  -0.629458  -0.482975  0  3.409721  0
N  N61  1  0.93092132  0.54708195  0.89422405  1  0  -0.564482  0  3.181338  0  0  -0.497024  0  3.410286  0  0  -0.517343  0  3.411242  0  0  -0.629496  -0.482945  0  3.409896  0
N  N62  1  0.43091621  0.45290103  0.60577378  1  0  -0.564194  0  3.180936  0  0  -0.496712  0  3.409849  0  0  -0.517027  0  3.410807  0  0  -0.629377  -0.482646  0  3.409453  0
N  N63  1  0.56907112  0.04708511  0.10577714  1  0  -0.564406  0  3.181183  0  0  -0.496998  0  3.410064  0  0  -0.517315  0  3.411025  0  0  -0.629474  -0.482959  0  3.409704  0
