# generated using pymatgen
data_CuH54(C25O8)2
_symmetry_space_group_name_H-M   'P 1'
_cell_length_a   8.44700393
_cell_length_b   10.04721956
_cell_length_c   14.76522688
_cell_angle_alpha   103.58199352
_cell_angle_beta   90.66492618
_cell_angle_gamma   107.29292027
_symmetry_Int_Tables_number   1
_chemical_formula_structural   CuH54(C25O8)2
_chemical_formula_sum   'Cu1 H54 C50 O16'
_cell_volume   1158.52260566
_cell_formula_units_Z   1
loop_
 _symmetry_equiv_pos_site_id
 _symmetry_equiv_pos_as_xyz
  1  'x, y, z'
loop_
 _atom_site_type_symbol
 _atom_site_label
 _atom_site_symmetry_multiplicity
 _atom_site_fract_x
 _atom_site_fract_y
 _atom_site_fract_z
 _atom_site_occupancy
 _atom_site_hle17_ddec_charge
 _atom_site_hle17_ddec_spin_density
 _atom_site_hle17_ddec_sum_bond_order
 _atom_site_hle17_magmom
 _atom_site_hse06_10hf_ddec_charge
 _atom_site_hse06_10hf_ddec_spin_density
 _atom_site_hse06_10hf_ddec_sum_bond_order
 _atom_site_hse06_10hf_magmom
 _atom_site_hse06_ddec_charge
 _atom_site_hse06_ddec_spin_density
 _atom_site_hse06_ddec_sum_bond_order
 _atom_site_hse06_magmom
 _atom_site_pbe_cm5_charge
 _atom_site_pbe_ddec_charge
 _atom_site_pbe_ddec_spin_density
 _atom_site_pbe_ddec_sum_bond_order
 _atom_site_pbe_magmom
Cu  Cu0  1  0.00000351  0.49999235  0.49999642  1  0.955751  0.679547  1.73546  0.502  0.954267  0.777635  2.117265  0.625  1.040691  0.847032  2.057275  0.718  0.713399  0.896321  0.72794  2.168516  0.564
H  H1  1  0.59073649  0.31668604  0.62701243  1  0.078443  0.00022  0.951333  0.0  0.094789  0.000199  1.014772  0.0  0.096473  0.000129  1.014001  0.0  0.09558  0.09357  0.000266  1.015374  0.0
H  H2  1  0.40927597  0.68331379  0.37299091  1  0.078485  0.000219  0.951207  0.0  0.094723  0.000199  1.014785  0.0  0.096408  0.000129  1.014014  0.0  0.09555  0.093503  0.000266  1.015379  0.0
H  H3  1  0.43142853  0.37801443  0.58899125  1  0.075821  -1.3e-05  0.943812  0.0  0.093727  -1.2e-05  1.004684  0.0  0.094086  -8e-06  1.00572  0.0  0.091013  0.093514  -9e-06  1.003742  0.0
H  H4  1  0.56857996  0.62198116  0.41101345  1  0.075828  -9e-06  0.943865  0.0  0.093764  -1.2e-05  1.004694  0.0  0.094128  -8e-06  1.005721  0.0  0.09102  0.093554  -9e-06  1.003754  0.0
H  H5  1  0.39312069  0.20575205  0.43455203  1  0.099708  0.000448  0.93341  0.0  0.116252  0.000577  0.989004  0.001  0.117511  0.000423  0.989424  0.0  0.096849  0.115287  0.000681  0.988732  0.001
H  H6  1  0.60688195  0.79425006  0.56545222  1  0.099633  0.00044  0.933479  0.0  0.116195  0.000576  0.98903  0.001  0.117448  0.000423  0.989446  0.0  0.096805  0.115228  0.000681  0.988762  0.001
H  H7  1  0.52748978  0.12162888  0.47376706  1  0.086059  -0.000931  0.94901  -0.001  0.101488  -0.000429  1.015681  0.0  0.10298  -0.000394  1.016143  0.0  0.095667  0.100013  -0.000444  1.016247  0.0
H  H8  1  0.47251326  0.87837103  0.52623483  1  0.086062  -0.000944  0.949022  -0.001  0.101525  -0.000429  1.015648  0.0  0.103015  -0.000394  1.016099  0.0  0.095671  0.10005  -0.000444  1.016217  0.0
H  H9  1  0.53278688  0.31372557  0.32285989  1  0.118205  -0.000754  0.994069  -0.001  0.128914  -0.000327  1.057382  0.0  0.131384  -0.000288  1.060354  0.0  0.09424  0.127123  -0.000342  1.055522  0.0
H  H10  1  0.46720328  0.68629066  0.67714294  1  0.11826  -0.000754  0.993888  -0.001  0.128964  -0.000328  1.057234  0.0  0.131435  -0.000288  1.060205  0.0  0.094276  0.127172  -0.000342  1.055378  0.0
H  H11  1  0.72515071  0.59115562  0.26402406  1  0.094618  -0.000705  0.947206  -0.001  0.112657  -0.000244  1.008985  0.0  0.113868  -0.000252  1.010175  0.0  0.100222  0.111417  -0.000233  1.008779  0.0
H  H12  1  0.27485352  0.40884425  0.73597648  1  0.094626  -0.00072  0.947229  -0.001  0.112678  -0.000243  1.00901  0.0  0.113888  -0.000253  1.010199  0.0  0.100233  0.111433  -0.000233  1.008802  0.0
H  H13  1  0.64337576  0.40993266  0.20044158  1  0.096465  0.000246  0.929551  0.0  0.113681  0.00042  0.986311  0.0  0.11504  0.000292  0.986562  0.0  0.09736  0.112685  0.000506  0.986216  0.0
H  H14  1  0.35662575  0.59006932  0.79955586  1  0.09645  0.000237  0.929561  0.0  0.113677  0.00042  0.98633  0.0  0.115036  0.000292  0.986581  0.0  0.097349  0.11268  0.000506  0.986234  0.0
H  H15  1  0.01718132  0.57566911  0.22931779  1  0.075024  0.000228  0.948496  0.0  0.090759  0.000216  1.013588  0.0  0.092819  0.000143  1.01184  0.0  0.092385  0.089226  0.000285  1.014919  0.0
H  H16  1  0.98282019  0.42433288  0.77068033  1  0.075025  0.000229  0.948499  0.0  0.090749  0.000216  1.013561  0.0  0.092807  0.000143  1.011815  0.0  0.092377  0.089217  0.000285  1.014895  0.0
H  H17  1  0.91904708  0.41054022  0.14609004  1  0.081411  -1.1e-05  0.91536  0.0  0.102004  -0.0  0.966805  0.0  0.102916  -2e-06  0.966999  0.0  0.095342  0.101372  2e-06  0.966559  0.0
H  H18  1  0.08095600  0.58946285  0.85390825  1  0.081437  -1.5e-05  0.91534  0.0  0.101995  -1e-06  0.966793  0.0  0.102903  -1e-06  0.966993  0.0  0.09536  0.101369  2e-06  0.966546  0.0
H  H19  1  0.13695711  0.22354351  0.56825934  1  0.134484  -1.1e-05  0.966067  0.0  0.144398  -1e-06  1.027339  0.0  0.147459  1e-06  1.02604  0.0  0.109765  0.142162  -5e-06  1.028239  0.0
H  H20  1  0.86305459  0.77645735  0.43174143  1  0.134464  -1.6e-05  0.966268  0.0  0.144394  -0.0  1.027516  0.0  0.147457  1e-06  1.026217  0.0  0.109757  0.14216  -5e-06  1.028402  0.0
H  H21  1  0.30780132  0.90971401  0.73825426  1  0.103202  -4e-06  0.962208  0.0  0.114424  -1.8e-05  1.022193  0.0  0.11713  -1.3e-05  1.020968  0.0  0.102971  0.112566  -2.4e-05  1.023124  0.0
H  H22  1  0.69220207  0.09028051  0.26174818  1  0.1032  -6e-06  0.962131  0.0  0.114376  -1.8e-05  1.022148  0.0  0.117085  -1.2e-05  1.020921  0.0  0.10297  0.112519  -2.4e-05  1.023077  0.0
H  H23  1  0.52468875  0.09948354  0.68483121  1  0.09027  -3.4e-05  0.963746  0.0  0.105144  -7e-06  1.018248  0.0  0.107922  -6e-06  1.017374  0.0  0.098599  0.10325  -9e-06  1.018904  0.0
H  H24  1  0.47531935  0.90051424  0.31517448  1  0.09027  -3.4e-05  0.96379  0.0  0.105106  -7e-06  1.018335  0.0  0.107878  -6e-06  1.01746  0.0  0.09859  0.103218  -9e-06  1.018991  0.0
H  H25  1  0.71910188  0.41117226  0.01492722  1  0.121367  -1.5e-05  0.963698  0.0  0.131751  6e-06  1.02642  0.0  0.135169  4e-06  1.024506  0.0  0.106417  0.129285  8e-06  1.027941  0.0
H  H26  1  0.28089411  0.58883095  0.98507440  1  0.121358  -1e-05  0.963664  0.0  0.131727  6e-06  1.026404  0.0  0.135138  3e-06  1.02451  0.0  0.106409  0.129262  8e-06  1.02793  0.0
H  H27  1  0.96861573  0.94357360  0.09218724  1  0.120924  1e-06  0.941959  0.0  0.127298  -0.0  1.006896  0.0  0.131241  -0.0  1.003697  0.0  0.106036  0.124502  -1e-06  1.009044  0.0
H  H28  1  0.03136529  0.05642766  0.90781595  1  0.120901  1e-06  0.941874  0.0  0.127268  -0.0  1.006833  0.0  0.131221  -0.0  1.003624  0.0  0.106024  0.124469  -0.0  1.008988  0.0
H  H29  1  0.03342476  0.80334330  0.19888979  1  0.093095  -2.4e-05  0.975971  0.0  0.101298  -8e-06  1.042062  0.0  0.104442  -5e-06  1.041011  0.0  0.094875  0.099035  -1.1e-05  1.042946  0.0
H  H30  1  0.96657401  0.19666087  0.80110794  1  0.093071  -3.5e-05  0.975962  0.0  0.101325  -8e-06  1.041998  0.0  0.104468  -5e-06  1.040948  0.0  0.094875  0.099057  -1.1e-05  1.042891  0.0
H  H31  1  0.70181624  0.09876995  0.58691374  1  0.08076  2.7e-05  0.97114  0.0  0.098572  3.9e-05  1.038343  0.0  0.09871  2.1e-05  1.038399  0.0  0.097976  0.098328  5.5e-05  1.038545  0.0
H  H32  1  0.29819508  0.90123305  0.41308600  1  0.080734  2.7e-05  0.971346  0.0  0.098556  3.9e-05  1.038521  0.0  0.098696  2.1e-05  1.038577  0.0  0.097991  0.098316  5.4e-05  1.038714  0.0
H  H33  1  0.87294654  0.11938460  0.51558411  1  0.091658  -1e-05  0.969781  0.0  0.103392  -1.1e-05  1.043439  0.0  0.103297  -9e-06  1.045063  0.0  0.096876  0.103366  -1.3e-05  1.042302  0.0
H  H34  1  0.12706052  0.88062268  0.48441215  1  0.091709  -7e-06  0.969626  0.0  0.103372  -1.1e-05  1.04337  0.0  0.103276  -9e-06  1.045001  0.0  0.096884  0.103345  -1.3e-05  1.042236  0.0
H  H35  1  0.89172235  0.24388089  0.62657502  1  0.093238  1.4e-05  0.959535  0.0  0.105887  2e-05  1.031165  0.0  0.107689  -1.5e-05  1.028906  0.0  0.09735  0.104501  6.2e-05  1.032811  0.0
H  H36  1  0.10828973  0.75611779  0.37342475  1  0.093168  1.2e-05  0.959638  0.0  0.105883  2e-05  1.031197  0.0  0.107713  -1.5e-05  1.028906  0.0  0.097341  0.104473  6.2e-05  1.032861  0.0
H  H37  1  0.67490735  0.56998120  0.65685194  1  0.14386  -4.7e-05  0.955995  0.0  0.163343  -3.7e-05  1.014112  0.0  0.165707  -3.4e-05  1.013946  0.0  0.102877  0.161664  -3.9e-05  1.014262  0.0
H  H38  1  0.32509260  0.43002297  0.34314580  1  0.143839  -4.2e-05  0.956111  0.0  0.163316  -3.7e-05  1.01422  0.0  0.165681  -3.4e-05  1.014052  0.0  0.102854  0.161634  -3.9e-05  1.014372  0.0
H  H39  1  0.74443219  0.69352108  0.77086541  1  0.146819  -3e-06  0.972253  0.0  0.155467  -2e-06  1.046105  0.0  0.159631  -0.0  1.043027  0.0  0.098268  0.152484  -5e-06  1.048344  0.0
H  H40  1  0.25557287  0.30648085  0.22913139  1  0.14689  -0.0  0.97236  0.0  0.155514  -2e-06  1.046207  0.0  0.159678  -0.0  1.043129  0.0  0.098297  0.15253  -5e-06  1.048447  0.0
H  H41  1  0.85198076  0.57071966  0.72225521  1  0.162078  -5e-05  0.932928  0.0  0.180254  -3.8e-05  0.992743  0.0  0.183832  -4.3e-05  0.990718  0.0  0.111346  0.177686  -2.8e-05  0.994236  0.0
H  H42  1  0.14801160  0.42927397  0.27774968  1  0.162094  -4e-05  0.932986  0.0  0.180243  -3.9e-05  0.992829  0.0  0.183822  -4.3e-05  0.990803  0.0  0.111354  0.177687  -2.8e-05  0.994305  0.0
H  H43  1  0.51391268  0.36522813  0.79103632  1  0.088783  -7e-06  0.963651  0.0  0.106677  1e-05  1.028064  0.0  0.106513  6e-06  1.029365  0.0  0.100818  0.10671  1.5e-05  1.027254  0.0
H  H44  1  0.48608130  0.63476974  0.20896652  1  0.088828  2e-06  0.963626  0.0  0.106717  1e-05  1.028051  0.0  0.106553  6e-06  1.029353  0.0  0.100851  0.106752  1.5e-05  1.02724  0.0
H  H45  1  0.50273281  0.34305572  0.90780231  1  0.091996  -1.3e-05  0.965888  0.0  0.103638  -3e-06  1.037653  0.0  0.104457  -2e-06  1.037649  0.0  0.09695  0.102962  -2e-06  1.037793  0.0
H  H46  1  0.49726194  0.65693779  0.09219853  1  0.092026  -8e-06  0.965722  0.0  0.103629  -3e-06  1.037544  0.0  0.104448  -2e-06  1.037539  0.0  0.096957  0.102958  -2e-06  1.037685  0.0
H  H47  1  0.69060483  0.34843256  0.85093523  1  0.077477  -1.6e-05  0.934912  0.0  0.096022  -7e-06  0.998675  0.0  0.096271  -4e-06  0.998433  0.0  0.09605  0.095805  -8e-06  0.998843  0.0
H  H48  1  0.30939313  0.65157607  0.14906858  1  0.077412  -9e-06  0.934888  0.0  0.096025  -7e-06  0.998589  0.0  0.096275  -4e-06  0.998346  0.0  0.096052  0.095812  -8e-06  0.998758  0.0
H  H49  1  0.49687783  0.93665937  0.84168300  1  0.141437  -3e-06  0.948931  0.0  0.162193  -5e-06  1.004339  0.0  0.164515  -5e-06  1.003585  0.0  0.102268  0.160606  -6e-06  1.004741  0.0
H  H50  1  0.50312221  0.06335110  0.15830757  1  0.141474  -2e-06  0.948965  0.0  0.162229  -5e-06  1.004362  0.0  0.164552  -5e-06  1.003608  0.0  0.1023  0.160643  -6e-06  1.004765  0.0
H  H51  1  0.70303347  0.93874789  0.80856271  1  0.147809  3e-06  0.937396  0.0  0.162932  1e-06  1.000966  0.0  0.166255  2e-06  0.998864  0.0  0.102459  0.160483  1e-06  1.002507  0.0
H  H52  1  0.29696991  0.06124338  0.19143857  1  0.147871  4e-06  0.937371  0.0  0.163  1e-06  1.000924  0.0  0.166322  2e-06  0.998825  0.0  0.10247  0.16055  1e-06  1.002462  0.0
H  H53  1  0.67497622  0.06824454  0.90706600  1  0.161218  2e-06  0.922429  0.0  0.181775  -0.0  0.977244  0.0  0.184519  -0.0  0.976209  0.0  0.111951  0.179708  -0.0  0.978158  0.0
H  H54  1  0.32502767  0.93175735  0.09292806  1  0.16127  4e-06  0.92241  0.0  0.181842  -0.0  0.977207  0.0  0.184588  -1e-06  0.976167  0.0  0.111975  0.179772  -0.0  0.978127  0.0
C  C55  1  0.47168196  0.28211964  0.58421114  1  -0.140526  -0.000493  3.702505  -0.001  -0.186199  -7e-06  3.95195  0.0  -0.185884  -0.000101  3.96232  0.0  -0.161198  -0.186127  8e-05  3.944618  0.0
C  C56  1  0.52832735  0.71787805  0.41579116  1  -0.140584  -0.000511  3.702453  -0.001  -0.18623  -8e-06  3.951883  0.0  -0.185925  -0.000103  3.962245  0.0  -0.161204  -0.186162  8e-05  3.944557  0.0
C  C57  1  0.50324407  0.22561726  0.48196045  1  -0.204549  0.012002  3.636468  0.014  -0.24305  0.007052  3.877264  0.008  -0.249071  0.004687  3.886564  0.006  -0.15899  -0.238616  0.008944  3.870953  0.01
C  C58  1  0.49676211  0.77438152  0.51804063  1  -0.204488  0.01204  3.636492  0.014  -0.243009  0.00705  3.877269  0.008  -0.248986  0.004689  3.886532  0.006  -0.158982  -0.23858  0.008944  3.870968  0.01
C  C59  1  0.65604528  0.32609456  0.45340910  1  0.476787  -0.010001  3.743038  -0.009  0.466958  -0.003452  4.007539  -0.003  0.497376  -0.004104  4.012836  -0.003  0.124162  0.446235  -0.002834  4.00356  -0.003
C  C60  1  0.34395621  0.67390420  0.54658854  1  0.476694  -0.010026  3.74319  -0.009  0.466861  -0.003449  4.007716  -0.003  0.497243  -0.004106  4.013045  -0.003  0.124153  0.446136  -0.002833  4.003733  -0.003
C  C61  1  0.65011599  0.35930087  0.36642667  1  -0.470616  0.005474  3.760561  0.008  -0.499129  0.002246  4.030806  0.004  -0.526587  0.000715  4.051451  0.003  -0.162101  -0.480423  0.003723  4.016416  0.006
C  C62  1  0.34987374  0.64070779  0.63357434  1  -0.470593  0.005482  3.760477  0.008  -0.499081  0.002246  4.030745  0.004  -0.526533  0.000716  4.051404  0.003  -0.162079  -0.480378  0.003723  4.016359  0.006
C  C63  1  0.78469183  0.44936659  0.33240048  1  0.473046  -0.010165  3.748801  -0.009  0.459978  -0.003521  4.021844  -0.003  0.490501  -0.004198  4.026403  -0.003  0.1222  0.439322  -0.002876  4.017372  -0.003
C  C64  1  0.21530413  0.55062681  0.66759561  1  0.472958  -0.010185  3.748613  -0.009  0.459886  -0.003519  4.021712  -0.003  0.490412  -0.004204  4.026275  -0.003  0.122159  0.439229  -0.002877  4.017235  -0.003
C  C65  1  0.75466156  0.48891922  0.24217638  1  -0.209373  0.011933  3.640525  0.014  -0.24886  0.007145  3.884471  0.009  -0.254847  0.004743  3.89368  0.006  -0.158421  -0.244486  0.009096  3.878282  0.01
C  C66  1  0.24534032  0.51108062  0.75782209  1  -0.209392  0.011972  3.640512  0.014  -0.248924  0.007143  3.884509  0.009  -0.254909  0.004746  3.893718  0.006  -0.158458  -0.244531  0.009096  3.878299  0.01
C  C67  1  0.90376869  0.51434685  0.18256254  1  -0.130184  -0.000534  3.689166  -0.001  -0.177515  7e-06  3.943618  0.0  -0.177296  -8.8e-05  3.954041  0.0  -0.159207  -0.177538  9.4e-05  3.936342  0.0
C  C68  1  0.09623242  0.48565408  0.81743541  1  -0.130216  -0.00054  3.6892  -0.001  -0.177438  7e-06  3.943544  0.0  -0.177218  -9e-05  3.953965  0.0  -0.159185  -0.177472  9.4e-05  3.936279  0.0
C  C69  1  0.34434308  0.17231614  0.62134148  1  0.106735  -6.3e-05  3.779265  0.0  0.125319  -4.2e-05  4.02422  0.0  0.127638  -9.6e-05  4.04714  0.0  -0.01519  0.123618  2.5e-05  4.008941  0.0
C  C70  1  0.65567095  0.82768147  0.37865952  1  0.106825  -7.8e-05  3.779101  0.0  0.125439  -4.3e-05  4.024009  0.0  0.127767  -9.3e-05  4.046918  0.0  -0.015173  0.12374  2.5e-05  4.008726  0.0
C  C71  1  0.17461279  0.15618400  0.60670276  1  -0.234621  0.000245  3.695081  0.0  -0.260663  9.4e-05  3.942302  0.0  -0.26647  6.1e-05  3.961724  0.0  -0.106508  -0.255915  0.000221  3.928997  0.0
C  C72  1  0.82539770  0.84381365  0.39329820  1  -0.234665  0.000258  3.695327  0.0  -0.260754  9.4e-05  3.942529  0.0  -0.266568  5.8e-05  3.961954  0.0  -0.106446  -0.256002  0.000221  3.929219  0.0
C  C73  1  0.05409353  0.05408994  0.63995940  1  0.186935  -0.000376  3.833767  0.0  0.174439  -9.3e-05  4.096068  0.0  0.184239  -8.3e-05  4.111686  0.0  0.080279  0.167313  -5.8e-05  4.085488  0.0
C  C74  1  0.94591582  0.94591093  0.36004067  1  0.186917  -0.000382  3.833818  0.0  0.174408  -9.3e-05  4.096069  0.0  0.184202  -7.9e-05  4.111697  0.0  0.080148  0.167286  -5.8e-05  4.085487  0.0
C  C75  1  0.10629784  0.96511945  0.68628146  1  0.155852  0.000668  3.7866  0.001  0.139562  0.000211  4.055747  0.0  0.144211  0.000142  4.072175  0.0  0.063524  0.136678  0.000253  4.044713  0.0
C  C76  1  0.89370795  0.03488151  0.31372061  1  0.155764  0.00067  3.786529  0.001  0.139497  0.000209  4.055624  0.0  0.144148  0.00014  4.072055  0.0  0.063471  0.136606  0.000253  4.044595  0.0
C  C77  1  0.27337803  0.98088651  0.70184212  1  -0.138213  -0.000462  3.803778  0.0  -0.161498  -0.000105  4.059918  0.0  -0.162518  -0.000114  4.079873  0.0  -0.099173  -0.161266  -9.5e-05  4.047339  0.0
C  C78  1  0.72662458  0.01911237  0.29816232  1  -0.138043  -0.000455  3.80354  0.0  -0.161273  -0.000105  4.059617  0.0  -0.162294  -0.000111  4.079566  0.0  -0.099097  -0.161039  -9.5e-05  4.047045  0.0
C  C79  1  0.39306540  0.08530645  0.67030529  1  -0.151992  0.000571  3.792024  0.001  -0.172688  0.000185  4.044731  0.0  -0.177098  0.000106  4.066647  0.0  -0.109826  -0.17024  0.000217  4.030763  0.0
C  C80  1  0.60694272  0.91469128  0.32969836  1  -0.152106  0.000579  3.791894  0.001  -0.172791  0.000186  4.04461  0.0  -0.177193  0.000105  4.066511  0.0  -0.109861  -0.170355  0.000217  4.030658  0.0
C  C81  1  0.88008028  0.59790799  0.11374157  1  0.115178  5.9e-05  3.773198  0.0  0.136284  -2.9e-05  4.014522  0.0  0.138236  -6.5e-05  4.039239  0.0  -0.012466  0.13499  3.5e-05  3.997665  0.0
C  C82  1  0.11991729  0.40209298  0.88625702  1  0.115104  -3e-06  3.773319  0.0  0.136207  -2.5e-05  4.014623  0.0  0.138159  -7.1e-05  4.039339  0.0  -0.012468  0.134913  3.5e-05  3.997769  0.0
C  C83  1  0.77590497  0.52753507  0.03103608  1  -0.238039  0.000355  3.718338  0.0  -0.265881  0.000162  3.967559  0.0  -0.272242  9.5e-05  3.987959  0.0  -0.109296  -0.26149  0.000233  3.953711  0.0
C  C84  1  0.22408825  0.47246711  0.96896603  1  -0.237925  0.000386  3.71855  0.0  -0.265747  0.000161  3.967778  0.0  -0.272111  9.8e-05  3.988175  0.0  -0.109283  -0.261367  0.000233  3.953932  0.0
C  C85  1  0.74004510  0.60544582  0.97077167  1  0.184171  -0.000323  3.830137  0.0  0.170914  -8.9e-05  4.093951  0.0  0.18084  -7.1e-05  4.109741  0.0  0.078086  0.16403  -9.9e-05  4.083325  0.0
C  C86  1  0.25993867  0.39455650  0.02923238  1  0.184047  -0.000382  3.830199  0.0  0.170805  -8.8e-05  4.094006  0.0  0.180731  -7.5e-05  4.109794  0.0  0.078136  0.163927  -9.9e-05  4.083369  0.0
C  C87  1  0.80948378  0.75646597  0.99538270  1  0.14998  0.000541  3.782564  0.001  0.132736  0.000149  4.055711  0.0  0.137977  8.2e-05  4.071508  0.0  0.061164  0.129021  0.000248  4.045107  0.0
C  C88  1  0.19049369  0.24353538  0.00462250  1  0.149866  0.000586  3.782489  0.001  0.132662  0.000148  4.055643  0.0  0.137903  8.4e-05  4.071443  0.0  0.061097  0.128958  0.000248  4.045017  0.0
C  C89  1  0.91520160  0.82676840  0.07607118  1  -0.142046  -0.000314  3.787387  0.0  -0.1663  -7.1e-05  4.049851  0.0  -0.16722  -7.4e-05  4.068711  0.0  -0.101006  -0.165484  -7.4e-05  4.036996  0.0
C  C90  1  0.08478494  0.17323495  0.92393171  1  -0.141938  -0.000391  3.787277  0.0  -0.166202  -6.9e-05  4.04975  0.0  -0.16713  -8e-05  4.068611  0.0  -0.100984  -0.16539  -7.4e-05  4.036896  0.0
C  C91  1  0.95133286  0.74749380  0.13511110  1  -0.149198  0.000442  3.781805  0.0  -0.174186  0.000142  4.040065  0.0  -0.179384  7.5e-05  4.063549  0.0  -0.112858  -0.170852  0.000232  4.02439  0.0
C  C92  1  0.04866432  0.25250936  0.86488849  1  -0.14917  0.000509  3.781921  0.0  -0.174196  0.00014  4.040161  0.0  -0.179393  7.9e-05  4.06365  0.0  -0.112825  -0.170857  0.000232  4.024486  0.0
C  C93  1  0.83723076  0.13106233  0.58754568  1  -0.0807  -6.5e-05  3.610018  0.0  -0.178199  -4e-06  3.878875  0.0  -0.170874  -4.4e-05  3.881465  0.0  -0.14843  -0.182855  5.7e-05  3.87668  0.0
C  C94  1  0.16277978  0.86893849  0.41245237  1  -0.080648  -6.7e-05  3.609973  0.0  -0.178204  -4e-06  3.878891  0.0  -0.170896  -4.3e-05  3.881462  0.0  -0.148476  -0.182839  5.7e-05  3.876715  0.0
C  C95  1  0.89359753  0.74254866  0.65838841  1  0.704293  -0.001086  3.718886  -0.001  0.661356  -0.001068  4.025356  -0.001  0.695553  -0.000914  4.013022  -0.001  0.241867  0.637948  -0.001159  4.032808  -0.001
C  C96  1  0.10641373  0.25744466  0.34161191  1  0.704631  -0.001078  3.71867  -0.001  0.661683  -0.001068  4.025102  -0.001  0.695887  -0.000914  4.012752  -0.001  0.241948  0.638285  -0.001159  4.032554  -0.001
C  C97  1  0.78191183  0.63940199  0.70539863  1  -0.468378  -8.9e-05  3.660981  0.0  -0.549241  -0.000115  3.899739  0.0  -0.556516  -0.000114  3.899105  0.0  -0.246261  -0.54408  -0.000117  3.900234  0.0
C  C98  1  0.21809280  0.36059564  0.29459820  1  -0.468565  -0.000116  3.661124  0.0  -0.549356  -0.000115  3.899806  0.0  -0.556628  -0.000112  3.89916  0.0  -0.246318  -0.544217  -0.000117  3.900291  0.0
C  C99  1  0.58412873  0.39113442  0.85884016  1  -0.076177  4.1e-05  3.620072  0.0  -0.169189  2.1e-05  3.878414  0.0  -0.162623  1.4e-05  3.883153  0.0  -0.141707  -0.17344  2.9e-05  3.875002  0.0
C  C100  1  0.41586211  0.60886458  0.14116348  1  -0.076281  1.8e-05  3.619778  0.0  -0.169307  2.1e-05  3.878224  0.0  -0.162746  1.3e-05  3.882971  0.0  -0.141736  -0.173564  2.9e-05  3.874824  0.0
C  C101  1  0.62931300  0.86105529  0.93138334  1  0.698287  1.7e-05  3.724927  0.0  0.657514  5e-06  4.028041  0.0  0.690018  4e-06  4.018335  0.0  0.245464  0.635067  2.1e-05  4.034511  0.0
C  C102  1  0.37066015  0.13894717  0.06862129  1  0.698021  2.4e-05  3.725189  0.0  0.657395  5e-06  4.028136  0.0  0.689902  4e-06  4.018435  0.0  0.245389  0.634937  2.1e-05  4.034614  0.0
C  C103  1  0.62584165  0.95541014  0.86675932  1  -0.459398  -3e-05  3.657032  0.0  -0.539827  -8e-06  3.888919  0.0  -0.546894  -2e-05  3.890726  0.0  -0.237843  -0.534666  -9e-06  3.887611  0.0
C  C104  1  0.37415594  0.04459076  0.13323588  1  -0.459564  -4.4e-05  3.657331  0.0  -0.540031  -8e-06  3.88915  0.0  -0.5471  -1.8e-05  3.890955  0.0  -0.237949  -0.534863  -9e-06  3.88785  0.0
O  O105  1  0.78353221  0.37269442  0.51314768  1  -0.531243  0.077788  2.118194  0.107  -0.491449  0.051529  2.39043  0.078  -0.531774  0.038741  2.38417  0.064  -0.301312  -0.464551  0.059781  2.394754  0.085
O  O106  1  0.21647515  0.62729449  0.48684584  1  -0.531207  0.077783  2.118296  0.107  -0.491382  0.051523  2.390464  0.078  -0.531727  0.038737  2.384295  0.064  -0.301333  -0.464478  0.059776  2.394778  0.085
O  O107  1  0.93136286  0.50885606  0.37444586  1  -0.541509  0.077077  2.107894  0.106  -0.503958  0.052163  2.38187  0.079  -0.543892  0.039029  2.375366  0.065  -0.301522  -0.476941  0.060809  2.385884  0.087
O  O108  1  0.06863893  0.49112103  0.62554651  1  -0.541325  0.077076  2.107558  0.106  -0.503895  0.052161  2.381741  0.079  -0.543798  0.039028  2.375158  0.065  -0.301433  -0.476882  0.060806  2.38576  0.087
O  O109  1  0.88787434  0.03551560  0.63210382  1  -0.254413  -1.4e-05  2.358949  0.0  -0.182157  1.7e-05  2.601702  0.0  -0.20021  3e-06  2.604885  0.0  -0.194197  -0.169475  4.9e-05  2.59889  0.0
O  O110  1  0.11213503  0.96448192  0.36789033  1  -0.254389  -1.8e-05  2.35893  0.0  -0.182031  1.9e-05  2.601601  0.0  -0.200083  3e-06  2.604791  0.0  -0.194083  -0.169359  4.9e-05  2.598789  0.0
O  O111  1  0.98907409  0.86391087  0.72243575  1  -0.330779  -6.6e-05  2.275361  0.0  -0.261341  -0.000142  2.50151  0.0  -0.280465  -0.000146  2.498298  0.0  -0.147216  -0.247965  -0.000179  2.502953  0.0
O  O112  1  0.01092625  0.13608781  0.27755779  1  -0.330943  -6.9e-05  2.275153  0.0  -0.261525  -0.00014  2.5013  0.0  -0.280658  -0.000147  2.498092  0.0  -0.147264  -0.248148  -0.000179  2.502743  0.0
O  O113  1  0.90667437  0.72346502  0.57435513  1  -0.551203  -0.001407  2.004836  0.0  -0.527659  -0.001595  2.253916  0.0  -0.546722  -0.001737  2.241405  0.0  -0.269596  -0.513918  -0.001385  2.261678  0.0
O  O114  1  0.09335026  0.27651936  0.42563724  1  -0.551226  -0.001408  2.005011  0.0  -0.527725  -0.001595  2.254178  0.0  -0.546785  -0.001738  2.241656  0.0  -0.269578  -0.513995  -0.001385  2.261949  0.0
O  O115  1  0.64106627  0.54542979  0.88894787  1  -0.247993  -2.1e-05  2.370224  0.0  -0.173137  2.4e-05  2.610255  0.0  -0.191719  1.3e-05  2.615135  0.0  -0.187808  -0.160087  2.4e-05  2.6065  0.0
O  O116  1  0.35891551  0.45457045  0.11105857  1  -0.247825  -2.6e-05  2.370061  0.0  -0.173019  2.4e-05  2.610142  0.0  -0.191599  1.2e-05  2.615025  0.0  -0.187878  -0.159976  2.4e-05  2.606389  0.0
O  O117  1  0.78162647  0.83795179  0.93480151  1  -0.339976  2.2e-05  2.30395  0.0  -0.271422  1.2e-05  2.53502  0.0  -0.291744  -1.8e-05  2.53281  0.0  -0.148834  -0.256987  2.3e-05  2.535911  0.0
O  O118  1  0.21835295  0.16205175  0.06520674  1  -0.339774  2.1e-05  2.304066  0.0  -0.271313  1.2e-05  2.535107  0.0  -0.291636  -1.9e-05  2.5329  0.0  -0.14873  -0.256878  2.3e-05  2.535991  0.0
O  O119  1  0.51667278  0.81291674  0.97687348  1  -0.53427  1.8e-05  1.928046  0.0  -0.49738  2.3e-05  2.136628  0.0  -0.516729  2.9e-05  2.129245  0.0  -0.274985  -0.484267  2.4e-05  2.141718  0.0
O  O120  1  0.48330601  0.18710061  0.02312532  1  -0.534193  1.7e-05  1.927838  0.0  -0.497341  2.3e-05  2.136316  0.0  -0.516692  2.9e-05  2.128937  0.0  -0.27497  -0.48423  2.4e-05  2.141416  0.0
