# generated using pymatgen
data_Zr3H26(C6O5)8
_symmetry_space_group_name_H-M   'P 1'
_cell_length_a   21.69006057
_cell_length_b   21.69066091
_cell_length_c   21.69029785
_cell_angle_alpha   89.99818755
_cell_angle_beta   119.99902640
_cell_angle_gamma   60.00012187
_symmetry_Int_Tables_number   1
_chemical_formula_structural   Zr3H26(C6O5)8
_chemical_formula_sum   'Zr6 H52 C96 O80'
_cell_volume   7215.79837388
_cell_formula_units_Z   2
loop_
 _symmetry_equiv_pos_site_id
 _symmetry_equiv_pos_as_xyz
  1  'x, y, z'
loop_
 _atom_site_type_symbol
 _atom_site_label
 _atom_site_symmetry_multiplicity
 _atom_site_fract_x
 _atom_site_fract_y
 _atom_site_fract_z
 _atom_site_occupancy
 _atom_site_pbe_bader_charge
 _atom_site_pbe_bader_spin_density
 _atom_site_pbe_cm5_charge
 _atom_site_pbe_ddec_charge
 _atom_site_pbe_ddec_spin_density
 _atom_site_pbe_ddec_sum_bond_order
 _atom_site_pbe_magmom
Zr  Zr0  1  0.99998926  0.58123402  0.08123418  1  2.624526  0  1.63474  2.366091  0  2.759209  0
Zr  Zr1  1  0.00000635  0.41878432  0.91877024  1  2.625881  0  1.634697  2.366185  0  2.758872  0
Zr  Zr2  1  0.99999413  0.41878077  0.08124438  1  2.614883  0  1.634803  2.366111  0  2.759059  0
Zr  Zr3  1  0.00001785  0.58122994  0.91878375  1  2.61534  0  1.634596  2.365912  0  2.75932  0
Zr  Zr4  1  0.16245042  0.41876822  0.08122957  1  2.633147  0  1.63447  2.366136  0  2.759269  0
Zr  Zr5  1  0.83753207  0.58122506  0.91878206  1  2.634055  0  1.634475  2.366093  0  2.759014  0
H  H6  1  0.12810812  0.43594112  0.19215196  1  0.59595  0  0.336808  0.432632  0  0.841477  0
H  H7  1  0.12809752  0.43595447  0.93594765  1  0.634667  0  0.336879  0.432724  0  0.841528  0
H  H8  1  0.87189252  0.43595791  0.93595187  1  0.634811  0  0.336833  0.432703  0  0.841486  0
H  H9  1  0.87190446  0.69215176  0.93595665  1  0.670392  0  0.336797  0.432633  0  0.841495  0
H  H10  1  0.13303676  0.60544392  0.23668571  1  0.632043  0  0.309491  0.344061  0  0.978745  0
H  H11  1  0.34218248  0.39635759  0.23667242  1  0.626604  0  0.309509  0.344204  0  0.97841  0
H  H12  1  0.55271842  0.39541848  0.44830641  1  0.60192  0  0.319185  0.336261  0  0.92663  0
H  H13  1  0.34368287  0.60436169  0.44834347  1  0.586718  0  0.319192  0.336324  0  0.926423  0
H  H14  1  0.44727631  0.60442176  0.55187951  1  0.595562  0  0.319219  0.336428  0  0.926256  0
H  H15  1  0.65629495  0.39538755  0.55191927  1  0.600365  0  0.319205  0.336339  0  0.92629  0
H  H16  1  0.86696150  0.39639406  0.76147217  1  0.629436  0  0.309557  0.344258  0  0.978602  0
H  H17  1  0.65782665  0.60552964  0.76145173  1  0.62779  0  0.309525  0.344262  0  0.978411  0
H  H18  1  0.86696356  0.73668570  0.10544675  1  0.632069  0  0.309528  0.344072  0  0.978684  0
H  H19  1  0.65782020  0.73666674  0.89636541  1  0.629677  0  0.30952  0.344227  0  0.978472  0
H  H20  1  0.44728321  0.94830535  0.89541887  1  0.60194  0  0.319209  0.336277  0  0.926594  0
H  H21  1  0.65631843  0.94834520  0.10436158  1  0.586678  0  0.319229  0.336354  0  0.926367  0
H  H22  1  0.55272354  0.05187608  0.10442222  1  0.59546  0  0.31924  0.336434  0  0.926297  0
H  H23  1  0.34370374  0.05191686  0.89539047  1  0.600253  0  0.31925  0.33637  0  0.926271  0
H  H24  1  0.13303827  0.26146971  0.89639501  1  0.629497  0  0.30958  0.344271  0  0.978607  0
H  H25  1  0.34217175  0.26145667  0.10552181  1  0.627955  0  0.309486  0.344156  0  0.978551  0
H  H26  1  0.34212395  0.39638216  0.10547031  1  0.626917  0  0.309443  0.344074  0  0.978763  0
H  H27  1  0.13299730  0.60554864  0.89637261  1  0.624815  0  0.309563  0.344149  0  0.978445  0
H  H28  1  0.34368136  0.60445358  0.89541794  1  0.600344  0  0.319302  0.336378  0  0.926394  0
H  H29  1  0.55268904  0.39538806  0.10437409  1  0.586061  0  0.3192  0.336302  0  0.926195  0
H  H30  1  0.65628567  0.39543572  0.10443989  1  0.600236  0  0.319214  0.336326  0  0.92654  0
H  H31  1  0.44727918  0.60440932  0.89539459  1  0.585471  0  0.31923  0.336371  0  0.926259  0
H  H32  1  0.65784094  0.60550977  0.89638485  1  0.626263  0  0.309468  0.34411  0  0.978624  0
H  H33  1  0.86696515  0.39640295  0.10553206  1  0.624579  0  0.309556  0.344193  0  0.978415  0
H  H34  1  0.65786720  0.73671500  0.76154552  1  0.611876  0  0.309292  0.343826  0  0.979123  0
H  H35  1  0.86699340  0.73667609  0.76149771  1  0.629068  0  0.309566  0.344152  0  0.978417  0
H  H36  1  0.65632031  0.94830623  0.55190640  1  0.6035  0  0.319229  0.336312  0  0.9264  0
H  H37  1  0.44730562  0.94838124  0.55198385  1  0.58627  0  0.3193  0.336285  0  0.926397  0
H  H38  1  0.34371456  0.05190048  0.44833435  1  0.603654  0  0.319173  0.336197  0  0.926635  0
H  H39  1  0.55271761  0.05192165  0.44834296  1  0.583532  0  0.31923  0.336281  0  0.926546  0
H  H40  1  0.34215797  0.26146451  0.23665952  1  0.612237  0  0.309466  0.344198  0  0.978699  0
H  H41  1  0.13303607  0.26146753  0.23666589  1  0.628591  0  0.309585  0.344233  0  0.978524  0
H  H42  1  0.99820534  0.39634808  0.23669175  1  0.633187  0  0.309438  0.343984  0  0.978686  0
H  H43  1  0.99811585  0.60551604  0.23664316  1  0.639094  0  0.30963  0.344265  0  0.978408  0
H  H44  1  0.00016800  0.60443112  0.44827806  1  0.586104  0  0.319189  0.33628  0  0.926391  0
H  H45  1  0.00030131  0.39535664  0.44835467  1  0.592845  0  0.319152  0.336247  0  0.926559  0
H  H46  1  0.00017938  0.39540727  0.55188064  1  0.585891  0  0.319145  0.336213  0  0.926176  0
H  H47  1  0.00023164  0.60438420  0.55189643  1  0.5958  0  0.319187  0.336294  0  0.926532  0
H  H48  1  0.99810897  0.60550417  0.76145227  1  0.637417  0  0.30952  0.344197  0  0.978671  0
H  H49  1  0.99810731  0.39638916  0.76145884  1  0.629412  0  0.309552  0.3442  0  0.978611  0
H  H50  1  0.00179918  0.73671628  0.89638519  1  0.633412  0  0.309393  0.344023  0  0.978729  0
H  H51  1  0.00187465  0.73666306  0.10554893  1  0.639792  0  0.30954  0.344163  0  0.978248  0
H  H52  1  0.99983110  0.94828684  0.10447957  1  0.584457  0  0.319226  0.336337  0  0.92636  0
H  H53  1  0.99969687  0.94838245  0.89539879  1  0.592121  0  0.319279  0.336571  0  0.926428  0
H  H54  1  0.99981905  0.05189245  0.89543732  1  0.586251  0  0.319172  0.336291  0  0.926207  0
H  H55  1  0.99976740  0.05193310  0.10442199  1  0.595572  0  0.319153  0.336393  0  0.926436  0
H  H56  1  0.00188019  0.26148368  0.10552558  1  0.636964  0  0.309536  0.344059  0  0.978842  0
H  H57  1  0.00189190  0.26147010  0.89640384  1  0.628045  0  0.309543  0.34419  0  0.978673  0
C  C58  1  0.20990369  0.50146019  0.20841692  1  1.392529  0  0.229008  0.660736  0  4.053603  0
C  C59  1  0.20989693  0.28862202  0.00150137  1  1.387677  0  0.229107  0.661088  0  4.052882  0
C  C60  1  0.79010379  0.50150469  0.78862261  1  1.387804  0  0.229091  0.660852  0  4.053144  0
C  C61  1  0.79009717  0.70841200  0.00146673  1  1.392303  0  0.229088  0.661019  0  4.053045  0
C  C62  1  0.99704538  0.50148582  0.20840947  1  1.400048  0  0.22917  0.661141  0  4.0532  0
C  C63  1  0.00295816  0.70842050  0.00151015  1  1.395484  0  0.228891  0.66022  0  4.053699  0
C  C64  1  0.99701491  0.50149740  0.78861380  1  1.407131  0  0.22923  0.661049  0  4.052869  0
C  C65  1  0.00297922  0.28863377  0.00150359  1  1.396922  0  0.229224  0.661062  0  4.053083  0
C  C66  1  0.20989295  0.28862148  0.20841093  1  1.386089  0  0.229073  0.661065  0  4.052962  0
C  C67  1  0.79010584  0.50150069  0.00150287  1  1.408296  0  0.229232  0.661151  0  4.052387  0
C  C68  1  0.79012972  0.70842437  0.78865663  1  1.367883  0  0.228999  0.660503  0  4.053724  0
C  C69  1  0.20986678  0.50150736  0.00148116  1  1.404494  0  0.229207  0.66107  0  4.052924  0
C  C70  1  0.27684942  0.50072571  0.27610075  1  0.04424  0  -0.05406  -0.31865  0  4.02396  0
C  C71  1  0.25279973  0.55754028  0.30963034  1  0.616409  0  0.078612  0.211516  0  4.06714  0
C  C72  1  0.31764171  0.55678983  0.37438151  1  0.570424  0  0.067601  0.150634  0  4.063434  0
C  C73  1  0.40664291  0.49996881  0.40667819  1  0.088868  0  -0.028182  -0.085785  0  4.204131  0
C  C74  1  0.43119188  0.44327593  0.37437686  1  0.54841  0  0.067531  0.150511  0  4.063465  0
C  C75  1  0.36720267  0.44317106  0.30962694  1  0.594895  0  0.078861  0.211607  0  4.067429  0
C  C76  1  0.47164597  0.49987073  0.47179318  1  -0.144057  0  -0.039485  -0.101365  0  4.189385  0
C  C77  1  0.52833807  0.49988074  0.52847917  1  -0.298727  0  -0.039573  -0.101375  0  4.189529  0
C  C78  1  0.59334625  0.49999586  0.59337398  1  0.089401  0  -0.028072  -0.0854  0  4.203873  0
C  C79  1  0.56880575  0.55684048  0.62552738  1  0.549488  0  0.06762  0.150447  0  4.063937  0
C  C80  1  0.63279727  0.55760871  0.68960826  1  0.640128  0  0.078756  0.211354  0  4.067722  0
C  C81  1  0.72315307  0.50078559  0.72239620  1  -0.019657  0  -0.053985  -0.318485  0  4.023358  0
C  C82  1  0.74719319  0.44321187  0.68961873  1  0.639311  0  0.078754  0.211438  0  4.067307  0
C  C83  1  0.68234972  0.44329957  0.62553630  1  0.569873  0  0.067397  0.150272  0  4.063925  0
C  C84  1  0.72315241  0.77609702  0.00073153  1  0.04414  0  -0.054065  -0.3188  0  4.023929  0
C  C85  1  0.74720083  0.80962999  0.05754182  1  0.61661  0  0.078651  0.211555  0  4.067105  0
C  C86  1  0.68235978  0.87438280  0.05679170  1  0.569255  0  0.067596  0.15066  0  4.063427  0
C  C87  1  0.59335848  0.90667859  0.99997016  1  0.087036  0  -0.028165  -0.08578  0  4.204144  0
C  C88  1  0.56881026  0.87437518  0.94327840  1  0.551162  0  0.067496  0.150432  0  4.063477  0
C  C89  1  0.63279888  0.80962199  0.94317608  1  0.595212  0  0.078852  0.21164  0  4.067449  0
C  C90  1  0.52835378  0.97179404  0.99986950  1  -0.14397  0  -0.039495  -0.101368  0  4.189442  0
C  C91  1  0.47166001  0.02848019  0.99987842  1  -0.298353  0  -0.039582  -0.101401  0  4.189463  0
C  C92  1  0.40665152  0.09337464  0.99999474  1  0.087954  0  -0.028073  -0.085488  0  4.204042  0
C  C93  1  0.43119424  0.12552600  0.05683937  1  0.552499  0  0.067728  0.150654  0  4.063787  0
C  C94  1  0.36720012  0.18960983  0.05760472  1  0.637862  0  0.078727  0.211279  0  4.067684  0
C  C95  1  0.27684641  0.22239572  0.00078339  1  -0.017483  0  -0.054036  -0.318588  0  4.023574  0
C  C96  1  0.25280521  0.18961833  0.94321215  1  0.639386  0  0.07876  0.211486  0  4.06746  0
C  C97  1  0.31765153  0.12553578  0.94330013  1  0.568256  0  0.067424  0.150312  0  4.064005  0
C  C98  1  0.27680861  0.50079000  0.00075305  1  0.026369  0  -0.054068  -0.318732  0  4.023682  0
C  C99  1  0.36716106  0.44320576  0.05756466  1  0.599833  0  0.078756  0.2116  0  4.067324  0
C  C100  1  0.43115640  0.44330243  0.05680876  1  0.549187  0  0.067408  0.150275  0  4.064047  0
C  C101  1  0.40661681  0.50001272  0.99998229  1  0.108199  0  -0.027944  -0.085565  0  4.203501  0
C  C102  1  0.31761835  0.55685700  0.94328638  1  0.531123  0  0.067538  0.150568  0  4.064339  0
C  C103  1  0.25276794  0.55762018  0.94318891  1  0.635015  0  0.078843  0.211369  0  4.068022  0
C  C104  1  0.47163335  0.49992027  0.99989299  1  -0.096129  0  -0.03968  -0.101225  0  4.188394  0
C  C105  1  0.52833650  0.49991414  0.99990471  1  -0.320993  0  -0.039596  -0.101639  0  4.189381  0
C  C106  1  0.59334691  0.50000851  0.00000380  1  0.108842  0  -0.027937  -0.08529  0  4.2038  0
C  C107  1  0.68234997  0.44331038  0.05684773  1  0.529788  0  0.067589  0.15053  0  4.064329  0
C  C108  1  0.74719460  0.44321913  0.05760798  1  0.637058  0  0.079057  0.211569  0  4.067528  0
C  C109  1  0.72315988  0.50078370  0.00078355  1  0.026602  0  -0.054235  -0.318741  0  4.022886  0
C  C110  1  0.63280669  0.55759926  0.94320808  1  0.599788  0  0.078848  0.211515  0  4.067686  0
C  C111  1  0.56881096  0.55684263  0.94329841  1  0.548543  0  0.067666  0.150507  0  4.064198  0
C  C112  1  0.72318234  0.77611459  0.72245206  1  0.064641  0  -0.05419  -0.318679  0  4.024113  0
C  C113  1  0.63283638  0.80965532  0.68968867  1  0.592378  0  0.07875  0.211563  0  4.067042  0
C  C114  1  0.56883596  0.87440672  0.62559362  1  0.52972  0  0.067437  0.150429  0  4.063136  0
C  C115  1  0.59337570  0.90668588  0.59341439  1  0.098913  0  -0.028114  -0.085523  0  4.204067  0
C  C116  1  0.68237516  0.87438074  0.62556648  1  0.549699  0  0.06759  0.150626  0  4.063825  0
C  C117  1  0.74722465  0.80963220  0.68966532  1  0.619595  0  0.078691  0.211284  0  4.067748  0
C  C118  1  0.52836799  0.97180336  0.52851250  1  -0.108048  0  -0.039687  -0.101675  0  4.189562  0
C  C119  1  0.47166492  0.02849926  0.47181495  1  -0.320705  0  -0.0394  -0.101239  0  4.189668  0
C  C120  1  0.40665197  0.09338494  0.40668309  1  0.120317  0  -0.028179  -0.085644  0  4.204272  0
C  C121  1  0.31765077  0.12553908  0.37437905  1  0.55005  0  0.06754  0.150447  0  4.063579  0
C  C122  1  0.25280393  0.18962154  0.30962051  1  0.618063  0  0.078814  0.211604  0  4.067351  0
C  C123  1  0.27684054  0.22240242  0.27608497  1  0.066793  0  -0.053937  -0.318657  0  4.023452  0
C  C124  1  0.36719153  0.18962113  0.30961342  1  0.590704  0  0.078757  0.211608  0  4.067188  0
C  C125  1  0.43118914  0.12553925  0.37437253  1  0.532304  0  0.067584  0.150489  0  4.063694  0
C  C126  1  0.99851796  0.50075154  0.27608850  1  0.068151  0  -0.053996  -0.318772  0  4.023998  0
C  C127  1  0.99929012  0.44317386  0.30963169  1  0.609312  0  0.078751  0.211727  0  4.066997  0
C  C128  1  0.99994763  0.44327025  0.37438105  1  0.531165  0  0.067498  0.150437  0  4.063536  0
C  C129  1  0.00006397  0.49997828  0.40666586  1  0.0991  0  -0.028214  -0.085901  0  4.204412  0
C  C130  1  0.99990403  0.55682681  0.37435528  1  0.549641  0  0.067595  0.150503  0  4.064124  0
C  C131  1  0.99924111  0.55758329  0.30960223  1  0.601324  0  0.078673  0.21152  0  4.06768  0
C  C132  1  0.00027477  0.49987161  0.47178384  1  -0.123005  0  -0.039591  -0.101391  0  4.189351  0
C  C133  1  0.00026141  0.49986989  0.52847161  1  -0.303531  0  -0.039451  -0.101282  0  4.189734  0
C  C134  1  0.00003468  0.49998267  0.59336551  1  0.097265  0  -0.028096  -0.085463  0  4.204164  0
C  C135  1  0.99988173  0.44329061  0.62552555  1  0.552371  0  0.067592  0.150369  0  4.063942  0
C  C136  1  0.99920883  0.44320439  0.68960908  1  0.597732  0  0.078838  0.211559  0  4.067344  0
C  C137  1  0.99846001  0.50077163  0.72238942  1  0.062348  0  -0.053944  -0.318566  0  4.023078  0
C  C138  1  0.99921165  0.55758841  0.68960491  1  0.60196  0  0.078725  0.211571  0  4.067529  0
C  C139  1  0.99988642  0.55682616  0.62552210  1  0.540985  0  0.067639  0.150497  0  4.063932  0
C  C140  1  0.00150011  0.77609856  0.00079052  1  0.066839  0  -0.053983  -0.318293  0  4.023667  0
C  C141  1  0.00071681  0.80965563  0.94320777  1  0.612119  0  0.078568  0.211308  0  4.066888  0
C  C142  1  0.00005338  0.87440900  0.94330697  1  0.531059  0  0.067767  0.15091  0  4.062619  0
C  C143  1  0.99994346  0.90668747  0.00002269  1  0.100128  0  -0.028149  -0.085685  0  4.204129  0
C  C144  1  0.00010091  0.87436918  0.05686711  1  0.547936  0  0.067465  0.150389  0  4.063853  0
C  C145  1  0.00076878  0.80961338  0.05762216  1  0.600934  0  0.078825  0.211457  0  4.067503  0
C  C146  1  0.99973911  0.97179235  0.99992966  1  -0.279286  0  -0.039433  -0.101024  0  4.188812  0
C  C147  1  0.99975557  0.02848769  0.99992690  1  -0.148488  0  -0.039765  -0.101864  0  4.188876  0
C  C148  1  0.99997659  0.09338008  0.00002376  1  0.097743  0  -0.028144  -0.085677  0  4.204277  0
C  C149  1  0.00011900  0.12553509  0.94332335  1  0.554057  0  0.06741  0.150255  0  4.063368  0
C  C150  1  0.00078768  0.18962177  0.94322330  1  0.596771  0  0.078812  0.21158  0  4.067286  0
C  C151  1  0.00153792  0.22240691  0.00079201  1  0.063174  0  -0.054008  -0.318826  0  4.023925  0
C  C152  1  0.00078759  0.18963245  0.05761500  1  0.604161  0  0.078756  0.211381  0  4.067658  0
C  C153  1  0.00011687  0.12554641  0.05685812  1  0.537974  0  0.067522  0.150717  0  4.063996  0
O  O154  1  0.12815371  0.55377191  0.17874404  1  -1.18312  0  -0.360995  -0.63828  0  2.315444  0
O  O155  1  0.12814700  0.31806613  0.94941789  1  -1.182152  0  -0.361126  -0.638552  0  2.315435  0
O  O156  1  0.87185172  0.44942014  0.81806531  1  -1.182224  0  -0.361076  -0.638449  0  2.315467  0
O  O157  1  0.87184851  0.67873275  0.05378285  1  -1.183316  0  -0.361087  -0.638407  0  2.315487  0
O  O158  1  0.99681164  0.44940801  0.17874099  1  -1.192469  0  -0.361132  -0.638523  0  2.315538  0
O  O159  1  0.00319337  0.67875276  0.94943459  1  -1.191142  0  -0.360865  -0.638114  0  2.315433  0
O  O160  1  0.99679236  0.55379908  0.81805526  1  -1.193835  0  -0.360892  -0.63826  0  2.315386  0
O  O161  1  0.00319968  0.31807583  0.05380926  1  -1.185568  0  -0.360782  -0.637974  0  2.315322  0
O  O162  1  0.23253282  0.31805908  0.17873998  1  -1.179522  0  -0.361167  -0.63843  0  2.315374  0
O  O163  1  0.76746759  0.55379790  0.94941217  1  -1.181364  0  -0.361214  -0.638438  0  2.315435  0
O  O164  1  0.76748662  0.67874480  0.81808098  1  -1.180972  0  -0.361094  -0.638079  0  2.315324  0
O  O165  1  0.23250561  0.44942502  0.05378335  1  -1.179812  0  -0.361257  -0.638511  0  2.315654  0
O  O166  1  0.87185599  0.44941971  0.05380770  1  -1.194373  0  -0.361091  -0.638389  0  2.315323  0
O  O167  1  0.87187679  0.67874838  0.81808149  1  -1.174796  0  -0.36075  -0.637886  0  2.315633  0
O  O168  1  0.12811738  0.55381985  0.94939985  1  -1.190905  0  -0.360957  -0.638091  0  2.315394  0
O  O169  1  0.12814402  0.31806344  0.17874648  1  -1.192522  0  -0.3609  -0.638325  0  2.315285  0
O  O170  1  0.99679787  0.55380076  0.17873016  1  -1.185834  0  -0.36089  -0.638246  0  2.315678  0
O  O171  1  0.00320444  0.31807283  0.94942108  1  -1.189049  0  -0.361112  -0.638452  0  2.315381  0
O  O172  1  0.99679536  0.44941170  0.81806039  1  -1.189132  0  -0.361056  -0.638445  0  2.315257  0
O  O173  1  0.00319727  0.67874438  0.05382523  1  -1.182073  0  -0.36066  -0.637786  0  2.315476  0
O  O174  1  0.76745579  0.67874260  0.94939306  1  -1.181293  0  -0.361036  -0.638279  0  2.315486  0
O  O175  1  0.23254808  0.44938699  0.17874581  1  -1.183477  0  -0.36088  -0.638051  0  2.315486  0
O  O176  1  0.23253917  0.31806561  0.05380318  1  -1.187373  0  -0.360979  -0.638218  0  2.315315  0
O  O177  1  0.76745922  0.55381036  0.81806147  1  -1.187531  0  -0.36098  -0.638003  0  2.315331  0
O  O178  1  0.90842171  0.63737322  0.95421755  1  -1.292722  0  -0.698826  -1.06726  0  2.356955  0
O  O179  1  0.90841206  0.45421752  0.95421276  1  -1.256758  0  -0.698823  -1.06723  0  2.356692  0
O  O180  1  0.09157912  0.45421477  0.95420696  1  -1.256468  0  -0.699016  -1.067375  0  2.357218  0
O  O181  1  0.09158391  0.45420701  0.13737350  1  -1.21798  0  -0.698964  -1.067252  0  2.357071  0
O  O182  1  0.06762402  0.39856515  0.03381458  1  -1.187766  0  -0.792993  -1.138994  0  2.13598  0
O  O183  1  0.06762798  0.53381538  0.03381766  1  -1.188352  0  -0.792987  -1.138998  0  2.136015  0
O  O184  1  0.93237381  0.53381811  0.89856397  1  -1.187781  0  -0.792938  -1.139097  0  2.135945  0
O  O185  1  0.93236938  0.53381620  0.03381631  1  -1.188715  0  -0.793101  -1.138935  0  2.136017  0
O  O186  1  0.16946300  0.61324463  0.28215169  1  -1.117864  0  -0.342614  -0.391939  0  2.283527  0
O  O187  1  0.39544242  0.38733082  0.28213612  1  -1.117369  0  -0.343002  -0.392152  0  2.283687  0
O  O188  1  0.51623297  0.38756654  0.40405620  1  -1.102466  0  -0.341177  -0.385783  0  2.27158  0
O  O189  1  0.29159136  0.61213190  0.40407133  1  -1.089081  0  -0.341044  -0.385779  0  2.271402  0
O  O190  1  0.48376591  0.61218745  0.59621405  1  -1.096066  0  -0.341194  -0.3859  0  2.271292  0
O  O191  1  0.70839233  0.38756786  0.59623229  1  -1.101631  0  -0.340967  -0.385643  0  2.271231  0
O  O192  1  0.83053102  0.38736066  0.71724190  1  -1.119357  0  -0.342802  -0.392107  0  2.283421  0
O  O193  1  0.60456249  0.61333321  0.71721755  1  -1.116462  0  -0.343012  -0.392132  0  2.283631  0
O  O194  1  0.83053831  0.78215242  0.11324480  1  -1.117969  0  -0.342613  -0.391893  0  2.283497  0
O  O195  1  0.60455908  0.78212908  0.88733941  1  -1.119901  0  -0.342935  -0.392089  0  2.28377  0
O  O196  1  0.48376840  0.90405493  0.88756841  1  -1.102326  0  -0.341142  -0.385714  0  2.271518  0
O  O197  1  0.70841093  0.90407123  0.11213428  1  -1.089126  0  -0.341065  -0.385793  0  2.271388  0
O  O198  1  0.51623278  0.09621169  0.11218636  1  -1.096071  0  -0.341275  -0.385976  0  2.271352  0
O  O199  1  0.29160798  0.09623348  0.88756822  1  -1.10149  0  -0.341019  -0.385675  0  2.271162  0
O  O200  1  0.16946801  0.21723875  0.88736433  1  -1.119469  0  -0.342785  -0.39209  0  2.283573  0
O  O201  1  0.39543574  0.21722082  0.11332711  1  -1.116202  0  -0.34293  -0.391956  0  2.283704  0
O  O202  1  0.39538936  0.38734571  0.11326935  1  -1.118098  0  -0.342839  -0.391958  0  2.283521  0
O  O203  1  0.16943225  0.61335190  0.88735001  1  -1.112091  0  -0.342817  -0.391949  0  2.283587  0
O  O204  1  0.29158220  0.61221011  0.88756435  1  -1.107078  0  -0.341225  -0.385851  0  2.271503  0
O  O205  1  0.51619505  0.38756534  0.11215357  1  -1.083102  0  -0.340962  -0.385591  0  2.271066  0
O  O206  1  0.70838473  0.38758531  0.11219683  1  -1.106566  0  -0.341155  -0.385778  0  2.271594  0
O  O207  1  0.48377127  0.61218641  0.88756578  1  -1.0827  0  -0.341199  -0.385835  0  2.271337  0
O  O208  1  0.60457777  0.61331190  0.88735596  1  -1.117852  0  -0.342926  -0.392006  0  2.283663  0
O  O209  1  0.83053110  0.38737750  0.11333419  1  -1.1113  0  -0.342952  -0.392134  0  2.283468  0
O  O210  1  0.60460217  0.78218942  0.71732488  1  -1.09764  0  -0.342659  -0.39174  0  2.283656  0
O  O211  1  0.83055524  0.78214105  0.71726495  1  -1.113861  0  -0.342673  -0.391871  0  2.28369  0
O  O212  1  0.70841624  0.90405302  0.59624368  1  -1.105612  0  -0.341143  -0.385777  0  2.271578  0
O  O213  1  0.48379765  0.90411210  0.59630326  1  -1.086097  0  -0.341078  -0.385607  0  2.271259  0
O  O214  1  0.29161452  0.09623200  0.40407540  1  -1.105656  0  -0.341104  -0.385661  0  2.271626  0
O  O215  1  0.51622758  0.09622892  0.40406168  1  -1.083507  0  -0.341173  -0.385766  0  2.271637  0
O  O216  1  0.39542298  0.21723722  0.28212466  1  -1.098357  0  -0.342898  -0.392092  0  2.28365  0
O  O217  1  0.16946737  0.21723834  0.28213180  1  -1.112596  0  -0.342862  -0.392141  0  2.283581  0
O  O218  1  0.99944719  0.38731352  0.28216025  1  -1.117447  0  -0.342631  -0.391949  0  2.283325  0
O  O219  1  0.99934232  0.61331567  0.28210231  1  -1.124576  0  -0.342813  -0.392132  0  2.283688  0
O  O220  1  0.00025304  0.61218951  0.40402576  1  -1.085653  0  -0.341  -0.385585  0  2.271511  0
O  O221  1  0.00034641  0.38753220  0.40408239  1  -1.093748  0  -0.340846  -0.385508  0  2.271337  0
O  O222  1  0.00025979  0.38756556  0.59621652  1  -1.085252  0  -0.341045  -0.385582  0  2.27126  0
O  O223  1  0.00026672  0.61217091  0.59620936  1  -1.09771  0  -0.341077  -0.385743  0  2.271606  0
O  O224  1  0.99934177  0.61330447  0.71722069  1  -1.122967  0  -0.342782  -0.392145  0  2.283801  0
O  O225  1  0.99933468  0.38735938  0.71722596  1  -1.116573  0  -0.342831  -0.392104  0  2.283712  0
O  O226  1  0.00055361  0.78218646  0.88734338  1  -1.116397  0  -0.342719  -0.392099  0  2.282959  0
O  O227  1  0.00065655  0.78211779  0.11335272  1  -1.125295  0  -0.342723  -0.391995  0  2.283263  0
O  O228  1  0.99973590  0.90404020  0.11222579  1  -1.083196  0  -0.341055  -0.38568  0  2.271673  0
O  O229  1  0.99964842  0.90411598  0.88756618  1  -1.094187  0  -0.34115  -0.386146  0  2.271059  0
O  O230  1  0.99973907  0.09622568  0.88759326  1  -1.086366  0  -0.340889  -0.385484  0  2.27062  0
O  O231  1  0.99972371  0.09624910  0.11220086  1  -1.096585  0  -0.340927  -0.385797  0  2.271604  0
O  O232  1  0.00065601  0.21724947  0.11333311  1  -1.124064  0  -0.342824  -0.391959  0  2.283778  0
O  O233  1  0.00066200  0.21723727  0.88737567  1  -1.114833  0  -0.3428  -0.392073  0  2.283402  0
