# generated using pymatgen
data_Al2H24C29O10
_symmetry_space_group_name_H-M   'P 1'
_cell_length_a   6.64959050
_cell_length_b   17.37420469
_cell_length_c   19.02324851
_cell_angle_alpha   70.30851086
_cell_angle_beta   90.00675334
_cell_angle_gamma   90.01076696
_symmetry_Int_Tables_number   1
_chemical_formula_structural   Al2H24C29O10
_chemical_formula_sum   'Al4 H48 C58 O20'
_cell_volume   2069.25654577
_cell_formula_units_Z   2
loop_
 _symmetry_equiv_pos_site_id
 _symmetry_equiv_pos_as_xyz
  1  'x, y, z'
loop_
 _atom_site_type_symbol
 _atom_site_label
 _atom_site_symmetry_multiplicity
 _atom_site_fract_x
 _atom_site_fract_y
 _atom_site_fract_z
 _atom_site_occupancy
 _atom_site_pbe_bader_charge
 _atom_site_pbe_bader_spin_density
 _atom_site_pbe_cm5_charge
 _atom_site_pbe_ddec_charge
 _atom_site_pbe_ddec_spin_density
 _atom_site_pbe_ddec_sum_bond_order
 _atom_site_pbe_magmom
Al  Al0  1  0.86617791  0.50083484  0.49928462  1  2.501776  0  0.396193  1.642438  0  2.588837  0
Al  Al1  1  0.36617249  0.49915351  0.50071836  1  2.501817  0  0.396464  1.642375  0  2.58862  0
Al  Al2  1  0.36314125  0.00189830  0.99803358  1  2.501798  0  0.395989  1.642782  0  2.587057  0
Al  Al3  1  0.86316065  0.99810906  0.00194464  1  2.501123  0  0.395709  1.642873  0  2.586317  0
H  H4  1  0.82596126  0.08485879  0.18160271  1  0.103964  0  0.108857  0.118471  0  0.996323  0
H  H5  1  0.32593304  0.91504457  0.81841900  1  0.104039  0  0.108967  0.118679  0  0.996858  0
H  H6  1  0.40141212  0.18373396  0.09342982  1  0.099343  0  0.108799  0.118196  0  0.997554  0
H  H7  1  0.90149301  0.81631581  0.90656280  1  0.099304  0  0.108824  0.118321  0  0.997416  0
H  H8  1  0.55948076  0.29340285  0.13270676  1  0.067158  0  0.104516  0.108596  0  0.988139  0
H  H9  1  0.05950406  0.70662775  0.86734935  1  0.066442  0  0.104677  0.108623  0  0.988003  0
H  H10  1  0.56020665  0.37807829  0.21427376  1  0.066771  0  0.104512  0.108398  0  0.989009  0
H  H11  1  0.06027149  0.62194423  0.78578579  1  0.066216  0  0.104615  0.108637  0  0.988961  0
H  H12  1  0.40442245  0.41523132  0.31830806  1  0.091136  0  0.108807  0.118073  0  0.996431  0
H  H13  1  0.90456726  0.58479804  0.68172435  1  0.090591  0  0.108874  0.118097  0  0.996543  0
H  H14  1  0.82641672  0.31795799  0.40503433  1  0.069542  0  0.108547  0.1187  0  0.996812  0
H  H15  1  0.32654832  0.68197571  0.59495597  1  0.070642  0  0.108529  0.118666  0  0.996747  0
H  H16  1  0.66814058  0.20845396  0.36572151  1  0.078179  0  0.104662  0.110142  0  0.986178  0
H  H17  1  0.16824405  0.79145758  0.63425936  1  0.076864  0  0.104692  0.110211  0  0.986049  0
H  H18  1  0.66804475  0.12335526  0.28446361  1  0.074186  0  0.104278  0.107804  0  0.988586  0
H  H19  1  0.16806017  0.87652664  0.71554199  1  0.075582  0  0.104278  0.107768  0  0.98877  0
H  H20  1  0.36539490  0.14420004  0.76964055  1  0.042806  0  0.094211  0.092918  0  0.991787  0
H  H21  1  0.86683507  0.85538074  0.23003013  1  0.05528  0  0.094409  0.093465  0  0.992561  0
H  H22  1  0.13362426  0.11258566  0.74288872  1  -0.006485  0  0.09284  0.08918  0  0.976136  0
H  H23  1  0.63611570  0.88747287  0.25709808  1  0.023598  0  0.092692  0.089285  0  0.975473  0
H  H24  1  0.14116193  0.22327692  0.63187614  1  0.035205  0  0.09169  0.086798  0  0.97618  0
H  H25  1  0.64324960  0.77676960  0.36808821  1  0.035354  0  0.091627  0.086786  0  0.976603  0
H  H26  1  0.37110719  0.25632370  0.65871632  1  0.032113  0  0.091976  0.088836  0  0.993397  0
H  H27  1  0.87235056  0.74332758  0.34103804  1  0.02574  0  0.092043  0.088852  0  0.993247  0
H  H28  1  0.38110401  0.23847891  0.83560826  1  0.027896  0  0.093976  0.059741  0  0.974395  0
H  H29  1  0.87973073  0.76116611  0.16400730  1  0.035659  0  0.094204  0.060104  0  0.974245  0
H  H30  1  0.37314630  0.35504364  0.73096061  1  0.044717  0  0.094879  0.097539  0  0.98949  0
H  H31  1  0.87197171  0.64469179  0.26873130  1  0.048912  0  0.094678  0.097095  0  0.988894  0
H  H32  1  0.80832972  0.22999690  0.83145433  1  0.043407  0  0.088152  0.080282  0  1.006583  0
H  H33  1  0.30704825  0.77071691  0.16905044  1  0.010514  0  0.088154  0.080042  0  1.006579  0
H  H34  1  0.80826304  0.16260241  0.78069257  1  0.036976  0  0.092532  0.090644  0  0.984193  0
H  H35  1  0.30927144  0.83796852  0.21994868  1  0.04388  0  0.092469  0.09084  0  0.983913  0
H  H36  1  0.80969817  0.27377319  0.66956403  1  0.018457  0  0.088787  0.082079  0  0.992465  0
H  H37  1  0.31043039  0.72657969  0.33091263  1  0.010275  0  0.088596  0.081724  0  0.992847  0
H  H38  1  0.81387644  0.34142002  0.72040394  1  0.009457  0  0.09162  0.089665  0  0.985538  0
H  H39  1  0.31317136  0.65907281  0.27992306  1  0.014619  0  0.091809  0.089438  0  0.986572  0
H  H40  1  0.14301492  0.38637138  0.75930403  1  0.010151  0  0.092343  0.091702  0  0.98229  0
H  H41  1  0.64100561  0.61360824  0.24074213  1  0.003581  0  0.092405  0.091704  0  0.982323  0
H  H42  1  0.24246643  0.33350708  0.89665796  1  0.012032  0  0.088194  0.120148  0  0.998411  0
H  H43  1  0.99405895  0.30469659  0.88270192  1  -0.001352  0  0.085439  0.114312  0  1.012957  0
H  H44  1  0.16045633  0.23190577  0.94320050  1  0.006246  0  0.087489  0.121336  0  1.021049  0
H  H45  1  0.73854813  0.66628806  0.10326526  1  0.028937  0  0.088078  0.120192  0  0.999299  0
H  H46  1  0.49082135  0.69547581  0.11762696  1  0.032431  0  0.085068  0.113848  0  1.012905  0
H  H47  1  0.65721437  0.76800208  0.05680121  1  0.055278  0  0.087555  0.121721  0  1.020816  0
H  H48  1  0.61927061  0.39425507  0.54247918  1  0.622333  0  0.352569  0.427232  0  0.86076  0
H  H49  1  0.11934409  0.60569346  0.45738105  1  0.622349  0  0.352633  0.427274  0  0.86069  0
H  H50  1  0.61985344  0.10582268  0.95784861  1  0.622243  0  0.352593  0.42785  0  0.859266  0
H  H51  1  0.11972977  0.89419913  0.04221421  1  0.621833  0  0.352664  0.427943  0  0.859177  0
C  C52  1  0.61436014  0.61547259  0.38425312  1  1.557582  0  0.276931  0.644337  0  4.015959  0
C  C53  1  0.11437428  0.38454330  0.61576892  1  1.558524  0  0.276853  0.644463  0  4.016746  0
C  C54  1  0.61636869  0.58000840  0.58303666  1  1.570142  0  0.262217  0.636176  0  4.111069  0
C  C55  1  0.11629378  0.41997806  0.41696843  1  1.570648  0  0.26206  0.636371  0  4.11157  0
C  C56  1  0.95160712  0.12526051  0.18153728  1  -0.027239  0  -0.081721  -0.148527  0  3.933872  0
C  C57  1  0.45160341  0.87467533  0.81848146  1  -0.027079  0  -0.081792  -0.148699  0  3.93393  0
C  C58  1  0.11379372  0.12996619  0.13336032  1  -0.041105  0  -0.019927  -0.041091  0  4.028871  0
C  C59  1  0.61383988  0.87001867  0.86663747  1  -0.039105  0  -0.019921  -0.040972  0  4.0287  0
C  C60  1  0.27627251  0.18199257  0.13099593  1  -0.010734  0  -0.082015  -0.149665  0  3.938549  0
C  C61  1  0.77632998  0.81802653  0.86900912  1  -0.011123  0  -0.082061  -0.149931  0  3.938313  0
C  C62  1  0.27707049  0.23223528  0.17527509  1  -0.026058  0  -0.009783  0.071911  0  4.048696  0
C  C63  1  0.77712608  0.76776414  0.82474963  1  -0.025757  0  -0.009609  0.072404  0  4.048414  0
C  C64  1  0.11402828  0.22634090  0.22596315  1  -0.066362  0  0.00244  0.000614  0  3.915702  0
C  C65  1  0.61407752  0.77362770  0.77405426  1  -0.065651  0  0.002282  0.000343  0  3.915584  0
C  C66  1  0.95102109  0.17123337  0.22963960  1  0.014247  0  -0.009944  0.071111  0  4.049597  0
C  C67  1  0.45104952  0.82870675  0.77037352  1  0.012679  0  -0.009838  0.071215  0  4.049305  0
C  C68  1  0.43613790  0.28921267  0.17167859  1  -0.063913  0  -0.089974  -0.131327  0  4.019094  0
C  C69  1  0.93617450  0.71080268  0.82836344  1  -0.065379  0  -0.090148  -0.131358  0  4.018584  0
C  C70  1  0.43642546  0.33599327  0.21669435  1  -0.058047  0  -0.090073  -0.132209  0  4.02008  0
C  C71  1  0.93649450  0.66401927  0.78334437  1  -0.056791  0  -0.09035  -0.132771  0  4.019789  0
C  C72  1  0.27751001  0.33005762  0.26927151  1  0.005735  0  -0.009022  0.073424  0  4.048934  0
C  C73  1  0.77760692  0.66994743  0.73075206  1  0.00561  0  -0.008871  0.073371  0  4.048532  0
C  C74  1  0.11409988  0.27520757  0.27269175  1  0.020489  0  0.001626  -0.001047  0  3.915473  0
C  C75  1  0.61418639  0.72476922  0.72731891  1  0.020247  0  0.001542  -0.001009  0  3.915388  0
C  C76  1  0.95092527  0.26934819  0.32331131  1  -0.048511  0  -0.010093  0.07231  0  4.049792  0
C  C77  1  0.45101451  0.73060659  0.67668667  1  -0.046446  0  -0.010014  0.072319  0  4.050078  0
C  C78  1  0.79165185  0.21249014  0.32684169  1  -0.067907  0  -0.089903  -0.132975  0  4.01823  0
C  C79  1  0.29173447  0.78743886  0.67315185  1  -0.068235  0  -0.089991  -0.133164  0  4.01771  0
C  C80  1  0.79173571  0.16549363  0.28202755  1  -0.051974  0  -0.089365  -0.129898  0  4.018242  0
C  C81  1  0.29177843  0.83442245  0.71798112  1  -0.050999  0  -0.089375  -0.129748  0  4.017513  0
C  C82  1  0.27783676  0.37543470  0.31791426  1  -0.033482  0  -0.082725  -0.151089  0  3.936958  0
C  C83  1  0.77795390  0.62457572  0.68209927  1  -0.034192  0  -0.082725  -0.151047  0  3.937315  0
C  C84  1  0.11537353  0.37084983  0.36592686  1  -0.022176  0  -0.019309  -0.037781  0  4.026035  0
C  C85  1  0.61553997  0.62913723  0.63407319  1  -0.023013  0  -0.019358  -0.037615  0  4.026195  0
C  C86  1  0.95198942  0.31944188  0.36770860  1  0.004402  0  -0.082744  -0.152203  0  3.939287  0
C  C87  1  0.45210689  0.68051800  0.63228826  1  0.00501  0  -0.082747  -0.152234  0  3.938982  0
C  C88  1  0.21233053  0.16479666  0.75072737  1  -0.004791  0  -0.155178  -0.170198  0  3.859444  0
C  C89  1  0.71370473  0.83509256  0.24916624  1  -0.040468  0  -0.155206  -0.171143  0  3.862286  0
C  C90  1  0.21602227  0.23859526  0.67704641  1  -0.04077  0  -0.155521  -0.168986  0  3.859689  0
C  C91  1  0.71729013  0.76131260  0.32285386  1  -0.04001  0  -0.155854  -0.169018  0  3.861024  0
C  C92  1  0.22503594  0.26035818  0.82405219  1  0.006888  0  -0.081449  0.049221  0  3.792927  0
C  C93  1  0.72357965  0.73951469  0.17584474  1  0.011707  0  -0.081768  0.049264  0  3.793368  0
C  C94  1  0.88890016  0.21486635  0.78743033  1  -0.064436  0  -0.164366  -0.17708  0  3.896274  0
C  C95  1  0.38880353  0.78559492  0.21297814  1  -0.034937  0  -0.164152  -0.175885  0  3.896312  0
C  C96  1  0.10504314  0.18840732  0.81269452  1  0.051077  0  -0.014322  -0.021476  0  3.78707  0
C  C97  1  0.60490819  0.81167295  0.18736228  1  0.040387  0  -0.014397  -0.022902  0  3.788761  0
C  C98  1  0.10848564  0.31241621  0.68835004  1  0.033629  0  -0.014869  0.014057  0  3.821014  0
C  C99  1  0.60849920  0.68765127  0.31170476  1  0.030771  0  -0.014718  0.014629  0  3.819805  0
C  C100  1  0.22021141  0.33444992  0.75017161  1  -0.026383  0  -0.155138  -0.210632  0  3.827134  0
C  C101  1  0.71898106  0.66544680  0.24974110  1  -0.022693  0  -0.154706  -0.210043  0  3.825873  0
C  C102  1  0.89098121  0.28833746  0.71380826  1  0.00793  0  -0.163659  -0.178326  0  3.893008  0
C  C103  1  0.39096181  0.71202323  0.28652040  1  0.016098  0  -0.163806  -0.178366  0  3.893877  0
C  C104  1  0.61257057  0.91963961  0.91721848  1  1.565561  0  0.261793  0.632584  0  4.11887  0
C  C105  1  0.11242376  0.08038124  0.08274778  1  1.566855  0  0.261879  0.633086  0  4.118409  0
C  C106  1  0.60977891  0.88440958  0.11541236  1  1.558998  0  0.27637  0.645674  0  4.028259  0
C  C107  1  0.11004069  0.11562513  0.88460269  1  1.555433  0  0.276061  0.644367  0  4.028713  0
C  C108  1  0.15102764  0.28348694  0.89043309  1  -0.004396  0  -0.24503  -0.39617  0  3.952274  0
C  C109  1  0.64797876  0.71645956  0.10961250  1  -0.115159  0  -0.244535  -0.396244  0  3.953956  0
O  O110  1  0.44560821  0.56245669  0.56211770  1  -1.259598  0  -0.239033  -0.593639  0  2.348738  0
O  O111  1  0.94547075  0.43754245  0.43787247  1  -1.259811  0  -0.239071  -0.594015  0  2.347236  0
O  O112  1  0.78638778  0.58912045  0.41151980  1  -1.265659  0  -0.237461  -0.599741  0  2.336164  0
O  O113  1  0.28631820  0.41087571  0.58848579  1  -1.267124  0  -0.237213  -0.599393  0  2.338058  0
O  O114  1  0.78751786  0.56108473  0.56358303  1  -1.251906  0  -0.238549  -0.591217  0  2.342238  0
O  O115  1  0.28738825  0.43890131  0.43642214  1  -1.251856  0  -0.238365  -0.591082  0  2.344292  0
O  O116  1  0.94686895  0.41337769  0.58650880  1  -1.267133  0  -0.230921  -0.590823  0  2.382247  0
O  O117  1  0.44693950  0.58661264  0.41348539  1  -1.267577  0  -0.230697  -0.590351  0  2.38352  0
O  O118  1  0.61660312  0.45046459  0.50920414  1  -1.426504  0  -0.448727  -0.990533  0  2.212903  0
O  O119  1  0.11662331  0.54953458  0.49077693  1  -1.426451  0  -0.448866  -0.990551  0  2.212629  0
O  O120  1  0.78253656  0.91086375  0.08933671  1  -1.271023  0  -0.236312  -0.601581  0  2.363181  0
O  O121  1  0.28275686  0.08890237  0.91042294  1  -1.269769  0  -0.236294  -0.600793  0  2.363856  0
O  O122  1  0.44151194  0.94150695  0.93389413  1  -1.250097  0  -0.23844  -0.590343  0  2.349213  0
O  O123  1  0.94129881  0.05818897  0.06637282  1  -1.250876  0  -0.238256  -0.590443  0  2.348403  0
O  O124  1  0.44309928  0.91364963  0.08547678  1  -1.271068  0  -0.231701  -0.591624  0  2.366407  0
O  O125  1  0.94335692  0.08658851  0.91474903  1  -1.269126  0  -0.231548  -0.591437  0  2.366269  0
O  O126  1  0.28228003  0.06574313  0.05889802  1  -1.258875  0  -0.240314  -0.59753  0  2.35232  0
O  O127  1  0.78262099  0.93461056  0.94075157  1  -1.259492  0  -0.240104  -0.597073  0  2.3515  0
O  O128  1  0.61463319  0.04954204  0.99088864  1  -1.426458  0  -0.448556  -0.988211  0  2.210549  0
O  O129  1  0.11461404  0.95045382  0.00911076  1  -1.425842  0  -0.448717  -0.98847  0  2.210632  0
