# generated using pymatgen
data_Mn3H16C8(N3O8)2
_symmetry_space_group_name_H-M   'P 1'
_cell_length_a   7.12463733
_cell_length_b   7.49113989
_cell_length_c   9.62727296
_cell_angle_alpha   80.02930270
_cell_angle_beta   87.87712218
_cell_angle_gamma   75.80708334
_symmetry_Int_Tables_number   1
_chemical_formula_structural   Mn3H16C8(N3O8)2
_chemical_formula_sum   'Mn3 H16 C8 N6 O16'
_cell_volume   490.60781456
_cell_formula_units_Z   1
loop_
 _symmetry_equiv_pos_site_id
 _symmetry_equiv_pos_as_xyz
  1  'x, y, z'
loop_
 _atom_site_type_symbol
 _atom_site_label
 _atom_site_symmetry_multiplicity
 _atom_site_fract_x
 _atom_site_fract_y
 _atom_site_fract_z
 _atom_site_occupancy
 _atom_site_hle17_ddec_charge
 _atom_site_hle17_ddec_spin_density
 _atom_site_hle17_ddec_sum_bond_order
 _atom_site_hle17_magmom
 _atom_site_hse06_10hf_ddec_charge
 _atom_site_hse06_10hf_ddec_spin_density
 _atom_site_hse06_10hf_ddec_sum_bond_order
 _atom_site_hse06_10hf_magmom
 _atom_site_hse06_ddec_charge
 _atom_site_hse06_ddec_spin_density
 _atom_site_hse06_ddec_sum_bond_order
 _atom_site_hse06_magmom
 _atom_site_pbe_cm5_charge
 _atom_site_pbe_ddec_charge
 _atom_site_pbe_ddec_spin_density
 _atom_site_pbe_ddec_sum_bond_order
 _atom_site_pbe_magmom
Mn  Mn0  1  0.99981158  0.00018403  0.49976760  1  1.17638  4.811759  1.760182  4.685  1.004661  4.741696  2.258064  4.546  1.060253  4.778932  2.189429  4.603  0.622973  0.960988  4.70499  2.309288  4.493
Mn  Mn1  1  0.27633590  0.64243199  0.90572888  1  1.251144  4.808008  1.656674  4.695  1.087873  4.742136  2.145551  4.56  1.143917  4.77619  2.07497  4.613  0.617873  1.043547  4.709402  2.198141  4.511
Mn  Mn2  1  0.72310791  0.35807528  0.09431721  1  1.250661  4.806183  1.655537  4.695  1.087331  4.740033  2.144356  4.56  1.143441  4.774119  2.073784  4.613  0.61813  1.042949  4.707262  2.19693  4.511
H  H3  1  0.02593960  0.66841524  0.39638806  1  0.434221  0.000478  0.8668  0.002  0.403503  0.00125  0.929102  0.003  0.41413  0.000879  0.913642  0.002  0.297054  0.395857  0.001611  0.940183  0.003
H  H4  1  0.97298694  0.33114230  0.60399942  1  0.433103  0.000465  0.868339  0.002  0.402462  0.00124  0.930561  0.003  0.413092  0.00087  0.915083  0.002  0.29715  0.39483  0.001602  0.941639  0.003
H  H5  1  0.81433735  0.71593097  0.46906981  1  0.403868  0.000559  0.913676  0.002  0.363539  0.001315  0.993619  0.003  0.374906  0.00094  0.977352  0.002  0.285317  0.355375  0.001686  1.005264  0.003
H  H6  1  0.18475686  0.28486501  0.53113664  1  0.404431  0.000575  0.912779  0.002  0.363894  0.001338  0.993053  0.003  0.37526  0.000959  0.976778  0.002  0.285514  0.355724  0.001713  1.004713  0.003
H  H7  1  0.30687692  0.29727407  0.80763214  1  0.437434  -8.1e-05  0.857226  0.001  0.400284  0.000552  0.929625  0.001  0.411735  0.000285  0.912981  0.001  0.301482  0.392171  0.000822  0.941367  0.002
H  H8  1  0.69337514  0.70210214  0.19196623  1  0.438002  -8e-05  0.856254  0.001  0.400784  0.000561  0.928782  0.001  0.412202  0.000292  0.912186  0.001  0.302442  0.392683  0.000833  0.940519  0.002
H  H9  1  0.08064598  0.40935852  0.80597791  1  0.435708  -0.000263  0.864169  0.001  0.403363  0.000353  0.929364  0.001  0.41433  0.000116  0.913362  0.001  0.305756  0.395499  0.000592  0.940822  0.001
H  H10  1  0.91959017  0.58985935  0.19304272  1  0.435373  -0.000259  0.864793  0.001  0.402694  0.000363  0.93054  0.001  0.413738  0.000126  0.914472  0.001  0.305527  0.394764  0.000601  0.942064  0.001
H  H11  1  0.38337691  0.88913441  0.05522288  1  0.419716  5e-05  0.883271  0.001  0.387305  0.000762  0.948855  0.002  0.3984  0.000454  0.932691  0.002  0.29631  0.378447  0.001198  0.961775  0.003
H  H12  1  0.61954397  0.11049511  0.94570074  1  0.420076  2.1e-05  0.882283  0.001  0.387412  0.000735  0.948111  0.002  0.398485  0.00043  0.932015  0.002  0.297033  0.378577  0.001165  0.960963  0.002
H  H13  1  0.40477165  0.96542634  0.89101641  1  0.422792  4.8e-05  0.878446  0.001  0.390377  0.00076  0.944156  0.002  0.400731  0.000434  0.929091  0.002  0.299253  0.382694  0.001141  0.955458  0.002
H  H14  1  0.59828656  0.03356770  0.10965685  1  0.421997  4e-05  0.87915  0.001  0.389725  0.000756  0.944652  0.002  0.400037  0.000431  0.92965  0.002  0.299634  0.382076  0.001137  0.955903  0.002
H  H15  1  0.89795106  0.84514792  0.83539806  1  0.436055  -6.1e-05  0.863264  0.002  0.403072  0.000918  0.928525  0.003  0.415015  0.000498  0.91111  0.002  0.299123  0.394519  0.001319  0.94099  0.003
H  H16  1  0.10182756  0.15516608  0.16357845  1  0.436885  -5.2e-05  0.861683  0.002  0.403627  0.000925  0.927373  0.003  0.415594  0.000505  0.909943  0.002  0.299471  0.395063  0.001326  0.939831  0.003
H  H17  1  0.88987904  0.71847015  0.98933349  1  0.432352  0.00012  0.865079  0.002  0.402037  0.001212  0.927428  0.003  0.413216  0.000733  0.91098  0.003  0.299864  0.393947  0.001671  0.939285  0.004
H  H18  1  0.10979220  0.28285234  0.01004972  1  0.432432  0.000126  0.864897  0.002  0.402002  0.001209  0.927422  0.003  0.413226  0.000733  0.910935  0.003  0.299885  0.393882  0.001665  0.9393  0.004
C  C19  1  0.36929143  0.90004937  0.32169445  1  0.641783  0.001305  3.888288  0.002  0.579642  0.004199  4.197155  0.004  0.614125  0.002719  4.188881  0.003  0.23414  0.555595  0.005724  4.2028  0.005
C  C20  1  0.63088602  0.10031267  0.67835722  1  0.641882  0.001316  3.889965  0.002  0.579248  0.004235  4.198961  0.004  0.613764  0.002745  4.190654  0.003  0.23409  0.555154  0.005771  4.20462  0.005
C  C21  1  0.42184742  0.80143188  0.46774022  1  0.161482  0.005763  3.764454  0.006  0.138812  0.008795  4.04602  0.009  0.141376  0.007433  4.063426  0.007  0.203832  0.136898  0.010372  4.034805  0.01
C  C22  1  0.57818320  0.19959579  0.53249904  1  0.158383  0.005784  3.768098  0.006  0.136582  0.008802  4.048765  0.009  0.139195  0.007438  4.066064  0.008  0.202362  0.134708  0.01038  4.037507  0.01
C  C23  1  0.55530273  0.63786278  0.65462269  1  0.170525  0.006918  3.763364  0.008  0.149364  0.009788  4.040649  0.01  0.152975  0.008353  4.056581  0.009  0.206109  0.147136  0.011303  4.029673  0.011
C  C24  1  0.44405183  0.36269753  0.34564984  1  0.169301  0.006975  3.762919  0.008  0.148513  0.009843  4.040199  0.01  0.152059  0.008408  4.056275  0.009  0.205042  0.146283  0.011362  4.029185  0.011
C  C25  1  0.69176257  0.51775126  0.76528501  1  0.642294  0.002738  3.911194  0.003  0.583039  0.007217  4.216952  0.007  0.618207  0.004929  4.207217  0.005  0.235702  0.558533  0.009691  4.222954  0.008
C  C26  1  0.30671055  0.48146816  0.23499029  1  0.644193  0.002738  3.909392  0.003  0.584345  0.007191  4.215538  0.007  0.619488  0.004911  4.205828  0.005  0.236008  0.559878  0.009652  4.221516  0.008
N  N27  1  0.28690580  0.82232302  0.57004060  1  -0.254221  0.027659  3.146007  0.016  -0.206222  0.033758  3.435567  0.017  -0.218717  0.029415  3.449572  0.014  -0.215761  -0.197119  0.037772  3.426139  0.02
N  N28  1  0.71296474  0.17897432  0.42999137  1  -0.252639  0.027624  3.145502  0.016  -0.204661  0.033719  3.434658  0.017  -0.217152  0.029379  3.448632  0.014  -0.214629  -0.195581  0.037737  3.425209  0.02
N  N29  1  0.37154888  0.71755327  0.68911659  1  -0.284043  0.029764  3.155609  0.016  -0.236179  0.035827  3.44878  0.016  -0.250447  0.030787  3.462476  0.013  -0.219402  -0.225252  0.040682  3.439645  0.02
N  N30  1  0.62787096  0.28349316  0.31096654  1  -0.284834  0.029757  3.157047  0.016  -0.237241  0.035817  3.45061  0.016  -0.251509  0.030764  3.464312  0.012  -0.219545  -0.226287  0.040695  3.44145  0.02
N  N31  1  0.59216762  0.68667555  0.51671984  1  -0.381159  -8.8e-05  3.046035  0.0  -0.341689  0.002455  3.305143  0.003  -0.354158  0.000988  3.31879  0.001  -0.309453  -0.333078  0.004036  3.296174  0.004
N  N32  1  0.40756389  0.31382508  0.48363664  1  -0.379676  -9.3e-05  3.045057  0.0  -0.340621  0.002475  3.303909  0.003  -0.353056  0.001  3.317568  0.001  -0.308517  -0.332044  0.004065  3.29493  0.004
O  O33  1  0.20028241  0.00839749  0.30666754  1  -0.611398  0.025614  2.027635  0.017  -0.536444  0.033921  2.26681  0.023  -0.565729  0.030202  2.253715  0.02  -0.277418  -0.515325  0.037316  2.275721  0.025
O  O34  1  0.79971896  0.99158706  0.69273710  1  -0.610603  0.025727  2.030486  0.017  -0.535548  0.033991  2.269876  0.023  -0.564909  0.030275  2.25684  0.02  -0.277093  -0.514404  0.037392  2.278799  0.026
O  O35  1  0.48967793  0.87148433  0.22171493  1  -0.643739  0.002147  2.049895  0.003  -0.570754  0.004542  2.266981  0.006  -0.596899  0.00313  2.255081  0.005  -0.296935  -0.551974  0.005933  2.275787  0.007
O  O36  1  0.51103060  0.12852362  0.77869054  1  -0.643238  0.002154  2.049098  0.003  -0.570074  0.004567  2.265941  0.006  -0.596264  0.003146  2.254159  0.005  -0.296511  -0.551236  0.005964  2.274612  0.007
O  O37  1  0.61819700  0.50338577  0.88953755  1  -0.674897  0.050409  2.119374  0.029  -0.597732  0.063652  2.40646  0.037  -0.630939  0.057773  2.390093  0.033  -0.294248  -0.572667  0.06916  2.416662  0.042
O  O38  1  0.37962053  0.49562744  0.11052633  1  -0.675359  0.0501  2.117061  0.029  -0.597819  0.063404  2.403548  0.037  -0.63098  0.057542  2.387255  0.033  -0.293608  -0.572883  0.068897  2.413813  0.042
O  O39  1  0.86170021  0.44121728  0.73401312  1  -0.597789  0.002802  2.044133  0.004  -0.536812  0.006534  2.265406  0.008  -0.560371  0.004719  2.252554  0.006  -0.286374  -0.520317  0.008696  2.274134  0.01
O  O40  1  0.13655110  0.55668973  0.26677517  1  -0.598918  0.002771  2.044868  0.004  -0.537203  0.006495  2.266154  0.008  -0.560786  0.00468  2.253285  0.006  -0.286895  -0.520683  0.008648  2.274894  0.01
O  O41  1  0.93889199  0.75597656  0.45038117  1  -0.874777  0.035335  1.938817  0.023  -0.814203  0.045415  2.169269  0.029  -0.83845  0.040012  2.131483  0.024  -0.590163  -0.795372  0.050523  2.195703  0.033
O  O42  1  0.06049573  0.24433299  0.54965221  1  -0.874822  0.03533  1.939891  0.023  -0.8142  0.045419  2.170548  0.029  -0.838477  0.04  2.132924  0.024  -0.590761  -0.79541  0.050557  2.1969  0.033
O  O43  1  0.20755815  0.38374440  0.85588066  1  -0.854422  0.027359  1.924438  0.017  -0.784864  0.036963  2.131834  0.023  -0.809865  0.032955  2.094924  0.02  -0.552134  -0.766217  0.040542  2.157614  0.026
O  O44  1  0.79244776  0.61629310  0.14305589  1  -0.854591  0.027687  1.924893  0.017  -0.784722  0.037286  2.133259  0.023  -0.809774  0.033258  2.096055  0.02  -0.552821  -0.766019  0.040877  2.159254  0.026
O  O45  1  0.33405051  0.89232109  0.95951176  1  -0.840584  0.03208  1.89524  0.021  -0.778427  0.041655  2.100555  0.026  -0.801322  0.036871  2.062837  0.023  -0.572483  -0.76128  0.045956  2.129164  0.03
O  O46  1  0.66988506  0.10589815  0.04128974  1  -0.838413  0.032053  1.896475  0.021  -0.775718  0.041578  2.101318  0.026  -0.798668  0.036813  2.063706  0.023  -0.571918  -0.758533  0.045867  2.129839  0.03
O  O47  1  0.97287746  0.74140734  0.90639758  1  -0.861136  0.036373  1.883757  0.022  -0.792203  0.046238  2.096569  0.026  -0.817188  0.040779  2.056802  0.022  -0.580094  -0.773105  0.051415  2.124591  0.03
O  O48  1  0.02677082  0.25920157  0.09287864  1  -0.861218  0.036259  1.882368  0.022  -0.792155  0.046096  2.095626  0.026  -0.817235  0.040642  2.055686  0.022  -0.580315  -0.772992  0.051273  2.123783  0.03
