# generated using pymatgen
data_CdH10C12I2(N2O)2
_symmetry_space_group_name_H-M   'P 1'
_cell_length_a   7.63116013
_cell_length_b   14.71606883
_cell_length_c   18.82717942
_cell_angle_alpha   89.99761859
_cell_angle_beta   89.99766860
_cell_angle_gamma   90.00072833
_symmetry_Int_Tables_number   1
_chemical_formula_structural   CdH10C12I2(N2O)2
_chemical_formula_sum   'Cd4 H40 C48 I8 N16 O8'
_cell_volume   2114.30500590
_cell_formula_units_Z   4
loop_
 _symmetry_equiv_pos_site_id
 _symmetry_equiv_pos_as_xyz
  1  'x, y, z'
loop_
 _atom_site_type_symbol
 _atom_site_label
 _atom_site_symmetry_multiplicity
 _atom_site_fract_x
 _atom_site_fract_y
 _atom_site_fract_z
 _atom_site_occupancy
 _atom_site_pbe_bader_charge
 _atom_site_pbe_bader_spin_density
 _atom_site_pbe_cm5_charge
 _atom_site_pbe_ddec_charge
 _atom_site_pbe_ddec_spin_density
 _atom_site_pbe_ddec_sum_bond_order
 _atom_site_pbe_magmom
Cd  Cd0  1  0.54656964  0.92646559  0.78589351  1  0.957663  0  0.541977  0.566813  0  2.538047  0
Cd  Cd1  1  0.95342369  0.07352880  0.28591098  1  0.957931  0  0.541999  0.566759  0  2.537956  0
Cd  Cd2  1  0.45343831  0.42646544  0.71409354  1  0.957754  0  0.542013  0.566815  0  2.537976  0
Cd  Cd3  1  0.04656478  0.57353627  0.21410832  1  0.957684  0  0.541956  0.566771  0  2.53801  0
H  H4  1  0.23463763  0.97822913  0.91279213  1  0.584269  0  0.302032  0.384318  0  0.909558  0
H  H5  1  0.26534183  0.02175803  0.41279957  1  0.584356  0  0.302015  0.384256  0  0.90979  0
H  H6  1  0.76535849  0.47825809  0.58719694  1  0.584233  0  0.302019  0.384159  0  0.90967  0
H  H7  1  0.73464929  0.52178347  0.08720815  1  0.58411  0  0.302044  0.384295  0  0.909681  0
H  H8  1  0.43509142  0.97851484  0.92628903  1  0.584217  0  0.251799  0.336154  0  1.018465  0
H  H9  1  0.06489719  0.02146210  0.42631416  1  0.585709  0  0.251697  0.336102  0  1.018506  0
H  H10  1  0.56491258  0.47855203  0.57369260  1  0.585594  0  0.25168  0.335975  0  1.018682  0
H  H11  1  0.93510047  0.52149840  0.07370419  1  0.584767  0  0.251797  0.336218  0  1.018408  0
H  H12  1  0.87957354  0.85983281  0.88533476  1  0.110165  0  0.10364  0.08139  0  1.026279  0
H  H13  1  0.62043090  0.14014139  0.38536570  1  0.109712  0  0.103687  0.081439  0  1.026262  0
H  H14  1  0.12046552  0.35984593  0.61464704  1  0.110147  0  0.103706  0.08154  0  1.026256  0
H  H15  1  0.37958018  0.64017190  0.11466098  1  0.110171  0  0.103655  0.081427  0  1.026371  0
H  H16  1  0.99721128  0.72346422  0.95068462  1  0.092077  0  0.113107  0.124402  0  0.97235  0
H  H17  1  0.50277359  0.27650043  0.45070828  1  0.091556  0  0.113183  0.124377  0  0.972643  0
H  H18  1  0.00282571  0.22349291  0.54929474  1  0.09157  0  0.113151  0.124269  0  0.972713  0
H  H19  1  0.49722646  0.77654059  0.04931234  1  0.091785  0  0.113154  0.124384  0  0.972617  0
H  H20  1  0.81804007  0.58045053  0.95246674  1  0.156958  0  0.113359  0.123426  0  0.996384  0
H  H21  1  0.68191055  0.41953169  0.45248166  1  0.156544  0  0.113332  0.123477  0  0.996059  0
H  H22  1  0.18195538  0.08046146  0.54751890  1  0.157049  0  0.113332  0.123496  0  0.995984  0
H  H23  1  0.31807863  0.91955854  0.04753002  1  0.155815  0  0.113396  0.123406  0  0.996636  0
H  H24  1  0.52842275  0.57824958  0.88881123  1  0.162972  0  0.100121  0.117649  0  1.038366  0
H  H25  1  0.97154335  0.42174278  0.38881804  1  0.16314  0  0.100161  0.117702  0  1.038171  0
H  H26  1  0.47157395  0.07825226  0.61118883  1  0.163117  0  0.100123  0.117669  0  1.038204  0
H  H27  1  0.02844588  0.92176167  0.11119303  1  0.162857  0  0.100135  0.117657  0  1.038259  0
H  H28  1  0.08601555  0.51201624  0.81983382  1  0.138467  0  0.092032  0.111719  0  1.066328  0
H  H29  1  0.41395609  0.48797039  0.31984687  1  0.138321  0  0.092003  0.111768  0  1.066236  0
H  H30  1  0.91400703  0.01203039  0.68014184  1  0.138271  0  0.092066  0.111891  0  1.066132  0
H  H31  1  0.58602299  0.98799811  0.18017532  1  0.138484  0  0.092058  0.111751  0  1.066188  0
H  H32  1  0.82141640  0.42042968  0.79251813  1  0.13322  0  0.116544  0.09193  0  1.024439  0
H  H33  1  0.67856972  0.57955689  0.29253317  1  0.133684  0  0.11648  0.091808  0  1.024397  0
H  H34  1  0.17860712  0.92043836  0.70745583  1  0.133819  0  0.11642  0.091751  0  1.02413  0
H  H35  1  0.32141759  0.07957322  0.20749815  1  0.133073  0  0.116574  0.091998  0  1.024542  0
H  H36  1  0.59939175  0.62933976  0.67456422  1  0.148178  0  0.098068  0.076995  0  1.047128  0
H  H37  1  0.90062702  0.37065847  0.17457549  1  0.148412  0  0.098006  0.076919  0  1.047091  0
H  H38  1  0.40061145  0.12933747  0.82542354  1  0.148543  0  0.098088  0.076994  0  1.047162  0
H  H39  1  0.09935570  0.87064207  0.32542611  1  0.148344  0  0.098  0.07691  0  1.047296  0
H  H40  1  0.85350657  0.73213984  0.69798346  1  0.136569  0  0.101283  0.121596  0  1.032606  0
H  H41  1  0.64649547  0.26785579  0.19800022  1  0.136469  0  0.101222  0.121537  0  1.032661  0
H  H42  1  0.14650705  0.23214325  0.80199986  1  0.13654  0  0.101163  0.121482  0  1.032592  0
H  H43  1  0.35348471  0.76784636  0.30200156  1  0.136212  0  0.101243  0.121535  0  1.032556  0
C  C44  1  0.80706728  0.79590648  0.88759326  1  0.51539  0  0.049317  0.099693  0  3.951797  0
C  C45  1  0.69292384  0.20407372  0.38761345  1  0.515778  0  0.049385  0.099767  0  3.951834  0
C  C46  1  0.19294923  0.29592426  0.61239170  1  0.51525  0  0.049225  0.099452  0  3.952193  0
C  C47  1  0.30708621  0.70409844  0.11240582  1  0.515304  0  0.049391  0.099667  0  3.95182  0
C  C48  1  0.87106137  0.71993368  0.92368222  1  -0.041526  0  -0.077439  -0.120356  0  3.939914  0
C  C49  1  0.62891699  0.28004258  0.42370100  1  -0.041058  0  -0.077614  -0.120492  0  3.940835  0
C  C50  1  0.12895980  0.21996110  0.57630363  1  -0.04057  0  -0.07756  -0.120265  0  3.9405  0
C  C51  1  0.37108576  0.78006758  0.07631260  1  -0.042417  0  -0.077499  -0.120214  0  3.940176  0
C  C52  1  0.77190506  0.64030542  0.92418735  1  -0.010103  0  -0.059016  -0.003761  0  3.926189  0
C  C53  1  0.72805753  0.35966402  0.42419602  1  -0.009511  0  -0.058799  -0.003515  0  3.926275  0
C  C54  1  0.22810890  0.14032604  0.57580855  1  -0.010278  0  -0.05889  -0.003692  0  3.92597  0
C  C55  1  0.27194195  0.85969859  0.07581231  1  -0.00699  0  -0.058928  -0.003664  0  3.926353  0
C  C56  1  0.60995365  0.63930009  0.88991593  1  -0.069097  0  -0.073029  -0.134172  0  3.899974  0
C  C57  1  0.89001496  0.36068202  0.38992982  1  -0.069267  0  -0.07318  -0.134335  0  3.89986  0
C  C58  1  0.39004849  0.13931113  0.61007682  1  -0.069536  0  -0.073099  -0.134297  0  3.900175  0
C  C59  1  0.10997669  0.86070354  0.11008485  1  -0.069813  0  -0.073129  -0.134261  0  3.899687  0
C  C60  1  0.55529229  0.71883428  0.85589724  1  0.553145  0  0.11796  0.130513  0  4.045255  0
C  C61  1  0.94468100  0.28115507  0.35591177  1  0.552736  0  0.117891  0.130413  0  4.045274  0
C  C62  1  0.44470790  0.21884320  0.64409449  1  0.553115  0  0.118079  0.130749  0  4.045175  0
C  C63  1  0.05530474  0.78116968  0.14410710  1  0.553325  0  0.117995  0.130498  0  4.045051  0
C  C64  1  0.38855282  0.72535275  0.81927647  1  1.069738  0  0.230916  0.287826  0  3.961577  0
C  C65  1  0.11142935  0.27463187  0.31928828  1  1.069159  0  0.230878  0.287831  0  3.961793  0
C  C66  1  0.61145669  0.22535946  0.68071239  1  1.068887  0  0.230936  0.287825  0  3.961119  0
C  C67  1  0.88854706  0.77465203  0.18072602  1  1.069852  0  0.231008  0.287891  0  3.961588  0
C  C68  1  0.13936171  0.68763715  0.77631416  1  1.038134  0  0.22856  0.304289  0  3.972705  0
C  C69  1  0.36063259  0.31235925  0.27632747  1  1.038956  0  0.228558  0.304508  0  3.972317  0
C  C70  1  0.86065212  0.18763439  0.72366532  1  1.039816  0  0.228624  0.304571  0  3.97219  0
C  C71  1  0.63935786  0.81236872  0.22368453  1  1.038192  0  0.228553  0.30438  0  3.972025  0
C  C72  1  0.98998469  0.63008691  0.76131371  1  -0.010356  0  0.006103  0.039694  0  4.043561  0
C  C73  1  0.51000059  0.36990743  0.26132463  1  -0.010381  0  0.006128  0.039654  0  4.044178  0
C  C74  1  0.01003295  0.13008800  0.73866711  1  -0.010636  0  0.006044  0.039525  0  4.04381  0
C  C75  1  0.48998474  0.86991717  0.23868283  1  -0.010503  0  0.00612  0.039739  0  4.04338  0
C  C76  1  0.98045684  0.54148642  0.78820987  1  -0.008992  0  -0.081595  -0.147686  0  3.928385  0
C  C77  1  0.51953364  0.45850310  0.28821879  1  -0.009484  0  -0.081665  -0.147858  0  3.928328  0
C  C78  1  0.01956647  0.04149511  0.71177120  1  -0.009323  0  -0.081642  -0.147811  0  3.928509  0
C  C79  1  0.48044733  0.95852099  0.21180011  1  -0.008741  0  -0.081681  -0.147783  0  3.928358  0
C  C80  1  0.83321330  0.48973339  0.77271255  1  0.495147  0  0.04701  0.100363  0  3.916182  0
C  C81  1  0.66678395  0.51025966  0.27272156  1  0.495678  0  0.047073  0.100469  0  3.916397  0
C  C82  1  0.16679883  0.98974435  0.72727136  1  0.494979  0  0.047125  0.100594  0  3.916344  0
C  C83  1  0.33320819  0.01027298  0.22729769  1  0.495487  0  0.04698  0.100312  0  3.916309  0
C  C84  1  0.71026817  0.60659814  0.70676605  1  0.407553  0  0.036407  0.07769  0  3.953083  0
C  C85  1  0.78972514  0.39340518  0.20678108  1  0.40765  0  0.036407  0.077673  0  3.953237  0
C  C86  1  0.28974627  0.10659275  0.79321821  1  0.407508  0  0.036341  0.077687  0  3.953389  0
C  C87  1  0.21024766  0.89338644  0.29322987  1  0.406878  0  0.036487  0.077699  0  3.953285  0
C  C88  1  0.85176572  0.66350204  0.71980253  1  0.003952  0  -0.07435  -0.128699  0  3.897288  0
C  C89  1  0.64823023  0.33649719  0.21981488  1  0.003888  0  -0.074181  -0.128517  0  3.897648  0
C  C90  1  0.14824227  0.16349846  0.78017721  1  0.003905  0  -0.074153  -0.12859  0  3.897353  0
C  C91  1  0.35174378  0.83649434  0.28019261  1  0.004253  0  -0.074356  -0.128676  0  3.897426  0
I  I92  1  0.72487950  0.04511759  0.88003050  1  -0.530533  0  -0.259248  -0.444  0  1.225584  0
I  I93  1  0.77511367  0.95486437  0.38005340  1  -0.530581  0  -0.259257  -0.444019  0  1.225597  0
I  I94  1  0.27513210  0.54513287  0.61995683  1  -0.530599  0  -0.259231  -0.444022  0  1.225597  0
I  I95  1  0.22486458  0.45488468  0.11996456  1  -0.530469  0  -0.259227  -0.443977  0  1.22566  0
I  I96  1  0.63273607  0.89117279  0.64538374  1  -0.521131  0  -0.282849  -0.4386  0  1.172423  0
I  I97  1  0.86726595  0.10882697  0.14540043  1  -0.521076  0  -0.282821  -0.438554  0  1.172383  0
I  I98  1  0.36726708  0.39114632  0.85460234  1  -0.52113  0  -0.282877  -0.438601  0  1.172323  0
I  I99  1  0.13269850  0.60882080  0.35461824  1  -0.52107  0  -0.282815  -0.438568  0  1.172499  0
N  N100  1  0.65231396  0.79571455  0.85423693  1  -1.239987  0  -0.315062  -0.238051  0  3.462512  0
N  N101  1  0.84767784  0.20426945  0.35425825  1  -1.239947  0  -0.31524  -0.238224  0  3.462621  0
N  N102  1  0.34770648  0.29572071  0.64574538  1  -1.240038  0  -0.315178  -0.23819  0  3.462656  0
N  N103  1  0.15232565  0.70429344  0.14576048  1  -1.240162  0  -0.315243  -0.23822  0  3.462583  0
N  N104  1  0.32510101  0.79694181  0.78677335  1  -0.720201  0  -0.2146  -0.192153  0  3.333997  0
N  N105  1  0.17488570  0.20305336  0.28678751  1  -0.719901  0  -0.214613  -0.19216  0  3.334278  0
N  N106  1  0.67489587  0.29694790  0.71321848  1  -0.7194  0  -0.214552  -0.192216  0  3.333663  0
N  N107  1  0.82509025  0.70306391  0.21322702  1  -0.720171  0  -0.214574  -0.192034  0  3.334326  0
N  N108  1  0.16453017  0.77300627  0.75904390  1  -0.648314  0  -0.20128  -0.213453  0  3.142313  0
N  N109  1  0.33545797  0.22699239  0.25905937  1  -0.649107  0  -0.201295  -0.213574  0  3.142254  0
N  N110  1  0.83548315  0.27299769  0.74094181  1  -0.649691  0  -0.201447  -0.213633  0  3.141965  0
N  N111  1  0.66452774  0.72699568  0.24095331  1  -0.648455  0  -0.20133  -0.213602  0  3.142374  0
N  N112  1  0.70071814  0.52126418  0.73247504  1  -1.237632  0  -0.330739  -0.223828  0  3.529911  0
N  N113  1  0.79926476  0.47873507  0.23249083  1  -1.238073  0  -0.330691  -0.223763  0  3.53027  0
N  N114  1  0.29929025  0.02126769  0.76750989  1  -1.237729  0  -0.330682  -0.223896  0  3.530681  0
N  N115  1  0.20071147  0.97873461  0.26752900  1  -1.237659  0  -0.330734  -0.223833  0  3.529852  0
O  O116  1  0.27724534  0.65345693  0.81519140  1  -1.046281  0  -0.086214  -0.156573  0  2.529281  0
O  O117  1  0.22274249  0.34653674  0.31520165  1  -1.046039  0  -0.086075  -0.15649  0  2.528761  0
O  O118  1  0.72278075  0.15345940  0.68479238  1  -1.046184  0  -0.086186  -0.15658  0  2.529013  0
O  O119  1  0.77725798  0.84654644  0.18480658  1  -1.046134  0  -0.086237  -0.156634  0  2.529107  0
O  O120  1  0.33088655  0.93883268  0.92710108  1  -1.203664  0  -0.594789  -0.735066  0  1.949633  0
O  O121  1  0.16909281  0.06114557  0.42711945  1  -1.205248  0  -0.594654  -0.734905  0  1.950121  0
O  O122  1  0.66910991  0.43886992  0.57288344  1  -1.204991  0  -0.594668  -0.73472  0  1.950061  0
O  O123  1  0.83089797  0.56117783  0.07289123  1  -1.204005  0  -0.594812  -0.735117  0  1.949706  0
