# generated using pymatgen
data_CuH18C24Br(N2O)3
_symmetry_space_group_name_H-M   'P 1'
_cell_length_a   8.77080007
_cell_length_b   11.55441372
_cell_length_c   12.59100000
_cell_angle_alpha   97.85324814
_cell_angle_beta   103.50372449
_cell_angle_gamma   93.16426858
_symmetry_Int_Tables_number   1
_chemical_formula_structural   CuH18C24Br(N2O)3
_chemical_formula_sum   'Cu2 H36 C48 Br2 N12 O6'
_cell_volume   1224.04316685
_cell_formula_units_Z   2
loop_
 _symmetry_equiv_pos_site_id
 _symmetry_equiv_pos_as_xyz
  1  'x, y, z'
loop_
 _atom_site_type_symbol
 _atom_site_label
 _atom_site_symmetry_multiplicity
 _atom_site_fract_x
 _atom_site_fract_y
 _atom_site_fract_z
 _atom_site_occupancy
 _atom_site_hle17_bader_spin_density
 _atom_site_hle17_ddec_charge
 _atom_site_hle17_ddec_spin_density
 _atom_site_hle17_ddec_sum_bond_order
 _atom_site_hle17_magmom
 _atom_site_hse06_10hf_bader_spin_density
 _atom_site_hse06_10hf_ddec_charge
 _atom_site_hse06_10hf_ddec_spin_density
 _atom_site_hse06_10hf_ddec_sum_bond_order
 _atom_site_hse06_10hf_magmom
 _atom_site_hse06_bader_spin_density
 _atom_site_hse06_ddec_charge
 _atom_site_hse06_ddec_spin_density
 _atom_site_hse06_ddec_sum_bond_order
 _atom_site_hse06_magmom
 _atom_site_pbe_bader_charge
 _atom_site_pbe_bader_spin_density
 _atom_site_pbe_cm5_charge
 _atom_site_pbe_ddec_charge
 _atom_site_pbe_ddec_spin_density
 _atom_site_pbe_ddec_sum_bond_order
 _atom_site_pbe_magmom
Cu  Cu0  1  0.07677544  0.00900067  0.75279726  1  0  0.379714  0  2.000727  0  0  0.255463  0  2.496428  0  0  0.247579  0  2.45954  0  0.662292  0  0.474086  0.267034  0  2.516433  0
Cu  Cu1  1  0.92324419  0.99100877  0.24720148  1  0  0.379883  0  2.000626  0  0  0.255599  0  2.49632  0  0  0.247732  0  2.459491  0  0.66229  0  0.47412  0.267148  0  2.516318  0
H  H2  1  0.65703604  0.41801529  0.82594391  1  0  0.282381  0  0.89818  0  0  0.27228  0  0.953224  0  0  0.277965  0  0.949705  0  0.454672  0  0.317419  0.268324  0  0.955532  0
H  H3  1  0.34294736  0.58196608  0.17405892  1  0  0.282269  0  0.89826  0  0  0.27222  0  0.953264  0  0  0.277901  0  0.949745  0  0.454506  0  0.31743  0.268264  0  0.95557  0
H  H4  1  0.54650802  0.85206949  0.14698562  1  0  0.275452  0  0.945752  0  0  0.256692  0  1.018415  0  0  0.264193  0  1.012966  0  0.469136  0  0.284804  0.251323  0  1.022307  0
H  H5  1  0.45349679  0.14793381  0.85301073  1  0  0.275442  0  0.945743  0  0  0.25669  0  1.01842  0  0  0.264192  0  1.012968  0  0.468616  0  0.284806  0.251321  0  1.022311  0
H  H6  1  0.81909809  0.75997580  0.36504351  1  0  0.276952  0  0.949981  0  0  0.256526  0  1.026375  0  0  0.263832  0  1.021578  0  0.481243  0  0.280386  0.251231  0  1.029846  0
H  H7  1  0.18092069  0.24002662  0.63495500  1  0  0.277085  0  0.94983  0  0  0.256659  0  1.026205  0  0  0.263971  0  1.021386  0  0.481317  0  0.280426  0.251374  0  1.02969  0
H  H8  1  0.63845282  0.57931676  0.89447266  1  0  0.100652  0  0.949084  0  0  0.109714  0  1.012828  0  0  0.114401  0  1.008124  0  0.098411  0  0.109708  0.106282  0  1.016168  0
H  H9  1  0.36153921  0.42067777  0.10553004  1  0  0.100691  0  0.949042  0  0  0.10973  0  1.012819  0  0  0.114429  0  1.008094  0  0.098501  0  0.109702  0.106296  0  1.016165  0
H  H10  1  0.87773757  0.42630012  0.17669039  1  0  0.107723  0  0.972414  0  0  0.112033  0  1.044667  0  0  0.115903  0  1.041341  0  0.128904  0  0.111613  0.109055  0  1.047555  0
H  H11  1  0.12224177  0.57368651  0.82331005  1  0  0.107702  0  0.972465  0  0  0.112132  0  1.044606  0  0  0.116003  0  1.041276  0  0.128975  0  0.111695  0.109154  0  1.047494  0
H  H12  1  0.63083514  0.73207548  0.22252021  1  0  0.079102  0  1.035614  0  0  0.084298  0  1.112648  0  0  0.088805  0  1.108241  0  0.089215  0  0.088806  0.08097  0  1.115886  0
H  H13  1  0.36917714  0.26793132  0.77748415  1  0  0.079109  0  1.035625  0  0  0.084308  0  1.112657  0  0  0.088805  0  1.108258  0  0.089163  0  0.088814  0.080966  0  1.11591  0
H  H14  1  0.29680208  0.86232552  0.86364274  1  0  0.10777  0  0.962895  0  0  0.111893  0  1.029433  0  0  0.116464  0  1.024611  0  0.160927  0  0.117867  0.108484  0  1.033185  0
H  H15  1  0.70320892  0.13768041  0.13635574  1  0  0.107747  0  0.962916  0  0  0.111884  0  1.02944  0  0  0.116458  0  1.024611  0  0.160944  0  0.117842  0.108474  0  1.033194  0
H  H16  1  0.07461231  0.14552661  0.97918916  1  0  0.078132  0  0.963644  0  0  0.087009  0  1.030086  0  0  0.089473  0  1.028236  0  0.091216  0  0.110384  0.085228  0  1.031511  0
H  H17  1  0.92537695  0.85446440  0.02081107  1  0  0.078086  0  0.963762  0  0  0.087011  0  1.030149  0  0  0.089475  0  1.028299  0  0.091305  0  0.110349  0.085227  0  1.031579  0
H  H18  1  0.23088111  0.14848472  0.17255168  1  0  0.096188  0  0.970904  0  0  0.108756  0  1.026866  0  0  0.111077  0  1.02649  0  0.092686  0  0.105606  0.107112  0  1.027337  0
H  H19  1  0.76910473  0.85150717  0.82744968  1  0  0.096274  0  0.970798  0  0  0.108776  0  1.026843  0  0  0.111123  0  1.026437  0  0.092311  0  0.105611  0.107132  0  1.027313  0
H  H20  1  0.42114910  0.99718028  0.21254529  1  0  0.11083  0  0.964375  0  0  0.121295  0  1.024386  0  0  0.124724  0  1.022284  0  0.124756  0  0.098934  0.118767  0  1.025977  0
H  H21  1  0.57885209  0.00282214  0.78745672  1  0  0.110841  0  0.964428  0  0  0.121301  0  1.024439  0  0  0.124736  0  1.022329  0  0.124779  0  0.098931  0.118774  0  1.026029  0
H  H22  1  0.98539402  0.87673887  0.52244193  1  0  0.082907  0  0.956048  0  0  0.08742  0  1.03106  0  0  0.09111  0  1.027323  0  0.09277  0  0.106861  0.0846  0  1.034089  0
H  H23  1  0.01463521  0.12326267  0.47755817  1  0  0.082862  0  0.956043  0  0  0.087461  0  1.030981  0  0  0.091151  0  1.027243  0  0.092943  0  0.106909  0.084642  0  1.034008  0
H  H24  1  0.00706565  0.78281522  0.83194996  1  0  0.080114  0  0.957149  0  0  0.086454  0  1.027127  0  0  0.089078  0  1.025007  0  0.074646  0  0.113  0.084553  0  1.028748  0
H  H25  1  0.99293885  0.21720475  0.16805320  1  0  0.080077  0  0.957309  0  0  0.086491  0  1.027198  0  0  0.089119  0  1.02507  0  0.074722  0  0.112981  0.08459  0  1.02882  0
H  H26  1  0.85999642  0.58935171  0.74921864  1  0  0.09395  0  0.949177  0  0  0.105149  0  1.007978  0  0  0.107739  0  1.007588  0  0.082164  0  0.102662  0.103461  0  1.008107  0
H  H27  1  0.14000104  0.41066825  0.25078814  1  0  0.09414  0  0.948913  0  0  0.105304  0  1.007754  0  0  0.107897  0  1.007358  0  0.08322  0  0.102704  0.103617  0  1.007882  0
H  H28  1  0.77516907  0.53622846  0.54169424  1  0  0.12078  0  0.941722  0  0  0.131226  0  0.997063  0  0  0.135228  0  0.993362  0  0.136933  0  0.113202  0.128271  0  0.999831  0
H  H29  1  0.22483447  0.46378360  0.45831174  1  0  0.120888  0  0.941735  0  0  0.131287  0  0.997083  0  0  0.135343  0  0.993314  0  0.137264  0  0.113206  0.128323  0  0.999863  0
H  H30  1  0.55124159  0.30332606  0.65615605  1  0  0.107115  0  0.934794  0  0  0.121118  0  0.988667  0  0  0.12437  0  0.986127  0  0.083007  0  0.108292  0.118677  0  0.990635  0
H  H31  1  0.44874798  0.69665794  0.34384096  1  0  0.107069  0  0.934746  0  0  0.121094  0  0.988607  0  0  0.124359  0  0.98605  0  0.082655  0  0.108263  0.118628  0  0.990607  0
H  H32  1  0.57764395  0.13125625  0.51853060  1  0  0.1121  0  0.932326  0  0  0.123274  0  0.985787  0  0  0.126595  0  0.984897  0  0.081937  0  0.109233  0.120796  0  0.986701  0
H  H33  1  0.42236023  0.86873213  0.48146298  1  0  0.111997  0  0.932339  0  0  0.123217  0  0.985769  0  0  0.12654  0  0.984883  0  0.08214  0  0.109253  0.120739  0  0.986683  0
H  H34  1  0.80430329  0.01301676  0.56347782  1  0  0.071594  0  0.988309  0  0  0.07477  0  1.065174  0  0  0.077828  0  1.062604  0  0.083026  0  0.097598  0.072497  0  1.067128  0
H  H35  1  0.19571976  0.98698215  0.43651618  1  0  0.071573  0  0.988266  0  0  0.074729  0  1.065124  0  0  0.07778  0  1.062561  0  0.083262  0  0.097546  0.072457  0  1.067076  0
H  H36  1  0.99783188  0.23694218  0.85863391  1  0  0.093745  0  0.988253  0  0  0.098963  0  1.057557  0  0  0.102506  0  1.053999  0  0.139098  0  0.113429  0.096284  0  1.06045  0
H  H37  1  0.00215620  0.76305849  0.14136416  1  0  0.093749  0  0.988216  0  0  0.098952  0  1.05755  0  0  0.102495  0  1.053992  0  0.138857  0  0.113403  0.096274  0  1.060442  0
C  C38  1  0.62339795  0.66217906  0.05220245  1  0  -0.056909  0  3.768118  0  0  -0.033036  0  4.009307  0  0  -0.041441  0  4.032895  0  -0.035532  0  -0.017188  -0.027711  0  3.993233  0
C  C39  1  0.37659887  0.33781634  0.94779797  1  0  -0.056862  0  3.768355  0  0  -0.032987  0  4.009485  0  0  -0.041393  0  4.033072  0  -0.035418  0  -0.01714  -0.027662  0  3.993409  0
C  C40  1  0.67565697  0.57619547  0.98298179  1  0  -0.063046  0  3.68006  0  0  -0.102171  0  3.931926  0  0  -0.09821  0  3.948701  0  -0.095631  0  -0.06909  -0.104281  0  3.920039  0
C  C41  1  0.32434358  0.42380168  0.01701786  1  0  -0.063066  0  3.679909  0  0  -0.102179  0  3.931738  0  0  -0.098225  0  3.948522  0  -0.095829  0  -0.06907  -0.104295  0  3.919851  0
C  C42  1  0.76957015  0.49211554  0.02742847  1  0  -0.063093  0  3.767141  0  0  -0.040468  0  4.008972  0  0  -0.049161  0  4.031894  0  0.019528  0  -0.01439  -0.035282  0  3.993903  0
C  C43  1  0.23041313  0.50787460  0.97257067  1  0  -0.063128  0  3.766916  0  0  -0.04046  0  4.008794  0  0  -0.049151  0  4.031718  0  0.019482  0  -0.01436  -0.035261  0  3.9937  0
C  C44  1  0.81041671  0.49420516  0.14196942  1  0  -0.029756  0  3.649862  0  0  -0.070406  0  3.89811  0  0  -0.065051  0  3.912847  0  0.050267  0  -0.059576  -0.073928  0  3.889054  0
C  C45  1  0.18957020  0.50578585  0.85803121  1  0  -0.029921  0  3.650071  0  0  -0.07075  0  3.898309  0  0  -0.065389  0  3.91305  0  0.049669  0  -0.059862  -0.074275  0  3.889252  0
C  C46  1  0.76300562  0.58148797  0.21212249  1  0  -0.047694  0  3.758464  0  0  -0.021077  0  3.991812  0  0  -0.028744  0  4.013106  0  -0.067667  0  -0.011977  -0.016345  0  3.977872  0
C  C47  1  0.23698907  0.41850919  0.78787938  1  0  -0.04765  0  3.758613  0  0  -0.020878  0  3.991812  0  0  -0.028573  0  4.013148  0  -0.067214  0  -0.011902  -0.016146  0  3.977865  0
C  C48  1  0.66900904  0.66512226  0.16691857  1  0  -0.101884  0  3.72117  0  0  -0.141001  0  3.975201  0  0  -0.136821  0  3.99065  0  -0.051476  0  -0.086893  -0.143761  0  3.96494  0
C  C49  1  0.33099215  0.33488016  0.83308185  1  0  -0.101932  0  3.721376  0  0  -0.141115  0  3.975377  0  0  -0.13691  0  3.990828  0  -0.051353  0  -0.086925  -0.143867  0  3.965131  0
C  C50  1  0.51158181  0.74228589  0.99733095  1  0  0.526272  0  3.84693  0  0  0.48067  0  4.132696  0  0  0.508375  0  4.135588  0  1.38487  0  0.235394  0.461844  0  4.130301  0
C  C51  1  0.48841917  0.25771477  0.00266683  1  0  0.526064  0  3.847202  0  0  0.480543  0  4.132869  0  0  0.508245  0  4.13577  0  1.384656  0  0.235386  0.461718  0  4.13047  0
C  C52  1  0.37002999  0.91641112  0.04124759  1  0  0.214698  0  3.783092  0  0  0.213962  0  4.027417  0  0  0.217799  0  4.050656  0  0.366645  0  0.101141  0.211028  0  4.011909  0
C  C53  1  0.62997014  0.08359218  0.95875356  1  0  0.214632  0  3.783198  0  0  0.213911  0  4.027484  0  0  0.217745  0  4.050725  0  0.367205  0  0.101075  0.210978  0  4.011976  0
C  C54  1  0.28208701  0.92256859  0.93394943  1  0  0.015847  0  3.634758  0  0  -0.023425  0  3.895357  0  0  -0.019555  0  3.908172  0  0.485245  0  0.029177  -0.025864  0  3.887048  0
C  C55  1  0.71792506  0.07743646  0.06605070  1  0  0.015861  0  3.634845  0  0  -0.023377  0  3.895298  0  0  -0.019498  0  3.908104  0  0.485162  0  0.02921  -0.025816  0  3.886989  0
C  C56  1  0.16000419  0.08187802  0.99847135  1  0  0.084002  0  3.71472  0  0  0.049206  0  3.978125  0  0  0.053289  0  3.995162  0  0.449508  0  0.024246  0.046794  0  3.96691  0
C  C57  1  0.83999050  0.91811914  0.00152814  1  0  0.083988  0  3.714973  0  0  0.04913  0  3.978369  0  0  0.05321  0  3.995418  0  0.449488  0  0.02423  0.04672  0  3.967153  0
C  C58  1  0.24569628  0.08231314  0.10647463  1  0  -0.08592  0  3.76857  0  0  -0.098321  0  4.020126  0  0  -0.102057  0  4.040245  0  0.000745  0  -0.08534  -0.09625  0  4.006905  0
C  C59  1  0.75428998  0.91768226  0.89352645  1  0  -0.085822  0  3.768636  0  0  -0.098165  0  4.020188  0  0  -0.101923  0  4.040301  0  0.001465  0  -0.085228  -0.096094  0  4.006964  0
C  C60  1  0.35115711  0.99882777  0.12890327  1  0  -0.110656  0  3.684923  0  0  -0.13378  0  3.929115  0  0  -0.133551  0  3.946832  0  -0.044574  0  -0.079193  -0.133896  0  3.917472  0
C  C61  1  0.64883811  0.00117377  0.87109845  1  0  -0.11079  0  3.685188  0  0  -0.13392  0  3.929364  0  0  -0.133698  0  3.947085  0  -0.045333  0  -0.079238  -0.134035  0  3.917719  0
C  C62  1  0.80866771  0.57746048  0.33413108  1  0  0.532251  0  3.837239  0  0  0.489815  0  4.118178  0  0  0.517913  0  4.119018  0  1.408624  0  0.238125  0.470911  0  4.117017  0
C  C63  1  0.19133838  0.42254370  0.66587353  1  0  0.532317  0  3.837267  0  0  0.489805  0  4.118234  0  0  0.517905  0  4.119079  0  1.408505  0  0.238103  0.470928  0  4.117075  0
C  C64  1  0.87263490  0.70343739  0.51658559  1  0  0.218501  0  3.782593  0  0  0.220908  0  4.021607  0  0  0.224574  0  4.044002  0  0.404407  0  0.10452  0.218055  0  4.00675  0
C  C65  1  0.12738537  0.29656766  0.48341508  1  0  0.218393  0  3.782448  0  0  0.220734  0  4.021557  0  0  0.224387  0  4.043969  0  0.4078  0  0.104414  0.217914  0  4.006691  0
C  C66  1  0.95363167  0.81148665  0.57042159  1  0  0.027681  0  3.656531  0  0  -0.007311  0  3.904358  0  0  -0.003057  0  3.918244  0  0.575735  0  0.037168  -0.010395  0  3.895996  0
C  C67  1  0.04638274  0.18851840  0.42957893  1  0  0.027869  0  3.656249  0  0  -0.007205  0  3.904103  0  0  -0.002941  0  3.917983  0  0.57581  0  0.03719  -0.01029  0  3.895732  0
C  C68  1  0.96472458  0.75949331  0.74259173  1  0  0.090655  0  3.709528  0  0  0.059973  0  3.963525  0  0  0.065216  0  3.978914  0  0.526029  0  0.030325  0.056356  0  3.953938  0
C  C69  1  0.03527810  0.24052139  0.25741047  1  0  0.090911  0  3.709566  0  0  0.060206  0  3.963466  0  0  0.065427  0  3.978896  0  0.525523  0  0.030538  0.056591  0  3.953875  0
C  C70  1  0.88378492  0.65090015  0.69548501  1  0  -0.095799  0  3.776742  0  0  -0.107132  0  4.029507  0  0  -0.113018  0  4.051502  0  -0.085038  0  -0.083481  -0.103313  0  4.014441  0
C  C71  1  0.11621436  0.34911543  0.30451992  1  0  -0.096131  0  3.776652  0  0  -0.107453  0  4.029416  0  0  -0.113336  0  4.051412  0  -0.085666  0  -0.083653  -0.103633  0  4.014354  0
C  C72  1  0.83597274  0.62117425  0.58105789  1  0  -0.096668  0  3.685601  0  0  -0.125555  0  3.933682  0  0  -0.123394  0  3.949547  0  0.003994  0  -0.074856  -0.126745  0  3.922923  0
C  C73  1  0.16403634  0.37883518  0.41894469  1  0  -0.09672  0  3.685914  0  0  -0.12551  0  3.933939  0  0  -0.123392  0  3.949781  0  0.000248  0  -0.074755  -0.126693  0  3.923178  0
C  C74  1  0.82931027  0.39625929  0.95986020  1  0  0.546209  0  3.812154  0  0  0.498597  0  4.101582  0  0  0.527682  0  4.101145  0  1.374948  0  0.242794  0.479194  0  4.101195  0
C  C75  1  0.17067814  0.60373436  0.04013703  1  0  0.546238  0  3.812025  0  0  0.498548  0  4.101619  0  0  0.527627  0  4.10119  0  1.374609  0  0.242791  0.479144  0  4.101226  0
C  C76  1  0.77132362  0.28102002  0.77028160  1  0  0.214397  0  3.790131  0  0  0.213305  0  4.038124  0  0  0.216911  0  4.060728  0  0.337374  0  0.09903  0.210566  0  4.023016  0
C  C77  1  0.22866574  0.71897188  0.22971716  1  0  0.2144  0  3.789845  0  0  0.213319  0  4.037911  0  0  0.216918  0  4.060522  0  0.337089  0  0.099092  0.21058  0  4.022797  0
C  C78  1  0.65305904  0.25235560  0.67193305  1  0  -0.126421  0  3.711532  0  0  -0.151169  0  3.961226  0  0  -0.150073  0  3.977923  0  -0.078816  0  -0.083007  -0.151683  0  3.94991  0
C  C79  1  0.34693075  0.74763015  0.32806739  1  0  -0.12634  0  3.711363  0  0  -0.15111  0  3.961098  0  0  -0.150027  0  3.977805  0  -0.078343  0  -0.082944  -0.151604  0  3.949788  0
C  C80  1  0.66622520  0.15636601  0.59611233  1  0  -0.078597  0  3.760672  0  0  -0.091384  0  4.009093  0  0  -0.095515  0  4.029239  0  0.067122  0  -0.080726  -0.088928  0  3.995838  0
C  C81  1  0.33378218  0.84362939  0.40387868  1  0  -0.078429  0  3.760482  0  0  -0.09127  0  4.008943  0  0  -0.095418  0  4.029108  0  0.066737  0  -0.080757  -0.088814  0  3.995681  0
C  C82  1  0.79389452  0.09012424  0.62070964  1  0  0.097569  0  3.696392  0  0  0.067046  0  3.949176  0  0  0.072485  0  3.96344  0  0.455964  0  0.028427  0.063191  0  3.940337  0
C  C83  1  0.20611914  0.90987466  0.37928601  1  0  0.097439  0  3.69643  0  0  0.066908  0  3.949245  0  0  0.072385  0  3.963462  0  0.455829  0  0.028386  0.063054  0  3.940405  0
C  C84  1  0.90094329  0.21369922  0.78614973  1  0  0.014814  0  3.650875  0  0  -0.024022  0  3.909637  0  0  -0.020211  0  3.923557  0  0.523418  0  0.027793  -0.026862  0  3.901185  0
C  C85  1  0.09904575  0.78629969  0.21385224  1  0  0.014845  0  3.650806  0  0  -0.024022  0  3.909588  0  0  -0.020204  0  3.923519  0  0.523292  0  0.027781  -0.026863  0  3.901136  0
Br  Br86  1  0.29656643  0.05638928  0.66569769  1  0  -0.59729  0  1.029078  0  0  -0.54381  0  1.34443  0  0  -0.560963  0  1.320508  0  -0.65777  0  -0.291658  -0.531083  0  1.359561  0
Br  Br87  1  0.70343721  0.94361402  0.33429529  1  0  -0.597302  0  1.028883  0  0  -0.543826  0  1.344208  0  0  -0.560976  0  1.320302  0  -0.657635  0  -0.291676  -0.531099  0  1.359335  0
N  N88  1  0.91016754  0.11816580  0.71402585  1  0  -0.270038  0  3.406102  0  0  -0.199018  0  3.711156  0  0  -0.205145  0  3.716924  0  -1.223443  0  -0.363285  -0.196043  0  3.707368  0
N  N89  1  0.08983983  0.88183925  0.28597272  1  0  -0.270127  0  3.406306  0  0  -0.199009  0  3.711227  0  0  -0.205167  0  3.717037  0  -1.223606  0  -0.363268  -0.196027  0  3.707427  0
N  N90  1  0.75424337  0.37461294  0.84891783  1  0  -0.440143  0  3.349476  0  0  -0.389419  0  3.590138  0  0  -0.410782  0  3.600423  0  -1.250242  0  -0.396929  -0.374685  0  3.582499  0
N  N91  1  0.24573565  0.62537106  0.15108224  1  0  -0.439997  0  3.349223  0  0  -0.389332  0  3.589963  0  0  -0.410683  0  3.600254  0  -1.248914  0  -0.39694  -0.374599  0  3.582321  0
N  N92  1  0.47869072  0.83441028  0.06706797  1  0  -0.435332  0  3.375302  0  0  -0.378395  0  3.606254  0  0  -0.401437  0  3.619038  0  -1.272049  0  -0.39738  -0.362364  0  3.597153  0
N  N93  1  0.52131303  0.16559389  0.93293150  1  0  -0.435066  0  3.375346  0  0  -0.378235  0  3.606328  0  0  -0.401278  0  3.619124  0  -1.271683  0  -0.397305  -0.362204  0  3.597226  0
N  N94  1  0.17900975  0.00412925  0.91332549  1  0  -0.278509  0  3.404712  0  0  -0.207326  0  3.709744  0  0  -0.214514  0  3.717569  0  -1.236598  0  -0.362696  -0.203567  0  3.704312  0
N  N95  1  0.82099731  0.99587316  0.08667588  1  0  -0.278584  0  3.404855  0  0  -0.207392  0  3.709864  0  0  -0.21459  0  3.717705  0  -1.23648  0  -0.36269  -0.203632  0  3.704426  0
N  N96  1  0.83002068  0.68487987  0.40074697  1  0  -0.453951  0  3.369378  0  0  -0.398294  0  3.597793  0  0  -0.421703  0  3.609931  0  -1.320715  0  -0.401825  -0.382036  0  3.589192  0
N  N97  1  0.16999223  0.31512255  0.59925456  1  0  -0.454121  0  3.369238  0  0  -0.398431  0  3.59768  0  0  -0.421832  0  3.609809  0  -1.320678  0  -0.40189  -0.382245  0  3.589131  0
N  N98  1  0.99681502  0.84035634  0.68100852  1  0  -0.26295  0  3.363354  0  0  -0.190239  0  3.652677  0  0  -0.197356  0  3.66037  0  -1.276949  0  -0.353276  -0.186685  0  3.647835  0
N  N99  1  0.00319417  0.15965398  0.31899022  1  0  -0.263177  0  3.363543  0  0  -0.190487  0  3.652973  0  0  -0.19761  0  3.660674  0  -1.277226  0  -0.353415  -0.186932  0  3.648125  0
O  O100  1  0.93701084  0.33965946  0.00218884  1  0  -0.52386  0  1.923437  0  0  -0.478707  0  2.141403  0  0  -0.499503  0  2.137879  0  -1.1332  0  -0.278677  -0.464284  0  2.14336  0
O  O101  1  0.06297052  0.66033418  0.99781043  1  0  -0.523772  0  1.92345  0  0  -0.478586  0  2.141433  0  0  -0.499378  0  2.137905  0  -1.13332  0  -0.27862  -0.464164  0  2.143392  0
O  O102  1  0.45144654  0.72207123  0.89668967  1  0  -0.515447  0  1.908404  0  0  -0.472995  0  2.114615  0  0  -0.492805  0  2.110539  0  -1.113372  0  -0.285154  -0.459211  0  2.117504  0
O  O103  1  0.54854015  0.27792768  0.10331192  1  0  -0.515345  0  1.908405  0  0  -0.472913  0  2.114589  0  0  -0.492723  0  2.110517  0  -1.113152  0  -0.285145  -0.459127  0  2.117476  0
O  O104  1  0.82614874  0.48333418  0.36954051  1  0  -0.50616  0  1.89616  0  0  -0.469371  0  2.0973  0  0  -0.489067  0  2.093414  0  -1.118478  0  -0.28545  -0.455695  0  2.099814  0
O  O105  1  0.17384787  0.51666912  0.63046484  1  0  -0.506132  0  1.896255  0  0  -0.469322  0  2.09742  0  0  -0.489023  0  2.093542  0  -1.118404  0  -0.285383  -0.455644  0  2.099923  0
