# generated using pymatgen
data_CdH20C28S4(NO)4
_symmetry_space_group_name_H-M   'P 1'
_cell_length_a   5.05177838
_cell_length_b   11.88345891
_cell_length_c   22.81500000
_cell_angle_alpha   90.00000000
_cell_angle_beta   90.00000000
_cell_angle_gamma   100.13806225
_symmetry_Int_Tables_number   1
_chemical_formula_structural   CdH20C28S4(NO)4
_chemical_formula_sum   'Cd2 H40 C56 S8 N8 O8'
_cell_volume   1348.25880564
_cell_formula_units_Z   2
loop_
 _symmetry_equiv_pos_site_id
 _symmetry_equiv_pos_as_xyz
  1  'x, y, z'
loop_
 _atom_site_type_symbol
 _atom_site_label
 _atom_site_symmetry_multiplicity
 _atom_site_fract_x
 _atom_site_fract_y
 _atom_site_fract_z
 _atom_site_occupancy
 _atom_site_hle17_bader_spin_density
 _atom_site_hle17_ddec_charge
 _atom_site_hle17_ddec_spin_density
 _atom_site_hle17_ddec_sum_bond_order
 _atom_site_hle17_magmom
 _atom_site_hse06_10hf_bader_spin_density
 _atom_site_hse06_10hf_ddec_charge
 _atom_site_hse06_10hf_ddec_spin_density
 _atom_site_hse06_10hf_ddec_sum_bond_order
 _atom_site_hse06_10hf_magmom
 _atom_site_hse06_bader_spin_density
 _atom_site_hse06_ddec_charge
 _atom_site_hse06_ddec_spin_density
 _atom_site_hse06_ddec_sum_bond_order
 _atom_site_hse06_magmom
 _atom_site_pbe_bader_charge
 _atom_site_pbe_bader_spin_density
 _atom_site_pbe_cm5_charge
 _atom_site_pbe_ddec_charge
 _atom_site_pbe_ddec_spin_density
 _atom_site_pbe_ddec_sum_bond_order
 _atom_site_pbe_magmom
Cd  Cd0  1  0.49999971  0.50000017  0.50000000  1  0  1.170783  0  1.649363  0  0  0.97447  0  2.102306  0  0  1.030937  0  2.04936  0  1.314381  0  0.78506  0.934066  0  2.138554  0
Cd  Cd1  1  0.50000016  0.00000000  0.00000000  1  0  1.17078  0  1.649381  0  0  0.974462  0  2.102323  0  0  1.030934  0  2.049375  0  1.314384  0  0.785054  0.934058  0  2.138572  0
H  H2  1  0.88618735  0.46103938  0.31817664  1  0  0.139458  0  0.944678  0  0  0.147242  0  1.013544  0  0  0.149878  0  1.012864  0  0.140795  0  0.109884  0.145398  0  1.014119  0
H  H3  1  0.11381252  0.03896079  0.81817664  1  0  0.139452  0  0.944682  0  0  0.147238  0  1.013546  0  0  0.149874  0  1.012865  0  0.140791  0  0.109882  0.145394  0  1.014121  0
H  H4  1  0.11381172  0.53896010  0.68182292  1  0  0.139484  0  0.944653  0  0  0.147266  0  1.013508  0  0  0.149902  0  1.012827  0  0.140801  0  0.109893  0.145421  0  1.014084  0
H  H5  1  0.88618726  0.96104040  0.18182336  1  0  0.139475  0  0.944661  0  0  0.147251  0  1.013528  0  0  0.149887  0  1.012846  0  0.140784  0  0.109883  0.145406  0  1.014103  0
H  H6  1  0.60605035  0.41773081  0.36594828  1  0  0.1416  0  0.951124  0  0  0.148756  0  1.019023  0  0  0.152033  0  1.016832  0  0.1283  0  0.10507  0.146375  0  1.020798  0
H  H7  1  0.39394917  0.08226850  0.86594828  1  0  0.141599  0  0.951124  0  0  0.148749  0  1.019039  0  0  0.152027  0  1.016847  0  0.128302  0  0.105071  0.146368  0  1.020814  0
H  H8  1  0.39395105  0.58226952  0.63405128  1  0  0.141599  0  0.951091  0  0  0.148756  0  1.018979  0  0  0.152034  0  1.016785  0  0.128298  0  0.105071  0.146375  0  1.020755  0
H  H9  1  0.60605189  0.91773098  0.13405128  1  0  0.141611  0  0.951091  0  0  0.14877  0  1.018973  0  0  0.152048  0  1.01678  0  0.12831  0  0.105081  0.146389  0  1.020749  0
H  H10  1  0.54830501  0.10078975  0.16747535  1  0  0.112389  0  0.953736  0  0  0.121995  0  1.017112  0  0  0.125081  0  1.015437  0  0.111034  0  0.103216  0.119757  0  1.018382  0
H  H11  1  0.45169684  0.39921042  0.66747578  1  0  0.112401  0  0.953722  0  0  0.121993  0  1.017121  0  0  0.125076  0  1.015446  0  0.111028  0  0.103208  0.119756  0  1.018391  0
H  H12  1  0.45169639  0.89921059  0.83252553  1  0  0.11237  0  0.953741  0  0  0.121979  0  1.01711  0  0  0.125064  0  1.015436  0  0.111008  0  0.103198  0.119742  0  1.018379  0
H  H13  1  0.54830620  0.60078906  0.33252553  1  0  0.112364  0  0.953734  0  0  0.121974  0  1.017103  0  0  0.125058  0  1.01543  0  0.111007  0  0.103199  0.119736  0  1.018373  0
H  H14  1  0.87385513  0.24417169  0.11404383  1  0  0.089952  0  0.968489  0  0  0.101848  0  1.03005  0  0  0.104345  0  1.029422  0  0.076725  0  0.096921  0.100091  0  1.030509  0
H  H15  1  0.12614673  0.25582847  0.61404427  1  0  0.089889  0  0.968501  0  0  0.101778  0  1.030092  0  0  0.104275  0  1.029464  0  0.076744  0  0.096879  0.100024  0  1.030543  0
H  H16  1  0.12614430  0.75582864  0.88595573  1  0  0.089919  0  0.968507  0  0  0.101827  0  1.030059  0  0  0.104323  0  1.029431  0  0.076729  0  0.096911  0.100065  0  1.03053  0
H  H17  1  0.87385666  0.74417186  0.38595617  1  0  0.089951  0  0.96849  0  0  0.101849  0  1.030048  0  0  0.104345  0  1.029421  0  0.07672  0  0.096918  0.100091  0  1.030512  0
H  H18  1  0.90213242  0.45315165  0.13405829  1  0  0.069169  0  0.972081  0  0  0.080513  0  1.037322  0  0  0.083626  0  1.034865  0  0.022797  0  0.086709  0.078216  0  1.039222  0
H  H19  1  0.09786780  0.04684937  0.63405917  1  0  0.069141  0  0.972038  0  0  0.080486  0  1.037286  0  0  0.0836  0  1.034827  0  0.022815  0  0.086673  0.078185  0  1.039185  0
H  H20  1  0.09786503  0.54684868  0.86594039  1  0  0.069136  0  0.972028  0  0  0.080469  0  1.037296  0  0  0.083582  0  1.034837  0  0.022801  0  0.086663  0.07817  0  1.039194  0
H  H21  1  0.90213594  0.95315182  0.36594127  1  0  0.069147  0  0.972059  0  0  0.080501  0  1.037296  0  0  0.083614  0  1.034838  0  0.02279  0  0.086701  0.078204  0  1.039195  0
H  H22  1  0.59832825  0.51964127  0.20725444  1  0  0.08975  0  0.989252  0  0  0.093977  0  1.065463  0  0  0.09714  0  1.063664  0  0.055839  0  0.088285  0.091704  0  1.066842  0
H  H23  1  0.40167236  0.98035837  0.70725488  1  0  0.089782  0  0.989265  0  0  0.094013  0  1.065462  0  0  0.097175  0  1.063668  0  0.05583  0  0.088318  0.09174  0  1.066841  0
H  H24  1  0.40167351  0.48035992  0.79274512  1  0  0.089784  0  0.989294  0  0  0.094017  0  1.065491  0  0  0.097178  0  1.063702  0  0.055853  0  0.088326  0.091744  0  1.06687  0
H  H25  1  0.59832601  0.01963940  0.29274556  1  0  0.089773  0  0.989236  0  0  0.094004  0  1.06544  0  0  0.097169  0  1.063636  0  0.055915  0  0.088309  0.091732  0  1.066818  0
H  H26  1  0.20697306  0.26872051  0.43482840  1  0  0.068162  0  1.014233  0  0  0.066841  0  1.095554  0  0  0.069614  0  1.093811  0  0.117307  0  0.101894  0.064801  0  1.096826  0
H  H27  1  0.79302646  0.23127880  0.93482840  1  0  0.068205  0  1.014271  0  0  0.066877  0  1.095592  0  0  0.06965  0  1.093848  0  0.117303  0  0.101904  0.064836  0  1.096863  0
H  H28  1  0.79302835  0.73127982  0.56517116  1  0  0.068128  0  1.014283  0  0  0.066848  0  1.095579  0  0  0.069623  0  1.093832  0  0.117312  0  0.101881  0.064808  0  1.096851  0
H  H29  1  0.20697226  0.76871982  0.06517116  1  0  0.068116  0  1.014282  0  0  0.066834  0  1.095583  0  0  0.069609  0  1.093836  0  0.117319  0  0.101881  0.064794  0  1.096855  0
H  H30  1  0.18462383  0.05992093  0.43404427  1  0  0.098637  0  0.968249  0  0  0.108654  0  1.030945  0  0  0.111872  0  1.029578  0  0.039018  0  0.10354  0.106371  0  1.032041  0
H  H31  1  0.81537604  0.44007924  0.93404383  1  0  0.098634  0  0.968238  0  0  0.108646  0  1.030941  0  0  0.111864  0  1.029575  0  0.03902  0  0.103528  0.106364  0  1.032035  0
H  H32  1  0.81537758  0.94007940  0.56595529  1  0  0.098677  0  0.968126  0  0  0.108653  0  1.030881  0  0  0.11187  0  1.029516  0  0.039014  0  0.103554  0.10637  0  1.031976  0
H  H33  1  0.18462339  0.55992110  0.06595573  1  0  0.098643  0  0.968211  0  0  0.108655  0  1.030911  0  0  0.111876  0  1.029533  0  0.039023  0  0.103528  0.106371  0  1.032007  0
H  H34  1  0.82073606  0.10807139  0.56371159  1  0  0.099682  0  0.969922  0  0  0.111747  0  1.029416  0  0  0.114206  0  1.029324  0  0.065838  0  0.106878  0.110009  0  1.029575  0
H  H35  1  0.17926382  0.39192878  0.06371159  1  0  0.099675  0  0.969925  0  0  0.111736  0  1.029426  0  0  0.114195  0  1.029336  0  0.065836  0  0.106876  0.109999  0  1.029585  0
H  H36  1  0.17926337  0.89192895  0.43628841  1  0  0.099666  0  0.969943  0  0  0.111721  0  1.02945  0  0  0.11418  0  1.029358  0  0.06583  0  0.106866  0.109984  0  1.029609  0
H  H37  1  0.82073561  0.60807155  0.93628797  1  0  0.099659  0  0.969938  0  0  0.111719  0  1.029441  0  0  0.114178  0  1.02935  0  0.065832  0  0.106867  0.109983  0  1.029599  0
H  H38  1  0.82116918  0.31562545  0.55676879  1  0  0.089219  0  0.993734  0  0  0.094617  0  1.060355  0  0  0.097801  0  1.057332  0  0.165078  0  0.115443  0.092252  0  1.062614  0
H  H39  1  0.17882871  0.18437472  0.05676879  1  0  0.089213  0  0.993731  0  0  0.094606  0  1.060358  0  0  0.09779  0  1.057334  0  0.165069  0  0.115442  0.092241  0  1.062618  0
H  H40  1  0.17882827  0.68437489  0.44323165  1  0  0.0892  0  0.993741  0  0  0.094594  0  1.060368  0  0  0.097777  0  1.057345  0  0.165069  0  0.115446  0.09223  0  1.062625  0
H  H41  1  0.82116839  0.81562476  0.94323077  1  0  0.089198  0  0.993749  0  0  0.094595  0  1.060375  0  0  0.097778  0  1.057352  0  0.165007  0  0.115438  0.09223  0  1.062635  0
C  C42  1  0.98750004  0.47494613  0.40967039  1  0  0.72469  0  3.850037  0  0  0.672188  0  4.151799  0  0  0.707035  0  4.143869  0  1.61815  0  0.20841  0.64847  0  4.156371  0
C  C43  1  0.01249984  0.02505404  0.90967039  1  0  0.724693  0  3.850034  0  0  0.672188  0  4.151804  0  0  0.707037  0  4.14387  0  1.618108  0  0.208405  0.64847  0  4.156375  0
C  C44  1  0.01249939  0.52505420  0.59032917  1  0  0.724675  0  3.849933  0  0  0.67218  0  4.151679  0  0  0.707026  0  4.14375  0  1.618107  0  0.208408  0.648462  0  4.156251  0
C  C45  1  0.98750193  0.97494715  0.09032917  1  0  0.724737  0  3.849832  0  0  0.672254  0  4.151567  0  0  0.707102  0  4.143633  0  1.618126  0  0.208458  0.648536  0  4.156139  0
C  C46  1  0.81986493  0.41542356  0.35907254  1  0  -0.311963  0  3.595616  0  0  -0.340644  0  3.844388  0  0  -0.345615  0  3.848492  0  -0.185847  0  -0.152771  -0.337452  0  3.84183  0
C  C47  1  0.18013459  0.08457575  0.85907254  1  0  -0.311949  0  3.595623  0  0  -0.340639  0  3.844404  0  0  -0.345611  0  3.848509  0  -0.185855  0  -0.15277  -0.337446  0  3.841844  0
C  C48  1  0.18013415  0.58457591  0.64092702  1  0  -0.312011  0  3.595576  0  0  -0.340663  0  3.844293  0  0  -0.345632  0  3.848397  0  -0.185843  0  -0.152795  -0.33747  0  3.841735  0
C  C49  1  0.81986682  0.91542459  0.14092746  1  0  -0.312033  0  3.595544  0  0  -0.340678  0  3.844241  0  0  -0.34565  0  3.848347  0  -0.185831  0  -0.15282  -0.337485  0  3.841682  0
C  C50  1  0.09344159  0.27842737  0.29414859  1  0  0.119994  0  3.818182  0  0  0.116821  0  4.128315  0  0  0.130659  0  4.140472  0  0.407063  0  0.123557  0.107461  0  4.119744  0
C  C51  1  0.90655864  0.22157365  0.79414902  1  0  0.11995  0  3.818243  0  0  0.116805  0  4.128331  0  0  0.130644  0  4.140486  0  0.407158  0  0.123558  0.107445  0  4.11976  0
C  C52  1  0.90656052  0.72157467  0.70585141  1  0  0.120029  0  3.818185  0  0  0.116888  0  4.128275  0  0  0.130725  0  4.140427  0  0.407026  0  0.123577  0.107527  0  4.119704  0
C  C53  1  0.09344044  0.77842583  0.20585185  1  0  0.119985  0  3.818222  0  0  0.11685  0  4.128306  0  0  0.130689  0  4.140456  0  0.407039  0  0.123581  0.107489  0  4.119734  0
C  C54  1  0.40847526  0.34802524  0.23020688  1  0  0.181259  0  3.846671  0  0  0.186128  0  4.089179  0  0  0.189746  0  4.112814  0  0.4212  0  0.08582  0.183617  0  4.073242  0
C  C55  1  0.59152659  0.15197493  0.73020732  1  0  0.1813  0  3.846675  0  0  0.18617  0  4.089181  0  0  0.18978  0  4.11283  0  0.421286  0  0.085828  0.183659  0  4.073244  0
C  C56  1  0.59152452  0.65197595  0.76979268  1  0  0.181295  0  3.846653  0  0  0.186192  0  4.089139  0  0  0.189803  0  4.11278  0  0.421325  0  0.085855  0.183681  0  4.073203  0
C  C57  1  0.40847609  0.84802369  0.26979356  1  0  0.181394  0  3.846514  0  0  0.186228  0  4.089069  0  0  0.189822  0  4.112736  0  0.421223  0  0.085876  0.183716  0  4.073132  0
C  C58  1  0.39785670  0.22962466  0.21868727  1  0  -0.047087  0  3.795408  0  0  -0.029792  0  4.045859  0  0  -0.031604  0  4.069846  0  -0.237924  0  -0.014882  -0.028739  0  4.029777  0
C  C59  1  0.60214317  0.27037551  0.71868771  1  0  -0.047079  0  3.795349  0  0  -0.029785  0  4.045793  0  0  -0.031592  0  4.06978  0  -0.237873  0  -0.014866  -0.028733  0  4.029712  0
C  C60  1  0.60214867  0.77037567  0.78131317  1  0  -0.047112  0  3.795336  0  0  -0.02983  0  4.045783  0  0  -0.031638  0  4.069768  0  -0.237968  0  -0.014882  -0.028776  0  4.0297  0
C  C61  1  0.39785195  0.72962397  0.28131361  1  0  -0.047172  0  3.79549  0  0  -0.029859  0  4.045938  0  0  -0.031665  0  4.069931  0  -0.237956  0  -0.014886  -0.028806  0  4.029855  0
C  C62  1  0.56287522  0.19146829  0.17685076  1  0  -0.101847  0  3.759585  0  0  -0.123184  0  4.013811  0  0  -0.124541  0  4.03401  0  -0.030179  0  -0.097304  -0.12217  0  4.000144  0
C  C63  1  0.43712698  0.30853273  0.67685119  1  0  -0.101951  0  3.759544  0  0  -0.123282  0  4.013771  0  0  -0.124636  0  4.033966  0  -0.030189  0  -0.097317  -0.122269  0  4.000107  0
C  C64  1  0.43712491  0.80853375  0.82314881  1  0  -0.101831  0  3.759476  0  0  -0.12317  0  4.013716  0  0  -0.124526  0  4.033913  0  -0.030156  0  -0.097289  -0.122156  0  4.000049  0
C  C65  1  0.56287605  0.69146675  0.32314924  1  0  -0.101792  0  3.759597  0  0  -0.123128  0  4.013818  0  0  -0.124485  0  4.034018  0  -0.030145  0  -0.097284  -0.122114  0  4.00015  0
C  C66  1  0.74435607  0.27335296  0.14672409  1  0  -0.074418  0  3.770759  0  0  -0.09278  0  4.029636  0  0  -0.09495  0  4.051664  0  -0.010464  0  -0.10327  -0.091287  0  4.014641  0
C  C67  1  0.25564776  0.22664721  0.64672409  1  0  -0.074241  0  3.770658  0  0  -0.092594  0  4.029514  0  0  -0.094762  0  4.051541  0  -0.010448  0  -0.103213  -0.0911  0  4.01452  0
C  C68  1  0.25564336  0.72664737  0.85327548  1  0  -0.074378  0  3.770764  0  0  -0.092746  0  4.029631  0  0  -0.094915  0  4.051659  0  -0.010448  0  -0.103266  -0.091254  0  4.014632  0
C  C69  1  0.74435527  0.77335227  0.35327591  1  0  -0.074434  0  3.770746  0  0  -0.092798  0  4.02963  0  0  -0.094968  0  4.051659  0  -0.010508  0  -0.103275  -0.091306  0  4.014633  0
C  C70  1  0.75772073  0.39043535  0.15777033  1  0  -0.072303  0  3.806648  0  0  -0.089141  0  4.064363  0  0  -0.090087  0  4.085412  0  -0.078788  0  -0.106357  -0.088321  0  4.049999  0
C  C71  1  0.24228112  0.10956481  0.65777076  1  0  -0.07236  0  3.806662  0  0  -0.089203  0  4.064396  0  0  -0.090147  0  4.085443  0  -0.078776  0  -0.106352  -0.088378  0  4.050028  0
C  C72  1  0.24228068  0.60956498  0.84222924  1  0  -0.072316  0  3.806636  0  0  -0.089151  0  4.064382  0  0  -0.090094  0  4.085426  0  -0.078765  0  -0.106347  -0.088326  0  4.050011  0
C  C73  1  0.75771993  0.89043466  0.34223011  1  0  -0.072306  0  3.806559  0  0  -0.089153  0  4.064288  0  0  -0.090098  0  4.085335  0  -0.078727  0  -0.106368  -0.088334  0  4.049924  0
C  C74  1  0.59043757  0.42881142  0.19890028  1  0  -0.148192  0  3.742047  0  0  -0.166786  0  3.990901  0  0  -0.16983  0  4.010614  0  0.044505  0  -0.10044  -0.164711  0  3.977598  0
C  C75  1  0.40956230  0.07118875  0.69890116  1  0  -0.148182  0  3.742111  0  0  -0.166768  0  3.990942  0  0  -0.169811  0  4.010656  0  0.044358  0  -0.100431  -0.164694  0  3.977637  0
C  C76  1  0.40956419  0.57118977  0.80109928  1  0  -0.148177  0  3.742124  0  0  -0.166778  0  3.990958  0  0  -0.169821  0  4.010669  0  0.04436  0  -0.100454  -0.164704  0  3.977655  0
C  C77  1  0.59043677  0.92881073  0.30110015  1  0  -0.148174  0  3.74197  0  0  -0.166755  0  3.990835  0  0  -0.169791  0  4.010554  0  0.044375  0  -0.10041  -0.16468  0  3.977531  0
C  C78  1  0.33900157  0.22916902  0.46293535  1  0  0.126362  0  3.725229  0  0  0.097705  0  3.977287  0  0  0.104256  0  3.996401  0  0.497406  0  0.040222  0.093474  0  3.96422  0
C  C79  1  0.66099795  0.27083029  0.96293535  1  0  0.126235  0  3.725312  0  0  0.097596  0  3.977351  0  0  0.104148  0  3.996466  0  0.497382  0  0.040161  0.093366  0  3.964284  0
C  C80  1  0.66099948  0.77083046  0.53706421  1  0  0.126308  0  3.725226  0  0  0.097618  0  3.977252  0  0  0.104168  0  3.996367  0  0.497411  0  0.040179  0.093388  0  3.964184  0
C  C81  1  0.33900113  0.72916919  0.03706421  1  0  0.126407  0  3.725348  0  0  0.097706  0  3.977389  0  0  0.104256  0  3.996506  0  0.497364  0  0.040202  0.093475  0  3.964321  0
C  C82  1  0.32885733  0.11155064  0.46290248  1  0  -0.162237  0  3.714383  0  0  -0.18103  0  3.961816  0  0  -0.188936  0  3.9833  0  -0.007099  0  -0.085481  -0.175901  0  3.947311  0
C  C83  1  0.67114254  0.38844953  0.96290291  1  0  -0.162155  0  3.714303  0  0  -0.180938  0  3.961717  0  0  -0.188844  0  3.983201  0  -0.007081  0  -0.085394  -0.175809  0  3.947212  0
C  C84  1  0.67114408  0.88844970  0.53709752  1  0  -0.162181  0  3.714151  0  0  -0.180941  0  3.96161  0  0  -0.188847  0  3.983093  0  -0.00709  0  -0.085455  -0.175813  0  3.947105  0
C  C85  1  0.32885689  0.61155080  0.03709709  1  0  -0.162247  0  3.714344  0  0  -0.181019  0  3.961768  0  0  -0.188924  0  3.983255  0  -0.007099  0  -0.085427  -0.175892  0  3.947267  0
C  C86  1  0.50217464  0.06240513  0.49920973  1  0  0.089594  0  3.762304  0  0  0.102449  0  3.988307  0  0  0.10645  0  4.009647  0  -0.022268  0  0.009949  0.099988  0  3.97364  0
C  C87  1  0.49782326  0.43759503  0.99920929  1  0  0.089572  0  3.762254  0  0  0.102408  0  3.98828  0  0  0.106409  0  4.00962  0  -0.067378  0  0.009938  0.099948  0  3.973613  0
C  C88  1  0.49782479  0.93759520  0.50079027  1  0  0.089517  0  3.76232  0  0  0.102344  0  3.988341  0  0  0.106344  0  4.009683  0  -0.067521  0  0.009933  0.099884  0  3.973673  0
C  C89  1  0.50217419  0.56240530  0.00079027  1  0  0.089603  0  3.762262  0  0  0.102442  0  3.98828  0  0  0.106443  0  4.00962  0  -0.022121  0  0.009949  0.099982  0  3.973613  0
C  C90  1  0.68028578  0.13816905  0.53397282  1  0  -0.151176  0  3.70789  0  0  -0.168721  0  3.953218  0  0  -0.176754  0  3.975696  0  -0.004625  0  -0.081065  -0.163476  0  3.938001  0
C  C91  1  0.31971409  0.36183111  0.03397282  1  0  -0.151147  0  3.707863  0  0  -0.168691  0  3.953201  0  0  -0.176724  0  3.975679  0  -0.004768  0  -0.081058  -0.163445  0  3.937981  0
C  C92  1  0.31971131  0.86183042  0.46602718  1  0  -0.151107  0  3.707862  0  0  -0.168634  0  3.953181  0  0  -0.176665  0  3.975658  0  -0.004621  0  -0.08102  -0.163388  0  3.937961  0
C  C93  1  0.68028534  0.63816922  0.96602674  1  0  -0.151183  0  3.707862  0  0  -0.168722  0  3.953208  0  0  -0.176755  0  3.975685  0  -0.004776  0  -0.081072  -0.163476  0  3.937987  0
C  C94  1  0.67951837  0.25487275  0.53142362  1  0  0.131887  0  3.702556  0  0  0.100781  0  3.955811  0  0  0.107862  0  3.973603  0  0.482602  0  0.04686  0.096166  0  3.943693  0
C  C95  1  0.32048115  0.24512657  0.03142362  1  0  0.131887  0  3.702485  0  0  0.100785  0  3.955741  0  0  0.107867  0  3.973531  0  0.482608  0  0.04686  0.09617  0  3.943622  0
C  C96  1  0.32047873  0.74512673  0.46857638  1  0  0.131888  0  3.702509  0  0  0.100783  0  3.955759  0  0  0.107864  0  3.97355  0  0.482664  0  0.046851  0.096168  0  3.943639  0
C  C97  1  0.67951792  0.75487291  0.96857594  1  0  0.131946  0  3.702549  0  0  0.100827  0  3.955816  0  0  0.107909  0  3.973606  0  0.482732  0  0.046884  0.096213  0  3.943694  0
S  S98  1  0.15953564  0.14979848  0.26397458  1  0  0.057797  0  2.503896  0  0  0.05931  0  2.83139  0  0  0.057116  0  2.834594  0  0.199833  0  0.083144  0.060643  0  2.829269  0
S  S99  1  0.84046388  0.35020084  0.76397502  1  0  0.057824  0  2.503949  0  0  0.05933  0  2.831432  0  0  0.057138  0  2.834635  0  0.199841  0  0.083149  0.060662  0  2.829311  0
S  S100  1  0.84046577  0.85020186  0.73602498  1  0  0.057821  0  2.50392  0  0  0.059325  0  2.83141  0  0  0.057134  0  2.834612  0  0.199828  0  0.083157  0.060657  0  2.829289  0
S  S101  1  0.15953519  0.64979864  0.23602542  1  0  0.057823  0  2.503992  0  0  0.059326  0  2.831471  0  0  0.057132  0  2.834674  0  0.199839  0  0.083134  0.060658  0  2.829349  0
S  S102  1  0.84282213  0.26720913  0.34707868  1  0  0.055583  0  2.442651  0  0  0.055397  0  2.778061  0  0  0.050521  0  2.780032  0  0.134052  0  0.035391  0.059082  0  2.776588  0
S  S103  1  0.15717739  0.23279018  0.84707911  1  0  0.055579  0  2.442686  0  0  0.055379  0  2.778106  0  0  0.050506  0  2.780075  0  0.134053  0  0.035378  0.059065  0  2.776633  0
S  S104  1  0.15717694  0.73279035  0.65292089  1  0  0.05558  0  2.44269  0  0  0.055366  0  2.778104  0  0  0.050491  0  2.780074  0  0.134051  0  0.035384  0.05905  0  2.776631  0
S  S105  1  0.84282367  0.76720930  0.15292089  1  0  0.055567  0  2.442651  0  0  0.055355  0  2.778046  0  0  0.050478  0  2.780017  0  0.134061  0  0.035369  0.059041  0  2.776572  0
N  N106  1  0.23426897  0.37265954  0.27332062  1  0  -0.370001  0  3.065291  0  0  -0.34363  0  3.337136  0  0  -0.357396  0  3.351989  0  -1.183006  0  -0.327684  -0.334007  0  3.326738  0
N  N107  1  0.76573090  0.12734063  0.77332106  1  0  -0.370012  0  3.06531  0  0  -0.343649  0  3.33715  0  0  -0.357413  0  3.352006  0  -1.183125  0  -0.327697  -0.334028  0  3.326757  0
N  N108  1  0.76573279  0.62734165  0.72667938  1  0  -0.370069  0  3.06528  0  0  -0.343716  0  3.337111  0  0  -0.357485  0  3.351976  0  -1.182949  0  -0.32773  -0.334092  0  3.326712  0
N  N109  1  0.23426782  0.87265799  0.22667982  1  0  -0.370079  0  3.065233  0  0  -0.343722  0  3.337099  0  0  -0.357479  0  3.351954  0  -1.182938  0  -0.327752  -0.334102  0  3.326713  0
N  N110  1  0.51213095  0.30062705  0.49652202  1  0  -0.320193  0  3.200805  0  0  -0.242828  0  3.461387  0  0  -0.262515  0  3.479302  0  -1.229468  0  -0.320429  -0.229354  0  3.448968  0
N  N111  1  0.48786857  0.19937226  0.99652202  1  0  -0.320179  0  3.200846  0  0  -0.242826  0  3.461428  0  0  -0.262513  0  3.479342  0  -1.229453  0  -0.320441  -0.229351  0  3.449008  0
N  N112  1  0.48786813  0.69937243  0.50347798  1  0  -0.320154  0  3.200786  0  0  -0.242796  0  3.461385  0  0  -0.262485  0  3.479302  0  -1.229548  0  -0.320415  -0.229322  0  3.448965  0
N  N113  1  0.51213015  0.80062636  0.00347754  1  0  -0.320205  0  3.200913  0  0  -0.242834  0  3.461514  0  0  -0.262521  0  3.47943  0  -1.229512  0  -0.320435  -0.229359  0  3.449093  0
O  O114  1  0.22589676  0.45713270  0.41635722  1  0  -0.647224  0  2.014807  0  0  -0.576978  0  2.269817  0  0  -0.60578  0  2.25868  0  -1.177648  0  -0.319937  -0.556716  0  2.276669  0
O  O115  1  0.77410311  0.04286746  0.91635722  1  0  -0.647231  0  2.014807  0  0  -0.576978  0  2.269811  0  0  -0.605781  0  2.258678  0  -1.177653  0  -0.31994  -0.556715  0  2.276663  0
O  O116  1  0.77410231  0.54286678  0.58364278  1  0  -0.647212  0  2.014739  0  0  -0.576971  0  2.269746  0  0  -0.605774  0  2.258617  0  -1.177664  0  -0.319929  -0.556709  0  2.2766  0
O  O117  1  0.22590063  0.95713372  0.08364322  1  0  -0.647215  0  2.014704  0  0  -0.577006  0  2.269734  0  0  -0.605808  0  2.258598  0  -1.177674  0  -0.319941  -0.556743  0  2.276588  0
O  O118  1  0.87775530  0.54392423  0.43996625  1  0  -0.663937  0  2.023425  0  0  -0.598683  0  2.284047  0  0  -0.626693  0  2.271597  0  -1.194765  0  -0.334108  -0.578769  0  2.291684  0
O  O119  1  0.12224333  0.95607542  0.93996625  1  0  -0.663941  0  2.023432  0  0  -0.598674  0  2.284032  0  0  -0.626691  0  2.271596  0  -1.194753  0  -0.334101  -0.578759  0  2.291669  0
O  O120  1  0.12224413  0.45607610  0.56003375  1  0  -0.663906  0  2.023405  0  0  -0.598667  0  2.284033  0  0  -0.626683  0  2.271598  0  -1.194755  0  -0.3341  -0.578753  0  2.29167  0
O  O121  1  0.87775808  0.04392492  0.06003375  1  0  -0.663948  0  2.023423  0  0  -0.598689  0  2.284009  0  0  -0.626709  0  2.271585  0  -1.19474  0  -0.334114  -0.578774  0  2.291647  0
