# generated using pymatgen
data_CuH10C14(N3O)4
_symmetry_space_group_name_H-M   'P 1'
_cell_length_a   6.60911026
_cell_length_b   8.52020259
_cell_length_c   8.94025673
_cell_angle_alpha   88.97573072
_cell_angle_beta   76.70404644
_cell_angle_gamma   73.00342803
_symmetry_Int_Tables_number   1
_chemical_formula_structural   CuH10C14(N3O)4
_chemical_formula_sum   'Cu1 H10 C14 N12 O4'
_cell_volume   467.88126922
_cell_formula_units_Z   1
loop_
 _symmetry_equiv_pos_site_id
 _symmetry_equiv_pos_as_xyz
  1  'x, y, z'
loop_
 _atom_site_type_symbol
 _atom_site_label
 _atom_site_symmetry_multiplicity
 _atom_site_fract_x
 _atom_site_fract_y
 _atom_site_fract_z
 _atom_site_occupancy
 _atom_site_hle17_ddec_charge
 _atom_site_hle17_ddec_spin_density
 _atom_site_hle17_ddec_sum_bond_order
 _atom_site_hle17_magmom
 _atom_site_hse06_10hf_ddec_charge
 _atom_site_hse06_10hf_ddec_spin_density
 _atom_site_hse06_10hf_ddec_sum_bond_order
 _atom_site_hse06_10hf_magmom
 _atom_site_hse06_ddec_charge
 _atom_site_hse06_ddec_spin_density
 _atom_site_hse06_ddec_sum_bond_order
 _atom_site_hse06_magmom
 _atom_site_pbe_cm5_charge
 _atom_site_pbe_ddec_charge
 _atom_site_pbe_ddec_spin_density
 _atom_site_pbe_ddec_sum_bond_order
 _atom_site_pbe_magmom
Cu  Cu0  1  0.99999867  0.00000274  0.49999853  1  0.835517  -0.702484  1.938955  -0.519  0.817188  -0.79119  2.334886  -0.642  0.908213  -0.857469  2.266453  -0.729  0.763228  0.761513  -0.742663  2.381435  -0.582
H  H1  1  0.34125248  0.35538814  0.85748248  1  0.121342  0.000153  0.909109  0.0  0.133193  -0.000177  0.968395  0.0  0.135335  -6.9e-05  0.96652  0.0  0.124306  0.131698  -0.000274  0.96968  0.0
H  H2  1  0.65875024  0.64460952  0.14251930  1  0.121328  0.000152  0.909126  0.0  0.133218  -0.000177  0.968377  0.0  0.135361  -6.9e-05  0.966494  0.0  0.124321  0.131721  -0.000274  0.969666  0.0
H  H3  1  0.41618280  0.50432491  0.72819961  1  0.117563  -2.1e-05  0.940473  0.0  0.123892  -0.000288  1.013559  0.0  0.125326  -0.00017  1.013266  0.0  0.123262  0.1229  -0.000384  1.013747  0.0
H  H4  1  0.58382142  0.49567276  0.27180417  1  0.117638  -2.1e-05  0.940429  0.0  0.12397  -0.000288  1.013531  0.0  0.125407  -0.00017  1.013231  0.0  0.123257  0.122975  -0.000384  1.013719  0.0
H  H5  1  0.03026568  0.75680032  0.74103740  1  0.101479  -0.001126  0.915173  -0.002  0.105235  -0.000927  0.982963  -0.001  0.107859  -0.000624  0.979227  -0.001  0.131189  0.103056  -0.001186  0.985951  -0.002
H  H6  1  0.96972911  0.24320590  0.25895990  1  0.101508  -0.001127  0.915151  -0.002  0.105261  -0.000927  0.982938  -0.001  0.107885  -0.000625  0.9792  -0.001  0.131229  0.103079  -0.001186  0.985925  -0.002
H  H7  1  0.21056583  0.70733052  0.97204714  1  0.142883  -0.000134  0.95143  0.0  0.153044  -0.000341  1.004466  0.0  0.157947  -0.000255  1.00182  0.0  0.118619  0.149384  -0.000401  1.006675  0.0
H  H8  1  0.78942309  0.29267078  0.02795342  1  0.142841  -0.000136  0.951457  0.0  0.153012  -0.000341  1.004488  0.0  0.157914  -0.000255  1.001845  0.0  0.118608  0.149353  -0.000401  1.006694  0.0
H  H9  1  0.38900927  0.91283986  0.02740483  1  0.083878  -0.000409  0.94927  -0.001  0.089791  -0.000125  1.014841  0.0  0.092499  -2.2e-05  1.01193  0.0  0.121148  0.087693  -0.000243  1.017138  0.0
H  H10  1  0.61097746  0.08715900  0.97259836  1  0.083888  -0.000409  0.949293  -0.001  0.089836  -0.000126  1.014804  0.0  0.092561  -2.2e-05  1.01187  0.0  0.121139  0.087698  -0.000243  1.017142  0.0
C  C11  1  0.42158674  0.37529965  0.74021517  1  -0.168736  -0.01581  3.614289  -0.018  -0.248887  -0.007911  3.868989  -0.009  -0.250228  -0.005153  3.873275  -0.006  -0.046973  -0.24729  -0.010348  3.865426  -0.011
C  C12  1  0.57840727  0.62470045  0.25978684  1  -0.168829  -0.015788  3.614478  -0.018  -0.249003  -0.0079  3.869225  -0.009  -0.250323  -0.00515  3.873481  -0.006  -0.047001  -0.247416  -0.010339  3.86568  -0.011
C  C13  1  0.24040714  0.20186106  0.61864926  1  0.206574  -0.001167  3.694954  -0.001  0.160909  -0.000477  3.960753  -0.001  0.172976  -0.000411  3.970709  -0.001  0.245588  0.153312  -0.000568  3.953873  -0.001
C  C14  1  0.75959935  0.79813904  0.38134852  1  0.206789  -0.001168  3.694829  -0.001  0.160988  -0.00048  3.960841  -0.001  0.173063  -0.000411  3.97079  -0.001  0.24562  0.153401  -0.000568  3.953949  -0.001
C  C15  1  0.22902504  0.06936293  0.72374539  1  0.353918  0.010636  3.732108  0.007  0.338286  0.002777  3.989174  0.002  0.354277  0.004095  3.999326  0.003  0.268365  0.327407  0.001817  3.98254  0.001
C  C16  1  0.77097625  0.93063841  0.27625543  1  0.35377  0.010637  3.732289  0.007  0.338163  0.002777  3.989434  0.002  0.354156  0.004096  3.99958  0.003  0.268341  0.327278  0.001817  3.982806  0.001
C  C17  1  0.11621999  0.83729728  0.77419887  1  0.184019  0.011004  3.6293  0.008  0.150587  0.003124  3.887836  0.002  0.162303  0.004422  3.902916  0.003  0.07878  0.142908  0.002163  3.878239  0.001
C  C18  1  0.88377620  0.16270527  0.22580051  1  0.184015  0.011005  3.6293  0.008  0.150598  0.003122  3.887832  0.002  0.162317  0.004423  3.90291  0.003  0.078777  0.142922  0.002162  3.878234  0.001
C  C19  1  0.21413204  0.80998407  0.89822367  1  -0.15719  -0.009437  3.669537  -0.01  -0.171039  -0.003689  3.916217  -0.004  -0.180753  -0.00336  3.935051  -0.004  -0.073024  -0.16501  -0.004015  3.904181  -0.005
C  C20  1  0.78585942  0.19001849  0.10177982  1  -0.157195  -0.009427  3.669726  -0.01  -0.171051  -0.003688  3.916386  -0.004  -0.180769  -0.00336  3.93523  -0.004  -0.073011  -0.165017  -0.004015  3.904333  -0.005
C  C21  1  0.31412567  0.92473122  0.92925657  1  0.182409  0.011562  3.664871  0.008  0.153779  0.004121  3.924091  0.002  0.164038  0.004646  3.938048  0.003  0.069954  0.146793  0.003715  3.914988  0.002
C  C22  1  0.68586676  0.07526888  0.07074681  1  0.182325  0.011553  3.664957  0.008  0.153704  0.004121  3.924122  0.002  0.163955  0.004647  3.938074  0.003  0.069916  0.146745  0.003715  3.915028  0.002
C  C23  1  0.66380553  0.27047223  0.70731421  1  0.672293  0.00737  3.897182  0.008  0.633158  0.000832  4.218175  0.001  0.669403  0.001233  4.211921  0.001  0.203639  0.608423  0.000388  4.22138  0.002
C  C24  1  0.33622238  0.72952799  0.29269468  1  0.672393  0.007364  3.897729  0.008  0.633187  0.00083  4.218851  0.001  0.669432  0.001231  4.212588  0.001  0.203637  0.608451  0.000385  4.222056  0.002
N  N25  1  0.12181357  0.96738106  0.68865453  1  -0.329185  -0.06418  3.273075  -0.083  -0.281509  -0.045921  3.551578  -0.063  -0.310719  -0.037599  3.568437  -0.056  -0.327772  -0.264018  -0.050821  3.542025  -0.067
N  N26  1  0.87819243  0.03262027  0.31134331  1  -0.329064  -0.064188  3.273121  -0.083  -0.281424  -0.045925  3.551664  -0.063  -0.310633  -0.037604  3.56852  -0.056  -0.327766  -0.263934  -0.050824  3.542115  -0.067
N  N27  1  0.30854880  0.33474751  0.63243463  1  0.046346  0.001788  3.513448  0.002  0.163944  0.000172  3.690787  0.0  0.155484  0.00035  3.71037  0.001  -0.106686  0.168089  1.3e-05  3.679636  0.0
N  N28  1  0.69145661  0.66525136  0.36756334  1  0.046248  0.001787  3.51321  0.002  0.163871  0.000181  3.690605  0.0  0.155367  0.000345  3.710253  0.001  -0.106744  0.168015  1.4e-05  3.679446  0.0
N  N29  1  0.18036907  0.20799149  0.48545521  1  -0.282747  0.003488  3.05651  0.001  -0.270925  0.002427  3.379244  0.001  -0.285806  0.00297  3.389572  0.001  -0.211971  -0.261755  0.001883  3.373161  0.0
N  N30  1  0.81963487  0.79201108  0.51454405  1  -0.282825  0.00349  3.056602  0.001  -0.270961  0.002425  3.379379  0.001  -0.285836  0.00297  3.389699  0.001  -0.211954  -0.261795  0.001884  3.373299  0.0
N  N31  1  0.29099469  0.42217944  0.50572173  1  -0.07808  0.000427  2.825859  0.0  -0.094548  0.00017  3.114172  0.0  -0.092839  0.000336  3.122239  0.0  -0.061224  -0.095427  -4.3e-05  3.108795  0.0
N  N32  1  0.70901017  0.57782068  0.49427966  1  -0.078101  0.000424  2.825894  0.0  -0.094544  0.000169  3.114185  0.0  -0.092826  0.000337  3.122251  0.0  -0.061225  -0.095422  -4.3e-05  3.108808  0.0
N  N33  1  0.32396210  0.05380067  0.84234172  1  -0.350553  -0.011253  3.000815  -0.014  -0.318552  -0.004927  3.26266  -0.006  -0.333165  -0.003677  3.274243  -0.005  -0.297503  -0.308496  -0.006387  3.254753  -0.008
N  N34  1  0.67603749  0.94619699  0.15766168  1  -0.350438  -0.01125  3.000781  -0.014  -0.318431  -0.004926  3.262602  -0.006  -0.333043  -0.003678  3.274186  -0.005  -0.297438  -0.308374  -0.006386  3.254689  -0.008
N  N35  1  0.21312963  0.34449881  0.41890721  1  -0.047307  0.000332  2.926144  0.0  -0.048711  0.000427  3.24663  0.0  -0.045642  0.000307  3.255014  0.0  -0.079196  -0.050305  0.000498  3.240941  0.0
N  N36  1  0.78687278  0.65550374  0.58109117  1  -0.047298  0.000332  2.926314  0.0  -0.048684  0.000423  3.246777  0.0  -0.045613  0.000311  3.255155  0.0  -0.079202  -0.050279  0.000498  3.241091  0.0
O  O37  1  0.71505421  0.15775927  0.60039952  1  -0.613849  -0.089879  2.12399  -0.123  -0.609024  -0.053572  2.429808  -0.082  -0.654528  -0.039369  2.426774  -0.065  -0.337995  -0.578489  -0.063012  2.431648  -0.09
O  O38  1  0.28493980  0.84222968  0.39958926  1  -0.613865  -0.089776  2.124815  -0.123  -0.608981  -0.053527  2.43066  -0.081  -0.654467  -0.03934  2.427624  -0.065  -0.337998  -0.57845  -0.062961  2.432491  -0.09
O  O39  1  0.77705894  0.30535180  0.78719658  1  -0.602751  -0.002154  1.923363  -0.004  -0.571201  -0.000121  2.147745  -0.001  -0.597871  0.001072  2.14191  0.0  -0.324094  -0.551602  -0.00149  2.150567  -0.003
O  O40  1  0.22294549  0.69464211  0.21279381  1  -0.602953  -0.00216  1.922823  -0.004  -0.57134  -0.000125  2.147214  -0.001  -0.598016  0.00107  2.141375  0.0  -0.324148  -0.551736  -0.001494  2.150035  -0.003
