# generated using pymatgen
data_CuH12C20N6(OF)4
_symmetry_space_group_name_H-M   'P 1'
_cell_length_a   9.51126790
_cell_length_b   9.82695548
_cell_length_c   22.89855364
_cell_angle_alpha   89.99996633
_cell_angle_beta   91.43423773
_cell_angle_gamma   89.99989314
_symmetry_Int_Tables_number   1
_chemical_formula_structural   CuH12C20N6(OF)4
_chemical_formula_sum   'Cu4 H48 C80 N24 O16 F16'
_cell_volume   2139.58415731
_cell_formula_units_Z   4
loop_
 _symmetry_equiv_pos_site_id
 _symmetry_equiv_pos_as_xyz
  1  'x, y, z'
loop_
 _atom_site_type_symbol
 _atom_site_label
 _atom_site_symmetry_multiplicity
 _atom_site_fract_x
 _atom_site_fract_y
 _atom_site_fract_z
 _atom_site_occupancy
 _atom_site_pbe_bader_charge
 _atom_site_pbe_bader_spin_density
 _atom_site_pbe_cm5_charge
 _atom_site_pbe_ddec_charge
 _atom_site_pbe_ddec_spin_density
 _atom_site_pbe_ddec_sum_bond_order
 _atom_site_pbe_magmom
Cu  Cu0  1  0.55871603  0.54238874  0.75921729  1  1.051689  -0.560042  0.731579  0.74882  -0.719225  2.320676  -0.558
Cu  Cu1  1  0.94128115  0.04238512  0.74078199  1  1.051729  -0.560046  0.73161  0.748951  -0.719231  2.320582  -0.558
Cu  Cu2  1  0.44128115  0.45761319  0.24078258  1  1.051732  -0.560044  0.731573  0.748852  -0.719228  2.320659  -0.558
Cu  Cu3  1  0.05871708  0.95761172  0.25921745  1  1.051765  -0.560042  0.731589  0.748847  -0.719224  2.320681  -0.558
H  H4  1  0.43569231  0.51336960  0.88899374  1  0.164388  -0.00011  0.136777  0.115341  6.1e-05  1.006751  0.0
H  H5  1  0.06430668  0.01337091  0.61100655  1  0.164351  -0.00011  0.136776  0.115314  6.1e-05  1.006784  0.0
H  H6  1  0.56430592  0.48662826  0.11100701  1  0.164356  -0.00011  0.136778  0.115325  6.1e-05  1.006725  0.0
H  H7  1  0.93569261  0.98662695  0.38899334  1  0.164345  -0.00011  0.136773  0.115368  6.1e-05  1.006688  0.0
H  H8  1  0.59489783  0.21460559  0.77634025  1  0.18355  -0.000107  0.152197  0.136726  9.4e-05  0.964362  0.0
H  H9  1  0.90510428  0.71460252  0.72365816  1  0.183666  -0.000107  0.152201  0.136732  9.4e-05  0.964397  0.0
H  H10  1  0.40510356  0.78539533  0.22365879  1  0.183593  -0.000107  0.152205  0.136739  9.4e-05  0.964384  0.0
H  H11  1  0.09489606  0.28539432  0.27634043  1  0.183587  -0.000107  0.152204  0.13671  9.4e-05  0.964397  0.0
H  H12  1  0.60395636  0.01653706  0.85572056  1  0.171482  2.9e-05  0.118933  0.124704  1.4e-05  1.028767  0.0
H  H13  1  0.89605034  0.51653717  0.64427796  1  0.17161  2.9e-05  0.118903  0.124708  1.4e-05  1.028629  0.0
H  H14  1  0.39604923  0.98346284  0.14427853  1  0.171577  2.9e-05  0.118906  0.124696  1.4e-05  1.028639  0.0
H  H15  1  0.10395000  0.48346171  0.35571976  1  0.171548  2.9e-05  0.118908  0.12469  1.4e-05  1.028662  0.0
H  H16  1  0.41818042  0.01108284  0.85301867  1  0.118512  6.2e-05  0.119492  0.117294  4.7e-05  0.965918  0.0
H  H17  1  0.08182383  0.51108453  0.64698080  1  0.118513  6.3e-05  0.119482  0.117284  4.7e-05  0.965915  0.0
H  H18  1  0.58182516  0.98891502  0.14698391  1  0.118948  6.3e-05  0.119488  0.117264  4.7e-05  0.965891  0.0
H  H19  1  0.91817546  0.48891434  0.35301735  1  0.118718  6.2e-05  0.119492  0.117266  4.7e-05  0.965896  0.0
H  H20  1  0.33462366  0.59826186  0.65910847  1  0.148767  -5.8e-05  0.140504  0.112691  0.000126  0.984743  0.0
H  H21  1  0.16537517  0.09825860  0.84089135  1  0.148664  -5.8e-05  0.140507  0.112733  0.000126  0.984692  0.0
H  H22  1  0.66537668  0.40173804  0.34089143  1  0.148773  -5.8e-05  0.140523  0.112707  0.000126  0.984698  0.0
H  H23  1  0.83462306  0.90173926  0.15910940  1  0.14877  -5.8e-05  0.140516  0.112711  0.000126  0.984706  0.0
H  H24  1  0.65162643  0.86130230  0.72456611  1  0.224778  -0.000138  0.144222  0.133779  8.5e-05  1.026038  0.0
H  H25  1  0.84837224  0.36129881  0.77543311  1  0.22477  -0.000137  0.144236  0.133775  8.5e-05  1.026026  0.0
H  H26  1  0.34837181  0.13869963  0.27543290  1  0.224768  -0.000137  0.144224  0.13375  8.5e-05  1.02605  0.0
H  H27  1  0.15162704  0.63869905  0.22456678  1  0.224765  -0.000138  0.144236  0.133777  8.5e-05  1.026023  0.0
H  H28  1  0.62304643  0.04808816  0.64339150  1  0.145266  -0.000225  0.120304  0.121803  -0.000297  1.009804  0.0
H  H29  1  0.87695075  0.54808801  0.85660777  1  0.14524  -0.000225  0.120298  0.121824  -0.000297  1.009783  0.0
H  H30  1  0.37694760  0.95191377  0.35660789  1  0.145209  -0.000225  0.120282  0.121817  -0.000297  1.009795  0.0
H  H31  1  0.12305064  0.45191290  0.14339170  1  0.145229  -0.000225  0.120285  0.121799  -0.000297  1.009802  0.0
H  H32  1  0.43950092  0.08515067  0.64417713  1  0.112785  3e-06  0.12515  0.124814  3e-06  0.947176  0.0
H  H33  1  0.06049687  0.58514702  0.85582400  1  0.112716  2e-06  0.125154  0.124823  3e-06  0.947137  0.0
H  H34  1  0.56049309  0.91485228  0.35582707  1  0.112781  2e-06  0.125158  0.124876  3e-06  0.947159  0.0
H  H35  1  0.93950557  0.41485185  0.14417462  1  0.112769  3e-06  0.125154  0.124834  3e-06  0.947152  0.0
H  H36  1  0.90826977  0.18368236  0.53288157  1  0.076131  -0.000274  0.102297  0.108563  -0.00012  0.997151  0.0
H  H37  1  0.59173135  0.68368156  0.96711902  1  0.076139  -0.000274  0.102289  0.10858  -0.000121  0.997185  0.0
H  H38  1  0.09172951  0.81631652  0.46712006  1  0.076131  -0.000274  0.102291  0.108567  -0.000121  0.99723  0.0
H  H39  1  0.40827109  0.31631630  0.03288090  1  0.076127  -0.000274  0.10228  0.108564  -0.000121  0.997181  0.0
H  H40  1  0.73550778  0.23860802  0.45371096  1  0.143498  -0.000303  0.090892  0.080815  -0.00022  1.105926  0.0
H  H41  1  0.76449017  0.73860851  0.04628945  1  0.143461  -0.000303  0.090888  0.080821  -0.00022  1.10593  0.0
H  H42  1  0.26448939  0.76138882  0.54629021  1  0.143459  -0.000303  0.090909  0.080805  -0.00022  1.105895  0.0
H  H43  1  0.23551227  0.26138935  0.95370917  1  0.143438  -0.000303  0.090936  0.080871  -0.00022  1.105851  0.0
H  H44  1  0.51011423  0.35474591  0.47679126  1  0.070171  -4.6e-05  0.094289  0.095434  1.1e-05  1.023521  0.0
H  H45  1  0.98988350  0.85474703  0.02320956  1  0.070171  -4.6e-05  0.094284  0.095447  1.1e-05  1.023495  0.0
H  H46  1  0.48988400  0.64524991  0.52320949  1  0.070164  -4.6e-05  0.094282  0.095423  1.1e-05  1.023549  0.0
H  H47  1  0.01011789  0.14524879  0.97678948  1  0.070191  -4.6e-05  0.09427  0.09542  1.1e-05  1.023518  0.0
H  H48  1  0.46450370  0.42281783  0.57940599  1  0.101418  -0.000218  0.096154  0.100002  -0.000173  1.048322  0.0
H  H49  1  0.03549449  0.92281618  0.92059506  1  0.101451  -0.000218  0.096117  0.099947  -0.000173  1.048335  0.0
H  H50  1  0.53549453  0.57718206  0.42059433  1  0.101447  -0.000218  0.096141  0.10001  -0.000173  1.048294  0.0
H  H51  1  0.96450690  0.07718066  0.07940442  1  0.101436  -0.000218  0.096123  0.099976  -0.000173  1.0484  0.0
C  C52  1  0.46788643  0.41565468  0.87177876  1  0.978672  -5.8e-05  0.148433  0.138466  6.2e-05  3.970016  -0.001
C  C53  1  0.03211599  0.91565547  0.62822102  1  0.978691  -5.8e-05  0.148447  0.138487  6.2e-05  3.970131  -0.001
C  C54  1  0.53211391  0.58434420  0.12822158  1  0.978682  -5.8e-05  0.148463  0.138552  6.2e-05  3.969966  -0.001
C  C55  1  0.96788540  0.08434341  0.37177889  1  0.978653  -5.8e-05  0.148477  0.138468  6.2e-05  3.969887  -0.001
C  C56  1  0.54897615  0.26662273  0.81306603  1  0.979457  0.001212  0.164214  0.085515  0.001662  3.867896  0.0
C  C57  1  0.95102586  0.76662166  0.68693281  1  0.97916  0.001212  0.164181  0.0855  0.001662  3.867976  0.0
C  C58  1  0.45102524  0.73337818  0.18693389  1  0.979416  0.001212  0.16421  0.085489  0.001662  3.868056  0.0
C  C59  1  0.04897343  0.23337620  0.31306577  1  0.979455  0.001213  0.164165  0.085451  0.001663  3.867928  0.0
C  C60  1  0.50878171  0.05939069  0.87512496  1  0.268681  -0.000438  -0.042638  -0.11845  -0.000332  3.871883  0.0
C  C61  1  0.99122596  0.55938760  0.62487399  1  0.268578  -0.000438  -0.0426  -0.118397  -0.000332  3.871862  0.0
C  C62  1  0.49122809  0.94060921  0.12487592  1  0.268141  -0.000438  -0.042579  -0.118283  -0.000332  3.871746  0.0
C  C63  1  0.00877439  0.44060823  0.37512329  1  0.268375  -0.000438  -0.042586  -0.118314  -0.000332  3.871684  0.0
C  C64  1  0.50403812  0.03115606  0.93930990  1  0.106609  -0.000842  -0.017017  -0.082964  -0.000607  4.048154  -0.001
C  C65  1  0.99596961  0.53115712  0.56068906  1  0.106485  -0.000842  -0.01702  -0.083043  -0.000607  4.048114  -0.001
C  C66  1  0.49597168  0.96884180  0.06069010  1  0.106732  -0.000842  -0.017103  -0.083194  -0.000607  4.048078  -0.001
C  C67  1  0.00403389  0.46884277  0.43930913  1  0.106665  -0.000842  -0.01708  -0.083066  -0.000607  4.047951  -0.001
C  C68  1  0.38947124  0.96425899  0.96310720  1  0.558798  -0.000431  0.097583  0.143443  -0.000287  4.068855  0.0
C  C69  1  0.11053634  0.46425930  0.53689263  1  0.559106  -0.000431  0.097581  0.143443  -0.000287  4.068712  0.0
C  C70  1  0.61054066  0.03574396  0.03689458  1  0.558601  -0.000431  0.097644  0.143569  -0.000287  4.06841  0.0
C  C71  1  0.88946610  0.53574060  0.46310554  1  0.558911  -0.000431  0.097521  0.143352  -0.000287  4.068799  0.0
C  C72  1  0.38566515  0.93384532  0.02234886  1  0.527526  -0.000457  0.09525  0.140438  -0.000322  4.071003  0.0
C  C73  1  0.11434366  0.43384605  0.47764868  1  0.52763  -0.000457  0.095296  0.140482  -0.000322  4.070755  0.0
C  C74  1  0.61434781  0.06615559  0.97764988  1  0.527732  -0.000457  0.095332  0.140468  -0.000322  4.070923  0.0
C  C75  1  0.88566089  0.56615283  0.52234952  1  0.527515  -0.000457  0.095292  0.14045  -0.000322  4.070818  0.0
C  C76  1  0.40059437  0.68728530  0.66544330  1  0.964153  -6.5e-05  0.150209  0.139882  9.4e-05  3.971871  -0.001
C  C77  1  0.09940323  0.18728217  0.83455649  1  0.964508  -6.5e-05  0.150162  0.139751  9.4e-05  3.971859  -0.001
C  C78  1  0.59940491  0.31271460  0.33455616  1  0.964443  -6.5e-05  0.150211  0.13988  9.4e-05  3.971891  -0.001
C  C79  1  0.90059500  0.81271467  0.16544382  1  0.964435  -6.5e-05  0.15017  0.139836  9.4e-05  3.971925  -0.001
C  C80  1  0.56562222  0.81692650  0.69859593  1  0.957375  0.000924  0.169587  0.100086  0.00134  3.818009  0.0
C  C81  1  0.93437653  0.31692485  0.80140417  1  0.957365  0.000924  0.169634  0.100123  0.00134  3.818113  0.0
C  C82  1  0.43437706  0.18307442  0.30140352  1  0.957354  0.000924  0.169647  0.100156  0.00134  3.818127  0.0
C  C83  1  0.06562275  0.68307301  0.19859616  1  0.957351  0.000923  0.169612  0.10013  0.001339  3.818004  0.0
C  C84  1  0.51838997  0.01360250  0.62821862  1  0.289111  -0.00091  -0.035487  -0.110934  -0.000656  3.85607  -0.001
C  C85  1  0.98160727  0.51359808  0.87178110  1  0.289289  -0.00091  -0.035511  -0.110994  -0.000656  3.856063  -0.001
C  C86  1  0.48160300  0.98640146  0.37178294  1  0.289296  -0.00091  -0.035424  -0.110899  -0.000656  3.856078  -0.001
C  C87  1  0.01839517  0.48640283  0.12821752  1  0.28929  -0.00091  -0.035417  -0.110825  -0.000656  3.856049  -0.001
C  C88  1  0.50827279  0.00627882  0.56243136  1  0.180518  -0.000806  -0.01718  -0.088359  -0.000568  4.029889  0.0
C  C89  1  0.99172657  0.50627429  0.93756882  1  0.180391  -0.000806  -0.01722  -0.088381  -0.000568  4.029868  0.0
C  C90  1  0.49171913  0.99372718  0.43757019  1  0.18011  -0.000806  -0.017332  -0.088546  -0.000568  4.029907  0.0
C  C91  1  0.00828008  0.49372458  0.06243028  1  0.180082  -0.000806  -0.017318  -0.088523  -0.000568  4.029871  0.0
C  C92  1  0.61859424  0.95558497  0.52979339  1  0.453339  -0.000406  0.094714  0.14019  -0.000256  4.074559  0.0
C  C93  1  0.88140214  0.45558013  0.97020665  1  0.453051  -0.000406  0.094711  0.140215  -0.000256  4.07434  0.0
C  C94  1  0.38139347  0.04442408  0.47020681  1  0.453296  -0.000406  0.09478  0.140237  -0.000256  4.073886  0.0
C  C95  1  0.11860346  0.54441874  0.02979244  1  0.453279  -0.000406  0.094706  0.140092  -0.000256  4.074297  0.0
C  C96  1  0.38910463  0.05063145  0.53102066  1  0.551854  -0.000426  0.098285  0.143984  -0.000299  4.071932  0.0
C  C97  1  0.11089217  0.55062349  0.96898047  1  0.552169  -0.000426  0.098292  0.144011  -0.000298  4.072158  0.0
C  C98  1  0.61088517  0.94937760  0.46898218  1  0.552387  -0.000426  0.098395  0.14408  -0.000298  4.072169  0.0
C  C99  1  0.88911448  0.44937538  0.03101863  1  0.552402  -0.000426  0.098292  0.143937  -0.000298  4.072132  0.0
C  C100  1  0.63860115  0.39976164  0.67277798  1  1.499407  0.001489  0.189641  0.556288  0.002095  4.211012  0.004
C  C101  1  0.86139849  0.89975851  0.82722254  1  1.499138  0.001488  0.189603  0.556207  0.002095  4.211152  0.004
C  C102  1  0.36139708  0.60024029  0.32722190  1  1.499393  0.001488  0.189625  0.556226  0.002095  4.210988  0.004
C  C103  1  0.13860184  0.10023833  0.17277736  1  1.499416  0.001489  0.189674  0.556324  0.002095  4.211063  0.004
C  C104  1  0.65899657  0.34059888  0.61360746  1  -0.047165  -0.008359  -0.021119  -0.05678  -0.005995  3.951942  -0.006
C  C105  1  0.84100108  0.84059571  0.88639262  1  -0.046857  -0.008359  -0.021125  -0.056783  -0.005995  3.952144  -0.006
C  C106  1  0.34100060  0.65940305  0.38639328  1  -0.047131  -0.00836  -0.021128  -0.056771  -0.005996  3.952053  -0.006
C  C107  1  0.15899715  0.15940317  0.11360682  1  -0.047094  -0.008359  -0.021089  -0.056697  -0.005995  3.951982  -0.006
C  C108  1  0.78376364  0.27037255  0.60079033  1  -0.01726  -0.013557  -0.014003  -0.038924  -0.009516  3.935638  -0.011
C  C109  1  0.71623414  0.77037162  0.89921108  1  -0.017342  -0.013557  -0.013953  -0.03882  -0.009516  3.935856  -0.011
C  C110  1  0.21623353  0.72962836  0.39921128  1  -0.017276  -0.013558  -0.013944  -0.038778  -0.009516  3.935804  -0.011
C  C111  1  0.28376514  0.22962827  0.10078881  1  -0.01727  -0.013558  -0.013972  -0.038919  -0.009516  3.935731  -0.011
C  C112  1  0.81054566  0.23566497  0.54301069  1  -0.040709  -0.002865  -0.092232  -0.112905  -0.001784  3.989349  -0.002
C  C113  1  0.68945324  0.73566707  0.95699031  1  -0.04117  -0.002865  -0.09226  -0.112991  -0.001783  3.989476  -0.002
C  C114  1  0.18945151  0.76433492  0.45699049  1  -0.041154  -0.002865  -0.09228  -0.113041  -0.001784  3.989532  -0.002
C  C115  1  0.31054709  0.26433487  0.04300959  1  -0.041186  -0.002865  -0.09228  -0.112978  -0.001783  3.989495  -0.002
C  C116  1  0.71304694  0.26672659  0.49844270  1  -0.008143  -0.003328  -0.099301  -0.093546  -0.002213  4.037718  -0.002
C  C117  1  0.78694991  0.76672506  0.00155857  1  -0.007794  -0.003327  -0.09927  -0.093522  -0.002213  4.037677  -0.002
C  C118  1  0.28694919  0.73327025  0.50155847  1  -0.007595  -0.003327  -0.099313  -0.093502  -0.002213  4.037736  -0.002
C  C119  1  0.21304937  0.23327280  0.99844132  1  -0.007583  -0.003327  -0.0993  -0.093581  -0.002213  4.037717  -0.002
C  C120  1  0.58719913  0.33180687  0.51139365  1  -0.157259  -0.001902  -0.098012  -0.087429  -0.001158  4.009521  -0.001
C  C121  1  0.91279748  0.83180750  0.98860729  1  -0.157178  -0.001902  -0.098013  -0.087482  -0.001158  4.009313  -0.001
C  C122  1  0.41279699  0.66818997  0.48860751  1  -0.157975  -0.001902  -0.097994  -0.087424  -0.001158  4.009475  -0.001
C  C123  1  0.08720286  0.16818934  0.01139174  1  -0.158036  -0.001902  -0.098036  -0.08745  -0.001158  4.009403  -0.001
C  C124  1  0.56064267  0.36925691  0.56881814  1  0.018401  -0.001616  -0.091128  -0.100557  -0.001083  3.973865  -0.001
C  C125  1  0.93935388  0.86925452  0.93118235  1  0.018452  -0.001616  -0.091075  -0.100454  -0.001083  3.973734  -0.001
C  C126  1  0.43935556  0.63074400  0.43118305  1  0.018997  -0.001617  -0.091119  -0.100597  -0.001083  3.973798  -0.001
C  C127  1  0.06064541  0.13074334  0.06881666  1  0.019012  -0.001616  -0.091081  -0.100533  -0.001083  3.973881  -0.001
C  C128  1  0.88411905  0.22011678  0.64778156  1  1.575106  0.001517  0.195711  0.565894  0.002408  4.23379  0.004
C  C129  1  0.61587884  0.72011610  0.85221899  1  1.57514  0.001517  0.195634  0.565761  0.002408  4.233944  0.004
C  C130  1  0.11587813  0.77988413  0.35221918  1  1.57514  0.001516  0.195614  0.565717  0.002408  4.233923  0.004
C  C131  1  0.38411939  0.27988583  0.14778089  1  1.575144  0.001517  0.195703  0.565921  0.002409  4.233753  0.004
N  N132  1  0.52433499  0.40037221  0.81777698  1  -1.185485  -0.062397  -0.374355  -0.329016  -0.041768  3.655103  -0.054
N  N133  1  0.97566361  0.90037212  0.68222222  1  -1.18549  -0.062394  -0.37437  -0.329023  -0.041766  3.655138  -0.054
N  N134  1  0.47566114  0.59962768  0.18222243  1  -1.185525  -0.062396  -0.374372  -0.329019  -0.041768  3.655149  -0.054
N  N135  1  0.02433673  0.09962574  0.31777725  1  -1.18557  -0.062396  -0.374356  -0.328932  -0.041768  3.655041  -0.054
N  N136  1  0.45588083  0.29880465  0.90003377  1  -0.646612  -0.007431  -0.205696  -0.230832  -0.004856  3.119789  -0.006
N  N137  1  0.04412392  0.79880647  0.59996607  1  -0.646691  -0.007431  -0.205602  -0.230664  -0.004856  3.1196  -0.006
N  N138  1  0.54412371  0.70119321  0.09996705  1  -0.646619  -0.007431  -0.205639  -0.230796  -0.004856  3.119685  -0.006
N  N139  1  0.95587642  0.20119343  0.40003340  1  -0.646616  -0.007431  -0.205651  -0.230795  -0.004856  3.1197  -0.006
N  N140  1  0.50812475  0.20587859  0.86231941  1  -0.821533  -0.001814  -0.124622  0.173981  -0.001087  3.718719  -0.001
N  N141  1  0.99188054  0.70587853  0.63767948  1  -0.821234  -0.001814  -0.124683  0.173813  -0.001087  3.718729  -0.001
N  N142  1  0.49187979  0.79412029  0.13768097  1  -0.821512  -0.001814  -0.124688  0.173849  -0.001087  3.718726  -0.001
N  N143  1  0.00812085  0.29411933  0.36231956  1  -0.821509  -0.001814  -0.124661  0.173891  -0.001087  3.718598  -0.001
N  N144  1  0.50790766  0.69393830  0.70621381  1  -1.171415  -0.060199  -0.369861  -0.318405  -0.04059  3.633554  -0.052
N  N145  1  0.99208923  0.19393554  0.79378542  1  -1.171494  -0.060201  -0.369833  -0.318372  -0.040591  3.633479  -0.052
N  N146  1  0.49209057  0.30606261  0.29378563  1  -1.171457  -0.0602  -0.369914  -0.318465  -0.04059  3.633608  -0.052
N  N147  1  0.00790795  0.80606029  0.20621488  1  -1.171422  -0.0602  -0.36987  -0.318467  -0.04059  3.633649  -0.052
N  N148  1  0.38854931  0.79900355  0.63352975  1  -0.662976  -0.006657  -0.209756  -0.233847  -0.004321  3.134459  -0.005
N  N149  1  0.11144807  0.29900138  0.86646957  1  -0.663161  -0.006657  -0.209761  -0.233851  -0.004322  3.134457  -0.005
N  N150  1  0.61144892  0.20099634  0.36646969  1  -0.663202  -0.006657  -0.209758  -0.233844  -0.004321  3.134438  -0.005
N  N151  1  0.88855121  0.70099648  0.13353032  1  -0.663206  -0.006657  -0.209764  -0.233833  -0.004321  3.134467  -0.005
N  N152  1  0.49451694  0.87945867  0.65463552  1  -0.801556  -0.001934  -0.122784  0.172205  -0.001157  3.698804  -0.002
N  N153  1  0.00548134  0.37945672  0.84536336  1  -0.801559  -0.001934  -0.122792  0.17225  -0.001157  3.698955  -0.002
N  N154  1  0.50548130  0.12054224  0.34536348  1  -0.801556  -0.001934  -0.122799  0.172187  -0.001157  3.698882  -0.002
N  N155  1  0.99451794  0.62054216  0.15463610  1  -0.801591  -0.001935  -0.122766  0.172212  -0.001158  3.698837  -0.002
O  O156  1  0.74389248  0.44662243  0.70145269  1  -1.178588  -0.004681  -0.326777  -0.57034  -0.002283  2.208394  -0.005
O  O157  1  0.75610602  0.94661953  0.79854737  1  -1.178578  -0.004681  -0.326795  -0.570334  -0.002283  2.208418  -0.005
O  O158  1  0.25610364  0.55337950  0.29854716  1  -1.178605  -0.004681  -0.326808  -0.570339  -0.002282  2.208363  -0.005
O  O159  1  0.24389537  0.05337935  0.20145211  1  -1.178605  -0.00468  -0.326804  -0.570367  -0.002282  2.208415  -0.005
O  O160  1  0.51233214  0.40979639  0.69170979  1  -1.102191  -0.122499  -0.328452  -0.533744  -0.078617  2.210922  -0.109
O  O161  1  0.98766643  0.90979407  0.80829028  1  -1.102174  -0.122491  -0.328443  -0.533771  -0.078612  2.210973  -0.109
O  O162  1  0.48766609  0.59020554  0.30829052  1  -1.102156  -0.122491  -0.328413  -0.53371  -0.078612  2.210914  -0.109
O  O163  1  0.01233180  0.09020277  0.19170916  1  -1.102173  -0.122499  -0.328455  -0.533775  -0.078617  2.210915  -0.109
O  O164  1  0.82097656  0.14879767  0.68752970  1  -1.110617  -0.134969  -0.339676  -0.554825  -0.086309  2.337702  -0.121
O  O165  1  0.67902251  0.64879693  0.81247088  1  -1.110572  -0.134963  -0.339659  -0.554722  -0.086305  2.337693  -0.121
O  O166  1  0.17902167  0.85120120  0.31247062  1  -1.110557  -0.134962  -0.339629  -0.554695  -0.086304  2.337693  -0.121
O  O167  1  0.32097466  0.35120296  0.18752942  1  -1.110634  -0.13497  -0.339682  -0.554805  -0.086309  2.33765  -0.121
O  O168  1  0.01323233  0.23772526  0.64478520  1  -1.165987  -0.004391  -0.329519  -0.550994  -0.001922  2.10297  -0.005
O  O169  1  0.48676516  0.73772492  0.85521633  1  -1.166039  -0.004392  -0.329454  -0.550944  -0.001922  2.103047  -0.005
O  O170  1  0.98676379  0.76227463  0.35521641  1  -1.166063  -0.004392  -0.329448  -0.55093  -0.001923  2.103001  -0.005
O  O171  1  0.51323202  0.26227701  0.14478398  1  -1.165984  -0.004392  -0.329502  -0.551001  -0.001922  2.102993  -0.005
F  F172  1  0.27752654  0.93054165  0.92831125  1  -0.630511  -0.000105  -0.073351  -0.099402  -5.3e-05  1.422375  0.0
F  F173  1  0.22247901  0.43053459  0.57168682  1  -0.630595  -0.000105  -0.07336  -0.099377  -5.3e-05  1.422474  0.0
F  F174  1  0.72248641  0.06946944  0.07169098  1  -0.63038  -0.000105  -0.073419  -0.099472  -5.3e-05  1.422396  0.0
F  F175  1  0.77751923  0.56946327  0.42831131  1  -0.630616  -0.000105  -0.073364  -0.09938  -5.3e-05  1.422489  0.0
F  F176  1  0.27058881  0.87133877  0.04353606  1  -0.626028  -7.6e-05  -0.083774  -0.105262  -1.4e-05  1.410127  0.0
F  F177  1  0.22942116  0.37133830  0.45646281  1  -0.626215  -7.6e-05  -0.083788  -0.105294  -1.4e-05  1.410155  0.0
F  F178  1  0.72942834  0.12866825  0.95646534  1  -0.626303  -7.6e-05  -0.0838  -0.105279  -1.4e-05  1.410219  0.0
F  F179  1  0.77058234  0.62866160  0.54353494  1  -0.626111  -7.6e-05  -0.083754  -0.105228  -1.4e-05  1.410062  0.0
F  F180  1  0.73749668  0.91284628  0.55794459  1  -0.62485  -4e-05  -0.085104  -0.107985  9e-06  1.422912  0.0
F  F181  1  0.76249663  0.41284475  0.94205543  1  -0.624632  -4e-05  -0.085083  -0.107964  9e-06  1.42286  0.0
F  F182  1  0.26248367  0.08716176  0.44205597  1  -0.624801  -4e-05  -0.085099  -0.107947  9e-06  1.422565  0.0
F  F183  1  0.23750687  0.58715718  0.05794320  1  -0.624689  -4e-05  -0.085046  -0.107859  9e-06  1.422754  0.0
F  F184  1  0.27756221  0.10040178  0.55974596  1  -0.622682  -6.2e-05  -0.074607  -0.095708  -2.7e-05  1.390465  0.0
F  F185  1  0.22243345  0.60038755  0.94025427  1  -0.6228  -6.2e-05  -0.074575  -0.095669  -2.7e-05  1.39052  0.0
F  F186  1  0.72242549  0.89961847  0.44025686  1  -0.622694  -6.2e-05  -0.074652  -0.095716  -2.7e-05  1.390494  0.0
F  F187  1  0.77757215  0.39960929  0.05974482  1  -0.622796  -6.2e-05  -0.074578  -0.095642  -2.7e-05  1.390491  0.0
