# generated using pymatgen
data_Zn4H8C27S4O19
_symmetry_space_group_name_H-M   'P 1'
_cell_length_a   19.66352931
_cell_length_b   19.56407973
_cell_length_c   33.21396696
_cell_angle_alpha   79.49938127
_cell_angle_beta   79.14114665
_cell_angle_gamma   63.95171049
_symmetry_Int_Tables_number   1
_chemical_formula_structural   Zn4H8C27S4O19
_chemical_formula_sum   'Zn16 H32 C108 S16 O76'
_cell_volume   11202.01420269
_cell_formula_units_Z   4
loop_
 _symmetry_equiv_pos_site_id
 _symmetry_equiv_pos_as_xyz
  1  'x, y, z'
loop_
 _atom_site_type_symbol
 _atom_site_label
 _atom_site_symmetry_multiplicity
 _atom_site_fract_x
 _atom_site_fract_y
 _atom_site_fract_z
 _atom_site_occupancy
 _atom_site_pbe_bader_charge
 _atom_site_pbe_bader_spin_density
 _atom_site_pbe_cm5_charge
 _atom_site_pbe_ddec_charge
 _atom_site_pbe_ddec_spin_density
 _atom_site_pbe_ddec_sum_bond_order
 _atom_site_pbe_magmom
Zn  Zn0  1  0.05702530  0.40132798  0.47806116  1  1.325315  0  0.679886  0.985669  0  2.294427  0
Zn  Zn1  1  0.98174828  0.48431394  0.56051256  1  1.316636  0  0.679378  0.963514  0  2.386636  0
Zn  Zn2  1  0.05336742  0.56741170  0.48531807  1  1.317538  0  0.678737  0.969993  0  2.371726  0
Zn  Zn3  1  0.90042291  0.55657636  0.47829079  1  1.317231  0  0.68076  0.967687  0  2.387279  0
Zn  Zn4  1  0.69147525  0.35408788  0.27068784  1  1.326412  0  0.681385  0.981442  0  2.331677  0
Zn  Zn5  1  0.68322231  0.19459490  0.26950595  1  1.313906  0  0.673329  0.964369  0  2.364129  0
Zn  Zn6  1  0.76896934  0.25890866  0.19137143  1  1.317318  0  0.68157  0.970252  0  2.355765  0
Zn  Zn7  1  0.84488355  0.19682736  0.27370551  1  1.318214  0  0.677315  0.968185  0  2.371581  0
Zn  Zn8  1  0.26905322  0.76627238  0.68942420  1  1.313712  0  0.671659  0.962888  0  2.366529  0
Zn  Zn9  1  0.35069537  0.69395345  0.77182347  1  1.31878  0  0.677417  0.968702  0  2.355875  0
Zn  Zn10  1  0.19649795  0.85014534  0.77170400  1  1.323961  0  0.681317  0.980989  0  2.336588  0
Zn  Zn11  1  0.19106101  0.69017498  0.76665819  1  1.314008  0  0.67661  0.969025  0  2.365817  0
Zn  Zn12  1  0.56042222  0.06132216  0.98419642  1  1.310978  0  0.671816  0.964694  0  2.369511  0
Zn  Zn13  1  0.40108626  0.05650152  0.97927457  1  1.320206  0  0.673141  0.963586  0  2.374505  0
Zn  Zn14  1  0.55615572  0.90202999  0.97817352  1  1.321083  0  0.675021  0.969208  0  2.373311  0
Zn  Zn15  1  0.48349093  0.98196546  0.06112674  1  1.309494  0  0.672345  0.964023  0  2.373949  0
H  H16  1  0.96372756  0.27134936  0.33210058  1  0.125466  0  0.115042  0.123253  0  0.98303  0
H  H17  1  0.74061010  0.45010524  0.35921556  1  0.118654  0  0.116484  0.127881  0  0.979314  0
H  H18  1  0.01390363  0.31649905  0.38105004  1  0.094832  0  0.114556  0.120734  0  0.983807  0
H  H19  1  0.08549107  0.61451833  0.70098185  1  0.119572  0  0.121213  0.130543  0  0.974343  0
H  H20  1  0.22758489  0.66958177  0.59762859  1  0.109253  0  0.113602  0.124293  0  0.990126  0
H  H21  1  0.03276177  0.56821643  0.65378800  1  0.109919  0  0.120756  0.128313  0  0.971806  0
H  H22  1  0.47810469  0.23593631  0.36048828  1  0.146825  0  0.119777  0.144512  0  0.973965  0
H  H23  1  0.48016787  0.71014844  0.60426452  1  0.114321  0  0.124003  0.15042  0  0.96575  0
H  H24  1  0.18608204  0.97817291  0.60142698  1  0.105123  0  0.118491  0.144029  0  0.974623  0
H  H25  1  0.93759205  0.97753467  0.35116133  1  0.119777  0  0.125828  0.153614  0  0.962772  0
H  H26  1  0.56120887  0.03532392  0.15366975  1  0.130819  0  0.115717  0.12234  0  0.982411  0
H  H27  1  0.62434721  0.17632860  0.05303571  1  0.10039  0  0.113585  0.122569  0  0.993626  0
H  H28  1  0.60522371  0.08658708  0.20291359  1  0.088268  0  0.115988  0.12158  0  0.978534  0
H  H29  1  0.53218614  0.76545869  0.14716238  1  0.1393  0  0.119909  0.145068  0  0.973032  0
H  H30  1  0.16361858  0.14368349  0.04226020  1  0.138871  0  0.123711  0.150243  0  0.967223  0
H  H31  1  0.49658915  0.79061490  0.90521535  1  0.134544  0  0.116454  0.124283  0  0.981444  0
H  H32  1  0.30247697  0.00744952  0.89458923  1  0.129163  0  0.114158  0.127349  0  0.986131  0
H  H33  1  0.45009166  0.74334253  0.85533553  1  0.092041  0  0.116309  0.12405  0  0.980155  0
H  H34  1  0.30163912  0.27986328  0.90370172  1  0.114092  0  0.125101  0.152005  0  0.964005  0
H  H35  1  0.78769930  0.01142896  0.91139857  1  0.118459  0  0.123427  0.149962  0  0.965232  0
H  H36  1  0.78662876  0.58930487  0.38126424  1  0.638619  0  0.331771  0.377486  0  0.880586  0
H  H37  1  0.14844535  0.72758726  0.53299032  1  0.607814  0  0.345468  0.375867  0  0.863417  0
H  H38  1  0.75088307  0.18056809  0.06297807  1  0.603776  0  0.339765  0.369655  0  0.872224  0
H  H39  1  0.17841812  0.96417341  0.88814407  1  0.610109  0  0.336974  0.36714  0  0.875262  0
H  H40  1  0.24212152  0.55845116  0.46080785  1  0.649514  0  0.313776  0.373022  0  0.929196  0
H  H41  1  0.77023937  0.57153115  0.68222664  1  0.629381  0  0.34306  0.375592  0  0.863342  0
H  H42  1  0.95584361  0.34405432  0.64608825  1  0.642431  0  0.329095  0.381688  0  0.88706  0
H  H43  1  0.73083760  0.81415399  0.42452555  1  0.605211  0  0.344584  0.378195  0  0.857094  0
H  H44  1  0.75333741  0.38137510  0.11719843  1  0.643243  0  0.303453  0.35705  0  0.987218  0
H  H45  1  0.06637106  0.02987963  0.22996687  1  0.623614  0  0.341124  0.376778  0  0.864035  0
H  H46  1  0.44201662  0.50709523  0.89696632  1  0.616882  0  0.340206  0.373878  0  0.866803  0
H  H47  1  0.00497168  0.67745675  0.87567435  1  0.619314  0  0.341155  0.374388  0  0.864643  0
C  C48  1  0.05463429  0.31653437  0.56158148  1  1.596373  0  0.219104  0.613642  0  4.214903  0
C  C49  1  0.06259673  0.57222641  0.57177316  1  1.56777  0  0.231608  0.605173  0  4.175186  0
C  C50  1  0.18753216  0.44466764  0.44705069  1  1.563106  0  0.220612  0.615823  0  4.20581  0
C  C51  1  0.93836725  0.68284511  0.43452809  1  1.593181  0  0.218187  0.607781  0  4.230148  0
C  C52  1  0.93632420  0.43204212  0.42764925  1  1.585928  0  0.233352  0.60908  0  4.162122  0
C  C53  1  0.81446860  0.55970673  0.55995612  1  1.581506  0  0.220797  0.613193  0  4.220359  0
C  C54  1  0.56704689  0.31543106  0.31706663  1  1.555819  0  0.219748  0.616036  0  4.20463  0
C  C55  1  0.67202009  0.18350866  0.18476303  1  1.562981  0  0.2332  0.611484  0  4.162062  0
C  C56  1  0.68966122  0.42875889  0.18303857  1  1.529045  0  0.227432  0.614734  0  4.183234  0
C  C57  1  0.93515774  0.18545722  0.19123699  1  1.560785  0  0.214657  0.605307  0  4.234135  0
C  C58  1  0.81842059  0.32942150  0.31514228  1  1.561743  0  0.234085  0.611567  0  4.152833  0
C  C59  1  0.80805909  0.06514020  0.30818819  1  1.579895  0  0.218429  0.610411  0  4.222067  0
C  C60  1  0.43579290  0.67809695  0.68940938  1  1.584573  0  0.220369  0.611455  0  4.215983  0
C  C61  1  0.32254270  0.81783599  0.81904017  1  1.552864  0  0.230089  0.604467  0  4.168995  0
C  C62  1  0.19211028  0.93370786  0.68815717  1  1.582622  0  0.220783  0.613891  0  4.206531  0
C  C63  1  0.06464632  0.81526430  0.80885804  1  1.594125  0  0.217618  0.610146  0  4.223553  0
C  C64  1  0.18724484  0.67627078  0.67983710  1  1.565992  0  0.231541  0.604769  0  4.167164  0
C  C65  1  0.30879226  0.56934015  0.81435109  1  1.578618  0  0.217159  0.609215  0  4.223824  0
C  C66  1  0.44062825  0.18360129  0.93790039  1  1.587139  0  0.218916  0.610845  0  4.219408  0
C  C67  1  0.42901169  0.93021928  0.93256239  1  1.561332  0  0.231171  0.606051  0  4.16458  0
C  C68  1  0.68300450  0.94192020  0.93731452  1  1.562721  0  0.219315  0.610044  0  4.217507  0
C  C69  1  0.56038606  0.81581943  0.06143913  1  1.582795  0  0.218067  0.615142  0  4.206293  0
C  C70  1  0.56758903  0.07025855  0.07091618  1  1.540827  0  0.230751  0.604343  0  4.16775  0
C  C71  1  0.31638374  0.06835799  0.06293681  1  1.561363  0  0.218724  0.610461  0  4.220965  0
C  C72  1  0.90562107  0.40771436  0.39772340  1  -0.080612  0  -0.007557  -0.05289  0  3.942707  0
C  C73  1  0.84932250  0.35877881  0.34257625  1  -0.001553  0  -0.009196  -0.023234  0  3.969208  0
C  C74  1  0.82788496  0.44647261  0.39170196  1  0.015405  0  -0.002082  -0.055189  0  3.95048  0
C  C75  1  0.92651002  0.32049486  0.34864500  1  -0.069396  0  -0.074132  -0.085562  0  3.955102  0
C  C76  1  0.80071063  0.42189045  0.36371657  1  -0.05282  0  -0.071687  -0.111453  0  3.924534  0
C  C77  1  0.95419308  0.34539623  0.37584849  1  0.060769  0  -0.073627  -0.080325  0  3.966809  0
C  C78  1  0.09955688  0.59415034  0.59943182  1  0.00648  0  -0.000977  -0.034275  0  3.938273  0
C  C79  1  0.15816307  0.64619666  0.65173422  1  0.008035  0  -0.006641  -0.018111  0  3.958433  0
C  C80  1  0.15562586  0.62160257  0.58308961  1  -0.04385  0  -0.00949  -0.079653  0  3.995865  0
C  C81  1  0.10447114  0.61634962  0.66798184  1  -0.00194  0  -0.063074  -0.069605  0  3.924984  0
C  C82  1  0.18404147  0.64823230  0.60938885  1  -0.042247  0  -0.076131  -0.127211  0  3.948651  0
C  C83  1  0.07534886  0.59066971  0.64182552  1  -0.019891  0  -0.065594  -0.074133  0  3.937484  0
C  C84  1  0.30434276  0.46524381  0.40551452  1  0.094292  0  -0.011724  -0.08343  0  3.957  0
C  C85  1  0.45604894  0.29669210  0.36323143  1  0.009655  0  -0.08993  -0.133695  0  3.968907  0
C  C86  1  0.26440763  0.42124493  0.42407187  1  -0.142646  0  -0.018963  -0.145328  0  3.940323  0
C  C87  1  0.49404987  0.34128275  0.34381215  1  -0.154216  0  -0.025772  -0.130087  0  3.992781  0
C  C88  1  0.38671125  0.34156334  0.38566295  1  -0.183609  0  -0.02076  -0.006968  0  4.077412  0
C  C89  1  0.37365834  0.41904790  0.38294796  1  -0.176455  0  -0.0124  -0.026988  0  4.03946  0
C  C90  1  0.72651502  0.54969114  0.62586305  1  0.026283  0  -0.020755  -0.113093  0  4.026364  0
C  C91  1  0.52480676  0.66956175  0.62250788  1  0.092697  0  -0.085981  -0.131283  0  3.969386  0
C  C92  1  0.74010083  0.57521063  0.58452568  1  -0.112235  0  -0.016927  -0.137133  0  3.968329  0
C  C93  1  0.51030149  0.64825554  0.66409394  1  -0.212183  0  -0.021293  -0.115224  0  3.977288  0
C  C94  1  0.60320798  0.63336398  0.60864323  1  -0.160387  0  -0.019922  -0.005848  0  4.077258  0
C  C95  1  0.64740713  0.58420549  0.64000019  1  -0.153086  0  -0.020048  -0.051146  0  4.06348  0
C  C96  1  0.07840339  0.22768008  0.63002776  1  0.032764  0  -0.01165  -0.084798  0  3.971985  0
C  C97  1  0.16491802  0.02355277  0.62126623  1  0.089475  0  -0.091606  -0.139733  0  3.97675  0
C  C98  1  0.07856966  0.24238094  0.58727555  1  -0.139637  0  -0.022466  -0.151487  0  3.957212  0
C  C99  1  0.16543835  0.00917387  0.66365436  1  -0.190121  0  -0.023178  -0.125812  0  3.985929  0
C  C100  1  0.13378729  0.10303771  0.60879794  1  -0.180895  0  -0.020759  -0.004453  0  4.076567  0
C  C101  1  0.11116849  0.14749030  0.64197885  1  -0.134332  0  -0.013276  -0.033187  0  4.036607  0
C  C102  1  0.85199439  0.78873060  0.38538622  1  0.05959  0  -0.021267  -0.115741  0  4.026904  0
C  C103  1  0.89904153  0.95141525  0.35080887  1  0.062309  0  -0.084653  -0.129181  0  3.965002  0
C  C104  1  0.91540568  0.75458200  0.40673024  1  -0.177783  0  -0.019106  -0.141812  0  3.975858  0
C  C105  1  0.83474104  0.98781994  0.33063056  1  -0.188474  0  -0.023454  -0.117243  0  3.984193  0
C  C106  1  0.90539163  0.87905994  0.37048507  1  -0.165341  0  -0.019436  -0.006111  0  4.077481  0
C  C107  1  0.84577913  0.86107182  0.36475266  1  -0.137433  0  -0.020853  -0.044436  0  4.057392  0
C  C108  1  0.64020603  0.15905575  0.15547722  1  0.003818  0  -0.001594  -0.03364  0  3.930761  0
C  C109  1  0.59206407  0.10172296  0.10051874  1  -0.006938  0  -0.009983  -0.019805  0  3.965788  0
C  C110  1  0.64522448  0.18573802  0.11312336  1  -0.061813  0  -0.008043  -0.071576  0  3.991422  0
C  C111  1  0.58504148  0.07714366  0.14275815  1  -0.059838  0  -0.069652  -0.077748  0  3.943839  0
C  C112  1  0.62161121  0.15630138  0.08590052  1  0.024489  0  -0.076624  -0.126259  0  3.956217  0
C  C113  1  0.60917282  0.10577200  0.16999192  1  0.014818  0  -0.071071  -0.082088  0  3.95156  0
C  C114  1  0.68217765  0.52078014  0.11415405  1  0.054044  0  -0.012906  -0.085997  0  3.958518  0
C  C115  1  0.56780702  0.72217278  0.12665398  1  -0.066141  0  -0.090116  -0.133965  0  3.969079  0
C  C116  1  0.66579746  0.50214197  0.15666320  1  -0.136464  0  -0.018372  -0.153682  0  3.937503  0
C  C117  1  0.58530456  0.73936819  0.08475770  1  -0.144813  0  -0.027497  -0.133285  0  3.992262  0
C  C118  1  0.60286009  0.64230425  0.13766881  1  -0.155411  0  -0.019621  -0.007127  0  4.072753  0
C  C119  1  0.64578150  0.60112449  0.10396229  1  -0.145812  0  -0.012609  -0.024086  0  4.049096  0
C  C120  1  0.08184535  0.12976171  0.18088107  1  0.048286  0  -0.018144  -0.104203  0  4.021222  0
C  C121  1  0.17092840  0.12992808  0.07481155  1  0.031671  0  -0.087302  -0.1343  0  3.966355  0
C  C122  1  0.01056495  0.16343828  0.16685874  1  -0.195681  0  -0.02497  -0.158415  0  3.983645  0
C  C123  1  0.24190914  0.09455725  0.08858331  1  -0.207616  0  -0.021377  -0.116441  0  3.979844  0
C  C124  1  0.11247771  0.14370847  0.10835091  1  -0.136214  0  -0.019145  -0.004124  0  4.071401  0
C  C125  1  0.14028998  0.11871652  0.14714564  1  -0.217608  0  -0.017518  -0.036961  0  4.051018  0
C  C126  1  0.35023707  0.84848923  0.84739660  1  0.008986  0  -0.004909  -0.044106  0  3.941097  0
C  C127  1  0.40148318  0.90138275  0.90311942  1  -0.062259  0  -0.009762  -0.018938  0  3.966913  0
C  C128  1  0.30797125  0.92363332  0.85813881  1  -0.015419  0  -0.007025  -0.06873  0  3.987288  0
C  C129  1  0.44387237  0.82707345  0.89195917  1  0.035063  0  -0.072628  -0.085103  0  3.949606  0
C  C130  1  0.33382004  0.94932107  0.88616369  1  -0.05271  0  -0.076474  -0.125013  0  3.945947  0
C  C131  1  0.41814364  0.80103751  0.86428325  1  -0.024797  0  -0.071751  -0.079677  0  3.953572  0
C  C132  1  0.40630938  0.45074557  0.85191704  1  0.022154  0  -0.019214  -0.105897  0  4.02725  0
C  C133  1  0.34635604  0.30008813  0.89798432  1  0.080381  0  -0.08549  -0.131402  0  3.962067  0
C  C134  1  0.33557654  0.49296697  0.83779826  1  -0.141862  0  -0.021089  -0.146293  0  3.972374  0
C  C135  1  0.41618689  0.25832371  0.91267154  1  -0.186316  0  -0.022318  -0.116031  0  3.981746  0
C  C136  1  0.34271065  0.37001128  0.87572743  1  -0.161021  0  -0.018577  -0.001137  0  4.069776  0
C  C137  1  0.41021601  0.38015439  0.87388530  1  -0.165769  0  -0.021336  -0.047745  0  4.065526  0
C  C138  1  0.94151729  0.80294531  0.84240254  1  0.001183  0  -0.019649  -0.106984  0  4.02935  0
C  C139  1  0.80305751  0.95658959  0.90074101  1  0.040179  0  -0.086541  -0.132088  0  3.962349  0
C  C140  1  0.98853993  0.84133237  0.83278001  1  -0.103139  0  -0.022538  -0.149407  0  3.972838  0
C  C141  1  0.75674151  0.91785989  0.91098741  1  -0.145682  0  -0.02229  -0.118016  0  3.981301  0
C  C142  1  0.87012767  0.91516993  0.87552452  1  -0.180795  0  -0.019475  -0.003689  0  4.071132  0
C  C143  1  0.87351379  0.84537515  0.86704645  1  -0.156846  0  -0.020025  -0.045472  0  4.063719  0
C  C144  1  0.76863107  0.50676927  0.41786866  1  1.586318  0  0.228266  0.588085  0  4.141984  0
C  C145  1  0.18911018  0.61795887  0.53848562  1  1.54677  0  0.239503  0.59284  0  4.107076  0
C  C146  1  0.66849741  0.25042624  0.09700400  1  1.564184  0  0.229733  0.578906  0  4.134378  0
C  C147  1  0.23900263  0.98047697  0.83790053  1  1.551973  0  0.228727  0.580347  0  4.137319  0
C  C148  1  0.28351211  0.54969192  0.40216262  1  1.596866  0  0.228926  0.595819  0  4.124817  0
C  C149  1  0.78791596  0.49095241  0.65045809  1  1.568665  0  0.240614  0.610897  0  4.107828  0
C  C150  1  0.05818460  0.28167645  0.66183037  1  1.569188  0  0.232495  0.597215  0  4.123755  0
C  C151  1  0.80036661  0.75143641  0.38323068  1  1.559283  0  0.239698  0.612348  0  4.11023  0
C  C152  1  0.73054547  0.47388052  0.07979301  1  1.609756  0  0.225126  0.582614  0  4.148105  0
C  C153  1  0.09791305  0.11128765  0.22499924  1  1.583523  0  0.234461  0.602751  0  4.12033  0
C  C154  1  0.47190777  0.47349908  0.84283020  1  1.5781  0  0.233563  0.600344  0  4.124858  0
C  C155  1  0.95722644  0.72933891  0.82673306  1  1.572769  0  0.23363  0.603021  0  4.124522  0
S  S156  1  0.31142788  0.32581493  0.41450650  1  0.278203  0  0.091723  0.138724  0  2.745262  0
S  S157  1  0.44580377  0.43727132  0.35210004  1  0.323389  0  0.111157  0.170882  0  2.775041  0
S  S158  1  0.65856062  0.63708792  0.56234210  1  0.309599  0  0.115539  0.172501  0  2.737344  0
S  S159  1  0.59115758  0.58291664  0.68658434  1  0.286451  0  0.102835  0.15224  0  2.720664  0
S  S160  1  0.11764435  0.15998731  0.56238810  1  0.264752  0  0.086701  0.13253  0  2.736732  0
S  S161  1  0.12944423  0.09133769  0.68844614  1  0.33312  0  0.121776  0.185843  0  2.739875  0
S  S162  1  0.96839112  0.80759130  0.40101808  1  0.325159  0  0.112736  0.169137  0  2.739039  0
S  S163  1  0.78205232  0.93426666  0.33487902  1  0.273609  0  0.087673  0.132552  0  2.728009  0
S  S164  1  0.60744021  0.58170904  0.18262941  1  0.295934  0  0.104351  0.156684  0  2.753221  0
S  S165  1  0.64374421  0.65979503  0.05861397  1  0.358105  0  0.11052  0.173161  0  2.831358  0
S  S166  1  0.01443259  0.18253884  0.11346452  1  0.338396  0  0.10264  0.157741  0  2.73703  0
S  S167  1  0.23849319  0.07869262  0.14205578  1  0.354105  0  0.100134  0.15176  0  2.73029  0
S  S168  1  0.27498241  0.44708352  0.85021971  1  0.296049  0  0.103208  0.154396  0  2.730911  0
S  S169  1  0.47812723  0.30288969  0.89937920  1  0.284922  0  0.093514  0.141431  0  2.73369  0
S  S170  1  0.95019885  0.92868501  0.85270242  1  0.283288  0  0.10012  0.151329  0  2.729503  0
S  S171  1  0.79355285  0.83158562  0.88994275  1  0.290152  0  0.098846  0.15094  0  2.730432  0
O  O172  1  0.99900972  0.50129276  0.50005403  1  -1.230418  0  -0.570578  -1.033153  0  2.523009  0
O  O173  1  0.07023138  0.31560237  0.52240534  1  -1.178256  0  -0.317403  -0.545763  0  2.313152  0
O  O174  1  0.03388569  0.52507141  0.58775522  1  -1.15106  0  -0.302765  -0.52285  0  2.328306  0
O  O175  1  0.15536534  0.51256304  0.45747064  1  -1.168211  0  -0.307525  -0.534701  0  2.377884  0
O  O176  1  0.02000183  0.37577928  0.58087819  1  -1.182204  0  -0.310606  -0.537859  0  2.371712  0
O  O177  1  0.15957666  0.39496652  0.45430903  1  -1.162075  0  -0.317344  -0.548282  0  2.324246  0
O  O178  1  0.06117268  0.60445098  0.53468516  1  -1.167868  0  -0.311963  -0.55303  0  2.368715  0
O  O179  1  0.00255646  0.65934338  0.44795528  1  -1.162979  0  -0.312794  -0.532454  0  2.332266  0
O  O180  1  0.89043614  0.49427952  0.44238994  1  -1.172331  0  -0.302237  -0.537005  0  2.41996  0
O  O181  1  0.89144356  0.65196139  0.44324011  1  -1.164449  0  -0.30588  -0.53051  0  2.351331  0
O  O182  1  0.00432537  0.39021619  0.43603783  1  -1.167708  0  -0.309912  -0.541021  0  2.301677  0
O  O183  1  0.87248504  0.52793907  0.57964349  1  -1.166695  0  -0.309874  -0.538229  0  2.367239  0
O  O184  1  0.81368016  0.58161069  0.52129412  1  -1.168439  0  -0.312931  -0.531398  0  2.335547  0
O  O185  1  0.74673538  0.25198368  0.25130446  1  -1.226868  0  -0.571638  -1.033611  0  2.531485  0
O  O186  1  0.59326176  0.36565451  0.30251666  1  -1.168117  0  -0.318229  -0.546905  0  2.32686  0
O  O187  1  0.64282594  0.18292521  0.22235658  1  -1.163426  0  -0.306172  -0.531187  0  2.311616  0
O  O188  1  0.72977973  0.36667305  0.16584323  1  -1.17309  0  -0.298658  -0.529172  0  2.393631  0
O  O189  1  0.59825679  0.24496215  0.31051977  1  -1.169821  0  -0.320068  -0.543982  0  2.313423  0
O  O190  1  0.66890414  0.43161033  0.22162109  1  -1.153372  0  -0.307075  -0.531189  0  2.341695  0
O  O191  1  0.72797594  0.20055749  0.16937617  1  -1.161813  0  -0.311133  -0.550611  0  2.368762  0
O  O192  1  0.87793384  0.22040128  0.17082124  1  -1.165207  0  -0.315925  -0.53557  0  2.334913  0
O  O193  1  0.86075644  0.26185403  0.30551057  1  -1.175528  0  -0.312129  -0.543091  0  2.345957  0
O  O194  1  0.93318791  0.16740910  0.23024618  1  -1.150778  0  -0.312114  -0.542169  0  2.342852  0
O  O195  1  0.75263325  0.37316924  0.30409479  1  -1.166861  0  -0.311209  -0.544514  0  2.319136  0
O  O196  1  0.74528155  0.08976535  0.29293785  1  -1.172101  0  -0.319427  -0.546797  0  2.326523  0
O  O197  1  0.85001826  0.10063312  0.30618379  1  -1.174932  0  -0.315848  -0.539  0  2.3171  0
O  O198  1  0.25184988  0.74998727  0.75002338  1  -1.221975  0  -0.570449  -1.034789  0  2.523445  0
O  O199  1  0.37911756  0.72502455  0.67055941  1  -1.173863  0  -0.316964  -0.542948  0  2.31811  0
O  O200  1  0.37114660  0.75847260  0.80250803  1  -1.165712  0  -0.307431  -0.532253  0  2.32244  0
O  O201  1  0.18354763  0.93365327  0.72734283  1  -1.169793  0  -0.313941  -0.538768  0  2.33713  0
O  O202  1  0.43480427  0.65493734  0.72801604  1  -1.155893  0  -0.313851  -0.534383  0  2.32382  0
O  O203  1  0.22101178  0.87494763  0.66833512  1  -1.177655  0  -0.319506  -0.544305  0  2.3087  0
O  O204  1  0.25191662  0.85314041  0.81444850  1  -1.167956  0  -0.305347  -0.544785  0  2.373791  0
O  O205  1  0.09493758  0.86288760  0.80049695  1  -1.166203  0  -0.313836  -0.536528  0  2.323196  0
O  O206  1  0.16737477  0.66434390  0.71830980  1  -1.164999  0  -0.307643  -0.536306  0  2.345959  0
O  O207  1  0.09347944  0.74695966  0.79918801  1  -1.166326  0  -0.309415  -0.536062  0  2.343988  0
O  O208  1  0.22849892  0.71160581  0.66305795  1  -1.168097  0  -0.312358  -0.542658  0  2.323809  0
O  O209  1  0.35131005  0.60464938  0.81058333  1  -1.15602  0  -0.309369  -0.534309  0  2.339512  0
O  O210  1  0.24496136  0.59343768  0.80029565  1  -1.161464  0  -0.315874  -0.538812  0  2.327328  0
O  O211  1  0.49995076  0.00111241  0.00070741  1  -1.219462  0  -0.571071  -1.030863  0  2.532612  0
O  O212  1  0.50775736  0.15552951  0.94857821  1  -1.171265  0  -0.318831  -0.546263  0  2.33271  0
O  O213  1  0.38570828  0.99702648  0.94299049  1  -1.171914  0  -0.313386  -0.544298  0  2.335387  0
O  O214  1  0.64917560  0.89757411  0.94211348  1  -1.163377  0  -0.316647  -0.541998  0  2.330758  0
O  O215  1  0.39262347  0.15391882  0.94696345  1  -1.175291  0  -0.315066  -0.537209  0  2.317475  0
O  O216  1  0.65965889  0.00446581  0.95310044  1  -1.166429  0  -0.316647  -0.539306  0  2.310119  0
O  O217  1  0.49353208  0.88557516  0.94466533  1  -1.165894  0  -0.309869  -0.540748  0  2.34115  0
O  O218  1  0.58451239  0.81815099  0.02281370  1  -1.177897  0  -0.319791  -0.549458  0  2.342968  0
O  O219  1  0.53775404  0.02373945  0.08648570  1  -1.167604  0  -0.310912  -0.541486  0  2.340388  0
O  O220  1  0.51723401  0.87312822  0.08134582  1  -1.170906  0  -0.317865  -0.539846  0  2.305324  0
O  O221  1  0.57891791  0.09252709  0.03267447  1  -1.161379  0  -0.312922  -0.541772  0  2.330668  0
O  O222  1  0.31551518  0.08083581  0.02389659  1  -1.14545  0  -0.315313  -0.537861  0  2.313227  0
O  O223  1  0.37509875  0.03484441  0.08226329  1  -1.174678  0  -0.317918  -0.54509  0  2.335652  0
O  O224  1  0.75005779  0.58158306  0.40401349  1  -1.126549  0  -0.336802  -0.476917  0  2.237837  0
O  O225  1  0.73310292  0.48864321  0.44872535  1  -1.112158  0  -0.289211  -0.453415  0  2.018808  0
O  O226  1  0.18132288  0.68597346  0.51629383  1  -1.088464  0  -0.324362  -0.453772  0  2.197299  0
O  O227  1  0.22447917  0.55838189  0.52274274  1  -1.119286  0  -0.268168  -0.451102  0  2.101552  0
O  O228  1  0.72877597  0.23490508  0.06662854  1  -1.090361  0  -0.332054  -0.461629  0  2.189589  0
O  O229  1  0.63428565  0.31397505  0.10813043  1  -1.11277  0  -0.279531  -0.441663  0  2.049593  0
O  O230  1  0.17061738  0.99837230  0.86237120  1  -1.097863  0  -0.340139  -0.473845  0  2.188613  0
O  O231  1  0.24292400  0.01317372  0.80345239  1  -1.102528  0  -0.273335  -0.430169  0  2.03665  0
O  O232  1  0.25263252  0.58843603  0.43505040  1  -1.139026  0  -0.332678  -0.469349  0  2.289245  0
O  O233  1  0.29966041  0.58137436  0.36884296  1  -1.109081  0  -0.293255  -0.46448  0  2.032039  0
O  O234  1  0.80083226  0.51632144  0.68251998  1  -1.107544  0  -0.32599  -0.45916  0  2.179317  0
O  O235  1  0.82297310  0.42451557  0.64373651  1  -1.112787  0  -0.268036  -0.43951  0  2.052802  0
O  O236  1  0.98747507  0.33768297  0.66726377  1  -1.112394  0  -0.328971  -0.465903  0  2.256314  0
O  O237  1  0.10527281  0.27056101  0.68432909  1  -1.088276  0  -0.28194  -0.445803  0  2.014928  0
O  O238  1  0.73176959  0.77861029  0.40697603  1  -1.08549  0  -0.324279  -0.459003  0  2.183518  0
O  O239  1  0.81609939  0.70264544  0.36078876  1  -1.10259  0  -0.271309  -0.443867  0  2.038265  0
O  O240  1  0.76688710  0.39813002  0.08756153  1  -1.15026  0  -0.341032  -0.468134  0  2.262325  0
O  O241  1  0.73622757  0.50722747  0.04507641  1  -1.107221  0  -0.290723  -0.463201  0  2.074091  0
O  O242  1  0.08951392  0.04872171  0.24640706  1  -1.109146  0  -0.333228  -0.467424  0  2.195337  0
O  O243  1  0.12172510  0.14704555  0.24025492  1  -1.096515  0  -0.273178  -0.432703  0  2.009751  0
O  O244  1  0.48293570  0.50234248  0.87427367  1  -1.099757  0  -0.334292  -0.471523  0  2.179966  0
O  O245  1  0.51509290  0.46373661  0.81106465  1  -1.09746  0  -0.266506  -0.422223  0  2.023985  0
O  O246  1  0.99159564  0.66433898  0.85214752  1  -1.104204  0  -0.331712  -0.467303  0  2.185899  0
O  O247  1  0.93736395  0.72699173  0.79482341  1  -1.086998  0  -0.271762  -0.42956  0  2.013365  0
