# generated using pymatgen
data_Zn2H8C5O7
_symmetry_space_group_name_H-M   'P 1'
_cell_length_a   9.62164578
_cell_length_b   9.80656298
_cell_length_c   10.65576399
_cell_angle_alpha   102.10480177
_cell_angle_beta   97.76299653
_cell_angle_gamma   110.27850987
_symmetry_Int_Tables_number   1
_chemical_formula_structural   Zn2H8C5O7
_chemical_formula_sum   'Zn8 H32 C20 O28'
_cell_volume   898.17134254
_cell_formula_units_Z   4
loop_
 _symmetry_equiv_pos_site_id
 _symmetry_equiv_pos_as_xyz
  1  'x, y, z'
loop_
 _atom_site_type_symbol
 _atom_site_label
 _atom_site_symmetry_multiplicity
 _atom_site_fract_x
 _atom_site_fract_y
 _atom_site_fract_z
 _atom_site_occupancy
 _atom_site_hle17_bader_spin_density
 _atom_site_hle17_ddec_charge
 _atom_site_hle17_ddec_spin_density
 _atom_site_hle17_ddec_sum_bond_order
 _atom_site_hle17_magmom
 _atom_site_hse06_10hf_bader_spin_density
 _atom_site_hse06_10hf_ddec_charge
 _atom_site_hse06_10hf_ddec_spin_density
 _atom_site_hse06_10hf_ddec_sum_bond_order
 _atom_site_hse06_10hf_magmom
 _atom_site_hse06_bader_spin_density
 _atom_site_hse06_ddec_charge
 _atom_site_hse06_ddec_spin_density
 _atom_site_hse06_ddec_sum_bond_order
 _atom_site_hse06_magmom
 _atom_site_pbe_bader_spin_density
 _atom_site_pbe_cm5_charge
 _atom_site_pbe_ddec_charge
 _atom_site_pbe_ddec_spin_density
 _atom_site_pbe_ddec_sum_bond_order
 _atom_site_pbe_magmom
Zn  Zn0  1  0.38737444  0.88945203  0.18784979  1  0  1.13547  0  1.809766  0  0  0.968373  0  2.284833  0  0  1.017257  0  2.220036  0  0  0.644814  0.933394  0  2.330365  0
Zn  Zn1  1  0.61262824  0.11054831  0.81215124  1  0  1.135488  0  1.80962  0  0  0.968403  0  2.28468  0  0  1.017282  0  2.21989  0  0  0.644814  0.933425  0  2.330211  0
Zn  Zn2  1  0.12893260  0.87211033  0.33854532  1  0  1.227273  0  1.738864  0  0  1.073655  0  2.19766  0  0  1.119383  0  2.133797  0  0  0.639807  1.040525  0  2.242568  0
Zn  Zn3  1  0.87106963  0.12788889  0.66145545  1  0  1.227292  0  1.738799  0  0  1.07365  0  2.19763  0  0  1.119403  0  2.133717  0  0  0.639826  1.040526  0  2.242541  0
Zn  Zn4  1  0.49287522  0.19900568  0.43014903  1  0  1.213134  0  1.728117  0  0  1.046243  0  2.190054  0  0  1.094119  0  2.127217  0  0  0.670909  1.011083  0  2.234647  0
Zn  Zn5  1  0.50712279  0.80099357  0.56984845  1  0  1.213133  0  1.728027  0  0  1.046249  0  2.189922  0  0  1.094125  0  2.127085  0  0  0.670892  1.011084  0  2.234519  0
Zn  Zn6  1  0.22162321  0.19437805  0.56126558  1  0  1.17926  0  1.770357  0  0  1.00857  0  2.241816  0  0  1.056277  0  2.178701  0  0  0.662778  0.97451  0  2.286039  0
Zn  Zn7  1  0.77837225  0.80562009  0.43873046  1  0  1.179258  0  1.770454  0  0  1.008537  0  2.241985  0  0  1.056238  0  2.178877  0  0  0.662728  0.974474  0  2.286202  0
H  H8  1  0.89347917  0.92250271  0.28196378  1  0  0.424052  0  0.876911  0  0  0.394222  0  0.940131  0  0  0.404635  0  0.924984  0  0  0.281063  0.386385  0  0.951586  0
H  H9  1  0.10652605  0.07749874  0.71803775  1  0  0.424056  0  0.876904  0  0  0.394231  0  0.940115  0  0  0.404641  0  0.924972  0  0  0.281093  0.386394  0  0.951568  0
H  H10  1  0.08246511  0.06969346  0.95128712  1  0  0.099875  0  0.96668  0  0  0.108227  0  1.033498  0  0  0.110659  0  1.033053  0  0  0.11066  0.106159  0  1.034225  0
H  H11  1  0.91753603  0.93030574  0.04871070  1  0  0.099821  0  0.966767  0  0  0.108206  0  1.033553  0  0  0.110638  0  1.033107  0  0  0.110651  0.106136  0  1.034282  0
H  H12  1  0.99791202  0.17504304  0.14880619  1  0  0.094509  0  0.936797  0  0  0.106742  0  1.003699  0  0  0.109221  0  1.002056  0  0  0.096308  0.104831  0  1.005121  0
H  H13  1  0.00208611  0.82495392  0.85118993  1  0  0.094455  0  0.936853  0  0  0.106694  0  1.003756  0  0  0.10918  0  1.002105  0  0  0.09631  0.104783  0  1.005178  0
H  H14  1  0.04255667  0.29595367  0.04484765  1  0  0.091026  0  0.906402  0  0  0.111695  0  0.959545  0  0  0.113151  0  0.959233  0  0  0.100379  0.110837  0  0.959559  0
H  H15  1  0.95744029  0.70404559  0.95514877  1  0  0.090996  0  0.906476  0  0  0.111677  0  0.959617  0  0  0.113132  0  0.95931  0  0  0.100346  0.110817  0  0.959632  0
H  H16  1  0.14539839  0.45008316  0.26678968  1  0  0.094223  0  0.912781  0  0  0.107472  0  0.96497  0  0  0.11004  0  0.963845  0  0  0.109112  0.105354  0  0.966362  0
H  H17  1  0.85459560  0.54991388  0.73320786  1  0  0.094177  0  0.912827  0  0  0.107448  0  0.964978  0  0  0.110015  0  0.963849  0  0  0.109117  0.105334  0  0.966369  0
H  H18  1  0.30938865  0.53455029  0.12734604  1  0  0.103688  0  0.903802  0  0  0.117213  0  0.959178  0  0  0.119187  0  0.958845  0  0  0.114079  0.115965  0  0.959328  0
H  H19  1  0.69060125  0.46544450  0.87264686  1  0  0.103674  0  0.90376  0  0  0.117214  0  0.959174  0  0  0.119187  0  0.958833  0  0  0.114117  0.115968  0  0.959316  0
H  H20  1  0.50833703  0.44988311  0.07044475  1  0  0.084536  0  0.950454  0  0  0.09952  0  1.015424  0  0  0.100788  0  1.015052  0  0  0.093065  0.098544  0  1.015807  0
H  H21  1  0.49166394  0.55012070  0.92956050  1  0  0.084486  0  0.95053  0  0  0.09949  0  1.015474  0  0  0.100754  0  1.015107  0  0  0.093049  0.098515  0  1.015854  0
H  H22  1  0.46984374  0.32122987  0.16589688  1  0  0.068571  0  0.979396  0  0  0.080326  0  1.053974  0  0  0.082086  0  1.052469  0  0  0.087916  0.07893  0  1.055235  0
H  H23  1  0.53015513  0.67877397  0.83410720  1  0  0.068622  0  0.979253  0  0  0.080391  0  1.053849  0  0  0.082159  0  1.052331  0  0  0.08792  0.078993  0  1.05511  0
H  H24  1  0.24576560  0.30532891  0.92577094  1  0  0.083374  0  0.898519  0  0  0.099962  0  0.950757  0  0  0.101755  0  0.950262  0  0  0.107053  0.098682  0  0.951291  0
H  H25  1  0.75423706  0.69467142  0.07422821  1  0  0.083379  0  0.898526  0  0  0.099956  0  0.950756  0  0  0.101748  0  0.950263  0  0  0.107048  0.09869  0  0.951268  0
H  H26  1  0.66943491  0.45764271  0.35687922  1  0  0.443103  0  0.834144  0  0  0.411805  0  0.903508  0  0  0.42137  0  0.88954  0  0  0.307412  0.405076  0  0.913346  0
H  H27  1  0.33056279  0.54235314  0.64311852  1  0  0.443252  0  0.833909  0  0  0.411893  0  0.903424  0  0  0.421458  0  0.889455  0  0  0.307461  0.405157  0  0.913268  0
H  H28  1  0.69370566  0.32150669  0.27325361  1  0  0.433851  0  0.799515  0  0  0.421795  0  0.842546  0  0  0.428947  0  0.835149  0  0  0.336153  0.416367  0  0.848562  0
H  H29  1  0.30629311  0.67848916  0.72674613  1  0  0.433826  0  0.799547  0  0  0.421788  0  0.842547  0  0  0.428932  0  0.83516  0  0  0.336169  0.416362  0  0.848565  0
H  H30  1  0.15933017  0.67522874  0.51936930  1  0  0.427587  0  0.860703  0  0  0.401414  0  0.915896  0  0  0.4107  0  0.902052  0  0  0.294543  0.394556  0  0.926183  0
H  H31  1  0.84067163  0.32476936  0.48063308  1  0  0.427615  0  0.860679  0  0  0.401435  0  0.915879  0  0  0.410723  0  0.902033  0  0  0.294555  0.394576  0  0.926166  0
H  H32  1  0.01571725  0.71482394  0.53205350  1  0  0.430906  0  0.862593  0  0  0.4005  0  0.924329  0  0  0.411217  0  0.908456  0  0  0.293564  0.392583  0  0.936145  0
H  H33  1  0.98428545  0.28517643  0.46794941  1  0  0.43082  0  0.8627  0  0  0.400391  0  0.924477  0  0  0.411111  0  0.908599  0  0  0.293514  0.392474  0  0.936294  0
H  H34  1  0.25884867  0.70027236  0.29007289  1  0  0.393305  0  0.928533  0  0  0.366599  0  0.988003  0  0  0.376025  0  0.974597  0  0  0.270712  0.359977  0  0.997403  0
H  H35  1  0.74115343  0.29972914  0.70992923  1  0  0.393345  0  0.928489  0  0  0.366644  0  0.987945  0  0  0.376067  0  0.974544  0  0  0.27074  0.360022  0  0.997345  0
H  H36  1  0.63830736  0.05208259  0.29877602  1  0  0.409095  0  0.900396  0  0  0.378356  0  0.964474  0  0  0.390036  0  0.947464  0  0  0.279701  0.369649  0  0.977085  0
H  H37  1  0.36169574  0.94791887  0.70122339  1  0  0.409104  0  0.900377  0  0  0.378365  0  0.964458  0  0  0.390044  0  0.947449  0  0  0.279698  0.369656  0  0.97707  0
H  H38  1  0.35444085  0.01190840  0.54302359  1  0  0.420711  0  0.896255  0  0  0.388021  0  0.963831  0  0  0.399728  0  0.947149  0  0  0.270228  0.379573  0  0.975942  0
H  H39  1  0.64556376  0.98809418  0.45697620  1  0  0.420739  0  0.896222  0  0  0.38804  0  0.963811  0  0  0.399747  0  0.94713  0  0  0.270243  0.379591  0  0.975923  0
C  C40  1  0.21428184  0.05465540  0.11799357  1  0  0.682857  0  3.808849  0  0  0.63146  0  4.105244  0  0  0.664731  0  4.100674  0  0  0.216921  0.608743  0  4.107489  0
C  C41  1  0.78571805  0.94534841  0.88200874  1  0  0.682762  0  3.809182  0  0  0.631379  0  4.105546  0  0  0.664649  0  4.10098  0  0  0.216875  0.608662  0  4.107792  0
C  C42  1  0.16746640  0.15141822  0.03909407  1  0  -0.146539  0  3.628863  0  0  -0.152768  0  3.865399  0  0  -0.159567  0  3.881274  0  0  -0.093021  -0.148041  0  3.854507  0
C  C43  1  0.83253475  0.84858099  0.96090470  1  0  -0.146476  0  3.628931  0  0  -0.152751  0  3.865462  0  0  -0.159545  0  3.881343  0  0  -0.093011  -0.14802  0  3.854573  0
C  C44  1  0.09152031  0.24632949  0.11366267  1  0  -0.117945  0  3.616203  0  0  -0.170745  0  3.877906  0  0  -0.170419  0  3.889696  0  0  -0.155953  -0.170796  0  3.869432  0
C  C45  1  0.90847977  0.75366972  0.88633410  1  0  -0.117791  0  3.616182  0  0  -0.170621  0  3.877891  0  0  -0.170307  0  3.889685  0  0  -0.155919  -0.170678  0  3.869424  0
C  C46  1  0.20434471  0.37692027  0.23108949  1  0  -0.131058  0  3.601559  0  0  -0.138442  0  3.843651  0  0  -0.144427  0  3.857058  0  0  -0.085713  -0.134095  0  3.834312  0
C  C47  1  0.79565123  0.62307902  0.76890870  1  0  -0.131134  0  3.601644  0  0  -0.138417  0  3.843707  0  0  -0.144395  0  3.857118  0  0  -0.085714  -0.13408  0  3.834379  0
C  C48  1  0.34716939  0.46983437  0.18808407  1  0  -0.133606  0  3.608536  0  0  -0.140051  0  3.847674  0  0  -0.146475  0  3.862763  0  0  -0.08552  -0.135737  0  3.837292  0
C  C49  1  0.65282488  0.53016606  0.81191134  1  0  -0.133534  0  3.608363  0  0  -0.140103  0  3.847743  0  0  -0.146526  0  3.862827  0  0  -0.085581  -0.13579  0  3.837353  0
C  C50  1  0.41723725  0.37533862  0.10525500  1  0  -0.134258  0  3.68219  0  0  -0.18851  0  3.939916  0  0  -0.188348  0  3.953022  0  0  -0.177683  -0.188309  0  3.930782  0
C  C51  1  0.58276117  0.62466409  0.89474882  1  0  -0.134273  0  3.682164  0  0  -0.188521  0  3.939837  0  0  -0.188366  0  3.952966  0  0  -0.177648  -0.188332  0  3.930742  0
C  C52  1  0.29760159  0.25216458  0.98993724  1  0  -0.115713  0  3.627742  0  0  -0.122781  0  3.870047  0  0  -0.128073  0  3.884116  0  0  -0.087749  -0.119109  0  3.860366  0
C  C53  1  0.70240303  0.74783800  0.01006349  1  0  -0.115763  0  3.627895  0  0  -0.122761  0  3.870147  0  0  -0.128059  0  3.884228  0  0  -0.08775  -0.1191  0  3.860467  0
C  C54  1  0.24861588  0.31827978  0.34502998  1  0  0.721618  0  3.763951  0  0  0.663013  0  4.06319  0  0  0.698157  0  4.055884  0  0  0.230142  0.63885  0  4.067465  0
C  C55  1  0.75138289  0.68171606  0.65496881  1  0  0.721772  0  3.763765  0  0  0.663038  0  4.063176  0  0  0.698178  0  4.055875  0  0  0.23019  0.638876  0  4.067454  0
C  C56  1  0.46208312  0.59012077  0.30712199  1  0  0.718402  0  3.75522  0  0  0.657097  0  4.061137  0  0  0.69261  0  4.052859  0  0  0.232798  0.632606  0  4.066453  0
C  C57  1  0.53790508  0.40987751  0.69287607  1  0  0.71809  0  3.755611  0  0  0.656734  0  4.061674  0  0  0.692239  0  4.053423  0  0  0.232667  0.632249  0  4.066974  0
C  C58  1  0.36225758  0.15986100  0.89886060  1  0  0.696549  0  3.811297  0  0  0.639219  0  4.12134  0  0  0.673655  0  4.114354  0  0  0.214979  0.615522  0  4.125143  0
C  C59  1  0.63774704  0.84014158  0.10114013  1  0  0.696673  0  3.811037  0  0  0.639277  0  4.121153  0  0  0.673712  0  4.114163  0  0  0.215025  0.61558  0  4.124956  0
O  O60  1  0.13376594  0.00661430  0.19610877  1  0  -0.652802  0  2.057007  0  0  -0.582461  0  2.310154  0  0  -0.610267  0  2.299256  0  0  -0.310857  -0.562719  0  2.317177  0
O  O61  1  0.86623003  0.99338500  0.80389130  1  0  -0.652798  0  2.05709  0  0  -0.582462  0  2.310219  0  0  -0.61027  0  2.299322  0  0  -0.310848  -0.56272  0  2.317244  0
O  O62  1  0.33047537  0.02521325  0.09722347  1  0  -0.63908  0  2.057468  0  0  -0.563897  0  2.325037  0  0  -0.592591  0  2.309446  0  0  -0.316287  -0.544054  0  2.335436  0
O  O63  1  0.66952929  0.97478936  0.90278009  1  0  -0.639062  0  2.057676  0  0  -0.56386  0  2.325209  0  0  -0.592554  0  2.30962  0  0  -0.316273  -0.544018  0  2.33561  0
O  O64  1  0.38033883  0.31479351  0.36296069  1  0  -0.669434  0  2.156254  0  0  -0.590363  0  2.432343  0  0  -0.619938  0  2.4184  0  0  -0.312114  -0.569216  0  2.441366  0
O  O65  1  0.61966530  0.68520792  0.63703790  1  0  -0.66948  0  2.156065  0  0  -0.590373  0  2.43223  0  0  -0.619945  0  2.418294  0  0  -0.312178  -0.569224  0  2.441254  0
O  O66  1  0.15469882  0.27856483  0.41787303  1  0  -0.656614  0  2.069598  0  0  -0.571902  0  2.326671  0  0  -0.601786  0  2.310944  0  0  -0.30575  -0.551018  0  2.337308  0
O  O67  1  0.84529826  0.72143214  0.58212204  1  0  -0.656629  0  2.069537  0  0  -0.571923  0  2.326727  0  0  -0.601793  0  2.310995  0  0  -0.305731  -0.551032  0  2.337352  0
O  O68  1  0.40713289  0.66467231  0.38575794  1  0  -0.671595  0  2.110761  0  0  -0.589439  0  2.3787  0  0  -0.619183  0  2.362956  0  0  -0.310121  -0.568487  0  2.389524  0
O  O69  1  0.59286003  0.33532473  0.61423761  1  0  -0.671476  0  2.110642  0  0  -0.589313  0  2.378631  0  0  -0.61905  0  2.362892  0  0  -0.310112  -0.56836  0  2.389448  0
O  O70  1  0.60309744  0.61382846  0.32198370  1  0  -0.656342  0  2.073663  0  0  -0.579272  0  2.341865  0  0  -0.606947  0  2.324728  0  0  -0.305281  -0.559937  0  2.353343  0
O  O71  1  0.39689662  0.38617656  0.67801630  1  0  -0.656174  0  2.074009  0  0  -0.579029  0  2.342185  0  0  -0.606702  0  2.325061  0  0  -0.305185  -0.559691  0  2.353656  0
O  O72  1  0.50819294  0.21342936  0.91693855  1  0  -0.654573  0  2.047812  0  0  -0.576866  0  2.322559  0  0  -0.606253  0  2.305518  0  0  -0.331125  -0.556161  0  2.333977  0
O  O73  1  0.49181524  0.78656873  0.08307300  1  0  -0.654609  0  2.047769  0  0  -0.576843  0  2.3225  0  0  -0.606228  0  2.305452  0  0  -0.331111  -0.556135  0  2.333916  0
O  O74  1  0.27154329  0.04375804  0.80890738  1  0  -0.647993  0  1.943153  0  0  -0.587949  0  2.165934  0  0  -0.61279  0  2.153888  0  0  -0.320802  -0.569206  0  2.173801  0
O  O75  1  0.72846011  0.95624680  0.19109083  1  0  -0.648041  0  1.943048  0  0  -0.587996  0  2.165888  0  0  -0.612837  0  2.153839  0  0  -0.320832  -0.569253  0  2.173756  0
O  O76  1  0.30460517  0.05003151  0.47614899  1  0  -1.026537  0  1.967128  0  0  -0.915935  0  2.287788  0  0  -0.950968  0  2.242647  0  0  -0.566981  -0.890642  0  2.31911  0
O  O77  1  0.69539852  0.94996880  0.52385027  1  0  -1.026564  0  1.967118  0  0  -0.915905  0  2.287721  0  0  -0.950943  0  2.242585  0  0  -0.566977  -0.890611  0  2.319041  0
O  O78  1  0.21510192  0.74929770  0.23332333  1  0  -0.97537  0  1.836895  0  0  -0.883018  0  2.116892  0  0  -0.9158  0  2.078145  0  0  -0.59583  -0.859091  0  2.143197  0
O  O79  1  0.78490014  0.25070377  0.76667597  1  0  -0.975453  0  1.836842  0  0  -0.883108  0  2.116844  0  0  -0.915891  0  2.078094  0  0  -0.595875  -0.859183  0  2.143151  0
O  O80  1  0.55400676  0.03987888  0.34582478  1  0  -0.992382  0  1.917927  0  0  -0.885263  0  2.199811  0  0  -0.919859  0  2.159907  0  0  -0.573529  -0.860312  0  2.2282  0
O  O81  1  0.44599876  0.96012596  0.65417649  1  0  -0.992333  0  1.917851  0  0  -0.885237  0  2.199757  0  0  -0.919831  0  2.159851  0  0  -0.57349  -0.860281  0  2.228142  0
O  O82  1  0.09255355  0.71794176  0.47892269  1  0  -0.844388  0  1.814533  0  0  -0.787357  0  1.988625  0  0  -0.805834  0  1.953539  0  0  -0.587383  -0.774413  0  2.014299  0
O  O83  1  0.90744904  0.28206089  0.52108158  1  0  -0.844322  0  1.81459  0  0  -0.787267  0  1.988706  0  0  -0.805752  0  1.953611  0  0  -0.587339  -0.774322  0  2.014385  0
O  O84  1  0.92944161  0.87271045  0.34305922  1  0  -0.999137  0  1.873427  0  0  -0.897274  0  2.181188  0  0  -0.930316  0  2.138275  0  0  -0.592842  -0.873566  0  2.211428  0
O  O85  1  0.07055924  0.12728537  0.65693980  1  0  -0.999104  0  1.873363  0  0  -0.897249  0  2.181138  0  0  -0.930293  0  2.138221  0  0  -0.592879  -0.873542  0  2.211381  0
O  O86  1  0.69474968  0.36947845  0.36349979  1  0  -0.811651  0  1.840229  0  0  -0.757239  0  2.02216  0  0  -0.775926  0  1.993704  0  0  -0.550544  -0.743827  0  2.042667  0
O  O87  1  0.30524850  0.63051854  0.63649915  1  0  -0.811775  0  1.839994  0  0  -0.757362  0  2.021952  0  0  -0.776042  0  1.993497  0  0  -0.550608  -0.743943  0  2.042471  0
