# generated using pymatgen
data_CdH8C4(N4Cl)2
_symmetry_space_group_name_H-M   'P 1'
_cell_length_a   3.78588566
_cell_length_b   8.34456183
_cell_length_c   16.91003929
_cell_angle_alpha   89.99938100
_cell_angle_beta   93.26362103
_cell_angle_gamma   90.00384039
_symmetry_Int_Tables_number   1
_chemical_formula_structural   CdH8C4(N4Cl)2
_chemical_formula_sum   'Cd2 H16 C8 N16 Cl4'
_cell_volume   533.34806077
_cell_formula_units_Z   2
loop_
 _symmetry_equiv_pos_site_id
 _symmetry_equiv_pos_as_xyz
  1  'x, y, z'
loop_
 _atom_site_type_symbol
 _atom_site_label
 _atom_site_symmetry_multiplicity
 _atom_site_fract_x
 _atom_site_fract_y
 _atom_site_fract_z
 _atom_site_occupancy
 _atom_site_hle17_bader_spin_density
 _atom_site_hle17_ddec_charge
 _atom_site_hle17_ddec_spin_density
 _atom_site_hle17_ddec_sum_bond_order
 _atom_site_hle17_magmom
 _atom_site_hse06_10hf_bader_spin_density
 _atom_site_hse06_10hf_ddec_charge
 _atom_site_hse06_10hf_ddec_spin_density
 _atom_site_hse06_10hf_ddec_sum_bond_order
 _atom_site_hse06_10hf_magmom
 _atom_site_hse06_bader_spin_density
 _atom_site_hse06_ddec_charge
 _atom_site_hse06_ddec_spin_density
 _atom_site_hse06_ddec_sum_bond_order
 _atom_site_hse06_magmom
 _atom_site_pbe_bader_spin_density
 _atom_site_pbe_cm5_charge
 _atom_site_pbe_ddec_charge
 _atom_site_pbe_ddec_spin_density
 _atom_site_pbe_ddec_sum_bond_order
 _atom_site_pbe_magmom
Cd  Cd0  1  0.49999278  0.49999837  0.50000258  1  0  1.061473  0  1.942236  0  0  0.91415  0  2.403538  0  0  0.957711  0  2.36219  0  0  0.633807  0.883153  0  2.432108  0
Cd  Cd1  1  0.00000082  0.00000200  0.99999669  1  0  1.061441  0  1.942439  0  0  0.914132  0  2.403779  0  0  0.957695  0  2.362424  0  0  0.633824  0.883139  0  2.432358  0
H  H2  1  0.26519490  0.46449271  0.91940683  1  0  0.344403  0  0.875723  0  0  0.325014  0  0.941116  0  0  0.332253  0  0.93503  0  0  0.304089  0.319892  0  0.945487  0
H  H3  1  0.23474278  0.96451509  0.58057824  1  0  0.344456  0  0.875273  0  0  0.325048  0  0.940772  0  0  0.332296  0  0.934673  0  0  0.303964  0.319923  0  0.945134  0
H  H4  1  0.73481472  0.53550762  0.08059518  1  0  0.344368  0  0.875788  0  0  0.325041  0  0.941108  0  0  0.33228  0  0.935022  0  0  0.304126  0.31992  0  0.945474  0
H  H5  1  0.76523554  0.03548284  0.41941676  1  0  0.344467  0  0.875336  0  0  0.325084  0  0.940804  0  0  0.332331  0  0.934703  0  0  0.304025  0.319957  0  0.945176  0
H  H6  1  0.04848098  0.30070058  0.87410622  1  0  0.351771  0  0.910957  0  0  0.328134  0  0.98301  0  0  0.335963  0  0.97648  0  0  0.298587  0.322642  0  0.987584  0
H  H7  1  0.45154800  0.80065670  0.62589901  1  0  0.351484  0  0.910868  0  0  0.327883  0  0.982911  0  0  0.335718  0  0.976385  0  0  0.29833  0.322384  0  0.987485  0
H  H8  1  0.95152082  0.69929855  0.12589389  1  0  0.351672  0  0.911057  0  0  0.328081  0  0.983054  0  0  0.33591  0  0.976525  0  0  0.298566  0.322592  0  0.98763  0
H  H9  1  0.54845901  0.19932805  0.37410237  1  0  0.351551  0  0.91085  0  0  0.327991  0  0.982825  0  0  0.335826  0  0.976296  0  0  0.298389  0.322493  0  0.987401  0
H  H10  1  0.24300106  0.71476384  0.85701934  1  0  0.333123  0  0.927269  0  0  0.314524  0  0.993204  0  0  0.322182  0  0.987314  0  0  0.278626  0.309088  0  0.997468  0
H  H11  1  0.25694268  0.21478214  0.64296548  1  0  0.333251  0  0.926917  0  0  0.31452  0  0.993037  0  0  0.322183  0  0.987156  0  0  0.278589  0.309079  0  0.997299  0
H  H12  1  0.75701112  0.28524248  0.14298389  1  0  0.333114  0  0.9272  0  0  0.31454  0  0.993109  0  0  0.322199  0  0.987208  0  0  0.278665  0.309103  0  0.997377  0
H  H13  1  0.74302782  0.78522298  0.35702762  1  0  0.333254  0  0.927056  0  0  0.31454  0  0.99312  0  0  0.322197  0  0.987245  0  0  0.278635  0.3091  0  0.997382  0
H  H14  1  0.97802830  0.74103870  0.76962169  1  0  0.333989  0  0.922216  0  0  0.310155  0  0.995056  0  0  0.317899  0  0.988919  0  0  0.3013  0.304736  0  0.999306  0
H  H15  1  0.52200226  0.24103825  0.73038839  1  0  0.333812  0  0.922283  0  0  0.309979  0  0.99515  0  0  0.31772  0  0.989008  0  0  0.301267  0.304565  0  0.999409  0
H  H16  1  0.02196040  0.25896283  0.23037644  1  0  0.334021  0  0.922179  0  0  0.31018  0  0.995018  0  0  0.317924  0  0.988882  0  0  0.301348  0.304762  0  0.99927  0
H  H17  1  0.47800980  0.75896328  0.26961661  1  0  0.333863  0  0.922276  0  0  0.310021  0  0.995149  0  0  0.317763  0  0.989006  0  0  0.301265  0.304607  0  0.999408  0
C  C18  1  0.67683053  0.51779615  0.69221200  1  0  0.539051  0  3.974381  0  0  0.494606  0  4.26027  0  0  0.523136  0  4.270208  0  0  0.302147  0.475158  0  4.253298  0
C  C19  1  0.82314431  0.01782357  0.80778958  1  0  0.538412  0  3.973742  0  0  0.493991  0  4.25968  0  0  0.522508  0  4.269633  0  0  0.301876  0.474551  0  4.252698  0
C  C20  1  0.32317115  0.48221017  0.30778988  1  0  0.539124  0  3.974488  0  0  0.494664  0  4.260346  0  0  0.523193  0  4.27028  0  0  0.302158  0.475217  0  4.253375  0
C  C21  1  0.17685497  0.98218515  0.19220871  1  0  0.538538  0  3.973948  0  0  0.494091  0  4.259897  0  0  0.522611  0  4.269843  0  0  0.301954  0.474652  0  4.252921  0
C  C22  1  0.99880122  0.51251006  0.81311932  1  0  0.7646  0  3.851993  0  0  0.701245  0  4.142484  0  0  0.733138  0  4.143045  0  0  0.366595  0.679704  0  4.141422  0
C  C23  1  0.50122994  0.01252313  0.68689917  1  0  0.764366  0  3.850508  0  0  0.701126  0  4.140942  0  0  0.733027  0  4.141515  0  0  0.366466  0.679565  0  4.139893  0
C  C24  1  0.00120050  0.48749387  0.18688197  1  0  0.76493  0  3.851756  0  0  0.70129  0  4.142629  0  0  0.733183  0  4.143186  0  0  0.366622  0.679749  0  4.141569  0
C  C25  1  0.49877963  0.98747601  0.31310343  1  0  0.764233  0  3.850922  0  0  0.701068  0  4.141228  0  0  0.732977  0  4.14178  0  0  0.366491  0.679509  0  4.140179  0
N  N26  1  0.54637896  0.57085213  0.63236861  1  0  -0.644606  0  2.850915  0  0  -0.589531  0  3.128778  0  0  -0.613743  0  3.133112  0  0  -0.40607  -0.57299  0  3.125752  0
N  N27  1  0.95364826  0.07085105  0.86763824  1  0  -0.644182  0  2.850711  0  0  -0.589094  0  3.128566  0  0  -0.613297  0  3.132912  0  0  -0.405852  -0.572554  0  3.125529  0
N  N28  1  0.45360185  0.42914700  0.36762879  1  0  -0.644613  0  2.850827  0  0  -0.589558  0  3.128691  0  0  -0.613767  0  3.133024  0  0  -0.406084  -0.573012  0  3.12566  0
N  N29  1  0.04636417  0.92915167  0.13236145  1  0  -0.644236  0  2.850694  0  0  -0.589158  0  3.128561  0  0  -0.613361  0  3.132902  0  0  -0.405891  -0.572621  0  3.125537  0
N  N30  1  0.78806097  0.44353321  0.75536138  1  0  -0.575843  0  3.144056  0  0  -0.511472  0  3.403459  0  0  -0.538577  0  3.408392  0  0  -0.33692  -0.492805  0  3.39956  0
N  N31  1  0.71201247  0.94345895  0.74464587  1  0  -0.575532  0  3.142681  0  0  -0.511247  0  3.402082  0  0  -0.538337  0  3.407014  0  0  -0.33688  -0.492583  0  3.398188  0
N  N32  1  0.21192223  0.55645394  0.24463961  1  0  -0.576073  0  3.1443  0  0  -0.511543  0  3.403747  0  0  -0.538652  0  3.408676  0  0  -0.336938  -0.492881  0  3.399857  0
N  N33  1  0.28802103  0.05651621  0.25535535  1  0  -0.575512  0  3.14315  0  0  -0.511211  0  3.402514  0  0  -0.53831  0  3.407442  0  0  -0.336867  -0.492543  0  3.398618  0
N  N34  1  0.10026825  0.42127331  0.87508710  1  0  -0.692145  0  3.071505  0  0  -0.652014  0  3.310284  0  0  -0.672684  0  3.303971  0  0  -0.562865  -0.637923  0  3.314521  0
N  N35  1  0.39974159  0.92128298  0.62491239  1  0  -0.691989  0  3.070252  0  0  -0.651929  0  3.309051  0  0  -0.672621  0  3.302761  0  0  -0.5625  -0.637814  0  3.313278  0
N  N36  1  0.89974132  0.57872702  0.12491550  1  0  -0.692067  0  3.07156  0  0  -0.651972  0  3.310374  0  0  -0.67264  0  3.304062  0  0  -0.562832  -0.637875  0  3.31461  0
N  N37  1  0.60025769  0.07871495  0.37508590  1  0  -0.691992  0  3.070369  0  0  -0.652035  0  3.309054  0  0  -0.672727  0  3.302748  0  0  -0.562647  -0.637923  0  3.313282  0
N  N38  1  0.10510929  0.66476204  0.80919377  1  0  -0.707689  0  3.097831  0  0  -0.665197  0  3.332442  0  0  -0.687342  0  3.327749  0  0  -0.571267  -0.650081  0  3.335555  0
N  N39  1  0.39485509  0.16479308  0.69080882  1  0  -0.707573  0  3.096913  0  0  -0.664999  0  3.331647  0  0  -0.68714  0  3.326958  0  0  -0.571169  -0.649885  0  3.334762  0
N  N40  1  0.89490041  0.33524548  0.19080705  1  0  -0.707865  0  3.097714  0  0  -0.665303  0  3.332387  0  0  -0.687445  0  3.327687  0  0  -0.5714  -0.650183  0  3.335501  0
N  N41  1  0.60512812  0.83521324  0.30919217  1  0  -0.707575  0  3.097091  0  0  -0.665022  0  3.331767  0  0  -0.687164  0  3.327075  0  0  -0.571196  -0.649906  0  3.334879  0
Cl  Cl42  1  0.00663044  0.27957510  0.52637440  1  0  -0.577302  0  0.972399  0  0  -0.512388  0  1.240566  0  0  -0.530941  0  1.221255  0  0  -0.291045  -0.498852  0  1.254048  0
Cl  Cl43  1  0.49334016  0.77957865  0.97362645  1  0  -0.577305  0  0.97224  0  0  -0.512485  0  1.240439  0  0  -0.531035  0  1.221129  0  0  -0.291103  -0.498943  0  1.253912  0
Cl  Cl44  1  0.99335549  0.72042643  0.47362546  1  0  -0.577302  0  0.972308  0  0  -0.51243  0  1.240502  0  0  -0.530971  0  1.221173  0  0  -0.291061  -0.498891  0  1.253967  0
Cl  Cl45  1  0.50666177  0.22042528  0.02637188  1  0  -0.577365  0  0.972277  0  0  -0.512512  0  1.240435  0  0  -0.531066  0  1.22113  0  0  -0.291124  -0.498975  0  1.253915  0
