# generated using pymatgen
data_ZnH9C10N3O5
_symmetry_space_group_name_H-M   'P 1'
_cell_length_a   9.14656686
_cell_length_b   9.73075444
_cell_length_c   13.74205957
_cell_angle_alpha   88.32171480
_cell_angle_beta   72.26633042
_cell_angle_gamma   87.44473962
_symmetry_Int_Tables_number   1
_chemical_formula_structural   ZnH9C10N3O5
_chemical_formula_sum   'Zn4 H36 C40 N12 O20'
_cell_volume   1163.64982065
_cell_formula_units_Z   4
loop_
 _symmetry_equiv_pos_site_id
 _symmetry_equiv_pos_as_xyz
  1  'x, y, z'
loop_
 _atom_site_type_symbol
 _atom_site_label
 _atom_site_symmetry_multiplicity
 _atom_site_fract_x
 _atom_site_fract_y
 _atom_site_fract_z
 _atom_site_occupancy
 _atom_site_pbe_bader_spin_density
 _atom_site_pbe_cm5_charge
 _atom_site_pbe_ddec_charge
 _atom_site_pbe_ddec_spin_density
 _atom_site_pbe_ddec_sum_bond_order
 _atom_site_pbe_magmom
Zn  Zn0  1  0.55946844  0.62624824  0.31406884  1  0  0.679547  0.772405  0  2.3029  0
Zn  Zn1  1  0.44053024  0.37375417  0.68593376  1  0  0.679564  0.772434  0  2.302859  0
Zn  Zn2  1  0.88925020  0.09402546  0.19038891  1  0  0.677915  0.788997  0  2.302494  0
Zn  Zn3  1  0.11075092  0.90597489  0.80960963  1  0  0.677899  0.789027  0  2.302469  0
H  H4  1  0.57905162  0.37994289  0.40158216  1  0  0.303471  0.293501  0  0.992291  0
H  H5  1  0.42095065  0.62005642  0.59841835  1  0  0.303429  0.293396  0  0.992338  0
H  H6  1  0.67322349  0.38159762  0.27505488  1  0  0.310536  0.291954  0  0.944326  0
H  H7  1  0.32677411  0.61840378  0.72494651  1  0  0.31052  0.29194  0  0.944334  0
H  H8  1  0.83981359  0.35826007  0.38416929  1  0  0.311575  0.27271  0  1.029813  0
H  H9  1  0.16018873  0.64173925  0.61582903  1  0  0.311547  0.272685  0  1.029892  0
H  H10  1  0.48493319  0.91691436  0.59969564  1  0  0.106882  0.125955  0  1.011844  0
H  H11  1  0.51506213  0.08308293  0.40031355  1  0  0.106827  0.125785  0  1.011864  0
H  H12  1  0.56237674  0.64519198  0.97549377  1  0  0.102518  0.115858  0  1.019621  0
H  H13  1  0.43762189  0.35481249  0.02450735  1  0  0.102498  0.11585  0  1.019629  0
H  H14  1  0.05507690  0.36327973  0.39357719  1  0  0.112498  0.125652  0  1.061033  0
H  H15  1  0.94492302  0.63672269  0.60642081  1  0  0.112499  0.125668  0  1.061006  0
H  H16  1  0.31819140  0.40076953  0.40081611  1  0  0.119146  0.096101  0  1.010439  0
H  H17  1  0.68180964  0.59923288  0.59918313  1  0  0.119158  0.09611  0  1.010417  0
H  H18  1  0.29619343  0.81118341  0.31706589  1  0  0.115457  0.086907  0  1.017047  0
H  H19  1  0.70380418  0.18881901  0.68293329  1  0  0.115473  0.086942  0  1.017019  0
H  H20  1  0.03053042  0.79085858  0.30159102  1  0  0.110381  0.119315  0  1.031965  0
H  H21  1  0.96946955  0.20914280  0.69840626  1  0  0.11037  0.119364  0  1.031909  0
H  H22  1  0.63941560  0.81700361  0.12493529  1  0  0.31035  0.26663  0  1.018744  0
H  H23  1  0.36058433  0.18299674  0.87506566  1  0  0.310362  0.26665  0  1.018706  0
H  H24  1  0.90956739  0.85190911  0.08203006  1  0  0.300944  0.29027  0  1.005749  0
H  H25  1  0.09043263  0.14809022  0.91796872  1  0  0.300956  0.290305  0  1.005729  0
H  H26  1  0.82712906  0.83498907  0.20717254  1  0  0.310999  0.295038  0  0.955679  0
H  H27  1  0.17287324  0.16501025  0.79282652  1  0  0.310983  0.295012  0  0.955733  0
H  H28  1  0.90940380  0.87872143  0.48131532  1  0  0.107025  0.126517  0  0.998588  0
H  H29  1  0.09059734  0.12127893  0.51868248  1  0  0.107011  0.126495  0  0.998624  0
H  H30  1  0.43544806  0.83706176  0.08612681  1  0  0.112442  0.117375  0  1.027619  0
H  H31  1  0.56455416  0.16293962  0.91387222  1  0  0.112453  0.11739  0  1.027611  0
H  H32  1  0.16782349  0.87613517  0.08324111  1  0  0.120146  0.104917  0  1.015342  0
H  H33  1  0.83217765  0.12386415  0.91675889  1  0  0.120145  0.104916  0  1.015346  0
H  H34  1  0.40359883  0.23572717  0.22360813  1  0  0.117117  0.142088  0  1.030972  0
H  H35  1  0.59640003  0.76427114  0.77639307  1  0  0.11713  0.142113  0  1.030976  0
H  H36  1  0.93388920  0.55108383  0.11054299  1  0  0.10389  0.124665  0  1.023081  0
H  H37  1  0.06611560  0.44891342  0.88944907  1  0  0.103874  0.12459  0  1.023208  0
H  H38  1  0.13026533  0.25638531  0.21958957  1  0  0.117431  0.089018  0  1.025461  0
H  H39  1  0.86973468  0.74361402  0.78040993  1  0  0.11744  0.08901  0  1.025449  0
C  C40  1  0.86915563  0.56324985  0.32822538  1  0  0.247688  0.440453  0  4.113731  0
C  C41  1  0.13084322  0.43675051  0.67177287  1  0  0.247803  0.440597  0  4.113652  0
C  C42  1  0.02317983  0.57452658  0.34311837  1  0  0.011152  0.02994  0  3.951397  0
C  C43  1  0.97682129  0.42547480  0.65687869  1  0  0.011162  0.029905  0  3.951433  0
C  C44  1  0.52909896  0.81379119  0.45246108  1  0  0.200992  0.610042  0  4.185562  0
C  C45  1  0.47089865  0.18620609  0.54754766  1  0  0.200856  0.609755  0  4.185692  0
C  C46  1  0.50195427  0.93567340  0.51842518  1  0  -0.08072  -0.164363  0  3.883988  0
C  C47  1  0.49804326  0.06432594  0.48158354  1  0  -0.08053  -0.163823  0  3.883746  0
C  C48  1  0.54367709  0.53957544  0.12479630  1  0  0.19839  0.604237  0  4.208868  0
C  C49  1  0.45631930  0.46042801  0.87520455  1  0  0.198431  0.604288  0  4.208973  0
C  C50  1  0.52847733  0.55066830  0.01998464  1  0  -0.085407  -0.173881  0  3.901601  0
C  C51  1  0.47151904  0.44933516  0.98001694  1  0  -0.085361  -0.173789  0  3.901573  0
C  C52  1  0.10363073  0.46442829  0.37412845  1  0  -0.079507  -0.157031  0  3.922151  0
C  C53  1  0.89637035  0.53557412  0.62586859  1  0  -0.079516  -0.157108  0  3.922277  0
C  C54  1  0.25114639  0.48435366  0.37828561  1  0  0.05221  0.106711  0  3.922025  0
C  C55  1  0.74885351  0.51564876  0.62171312  1  0  0.052221  0.106783  0  3.922178  0
C  C56  1  0.23836025  0.71376539  0.33104002  1  0  0.050697  0.103381  0  3.928489  0
C  C57  1  0.76163967  0.28623702  0.66895798  1  0  0.05067  0.103314  0  3.928469  0
C  C58  1  0.09181641  0.70212849  0.32283394  1  0  -0.074033  -0.138436  0  3.923358  0
C  C59  1  0.90818471  0.29787289  0.67716312  1  0  -0.074034  -0.138471  0  3.923234  0
C  C60  1  0.60033232  0.02417754  0.16528018  1  0  0.251557  0.446317  0  4.101693  0
C  C61  1  0.39966876  0.97582281  0.83472054  1  0  0.251526  0.446309  0  4.10163  0
C  C62  1  0.44033740  0.03314342  0.15814167  1  0  0.012738  0.025561  0  3.954061  0
C  C63  1  0.55966378  0.96685488  0.84185836  1  0  0.012716  0.025596  0  3.95392  0
C  C64  1  0.90176792  0.08068041  0.40492001  1  0  0.205572  0.624001  0  4.220033  0
C  C65  1  0.09823210  0.91931892  0.59507876  1  0  0.205554  0.62402  0  4.220022  0
C  C66  1  0.93743415  0.33050995  0.07605426  1  0  0.20363  0.614814  0  4.189194  0
C  C67  1  0.06256836  0.66948628  0.92393972  1  0  0.203625  0.614966  0  4.189286  0
C  C68  1  0.95034383  0.98310196  0.47554893  1  0  -0.089315  -0.189302  0  3.919196  0
C  C69  1  0.04965618  0.01689839  0.52444836  1  0  -0.08933  -0.189322  0  3.919206  0
C  C70  1  0.37362471  0.93223276  0.11658352  1  0  -0.07655  -0.15221  0  3.945293  0
C  C71  1  0.62637637  0.06776759  0.88341721  1  0  -0.076524  -0.152196  0  3.945187  0
C  C72  1  0.22227650  0.95295429  0.11563192  1  0  0.047524  0.09027  0  3.922267  0
C  C73  1  0.77772349  0.04704504  0.88436831  1  0  0.04751  0.09025  0  3.922314  0
C  C74  1  0.35267232  0.15273387  0.19512285  1  0  -0.070983  -0.136016  0  3.897985  0
C  C75  1  0.64732880  0.84726545  0.80487789  1  0  -0.070979  -0.136076  0  3.898049  0
C  C76  1  0.96630709  0.47815147  0.04805148  1  0  -0.084903  -0.172214  0  3.882772  0
C  C77  1  0.03369890  0.52184475  0.95194037  1  0  -0.084817  -0.172058  0  3.882853  0
C  C78  1  0.20266559  0.16522603  0.19131559  1  0  0.048144  0.096968  0  3.919524  0
C  C79  1  0.79733325  0.83477330  0.80868487  1  0  0.04816  0.097035  0  3.919585  0
N  N80  1  0.65201139  0.43574293  0.34168554  1  0  -0.510155  -0.439168  0  3.390566  0
N  N81  1  0.34798742  0.56425640  0.65831638  1  0  -0.510088  -0.439015  0  3.390451  0
N  N82  1  0.79121207  0.44978692  0.36366626  1  0  -0.321163  -0.198116  0  3.572708  0
N  N83  1  0.20878684  0.55021139  0.63633275  1  0  -0.321181  -0.198193  0  3.572814  0
N  N84  1  0.31879136  0.60604862  0.35524357  1  0  -0.3214  -0.228036  0  3.534194  0
N  N85  1  0.68120854  0.39395379  0.64475516  1  0  -0.321426  -0.228078  0  3.534346  0
N  N86  1  0.68753100  0.91046062  0.13023962  1  0  -0.327911  -0.209124  0  3.541896  0
N  N87  1  0.31247010  0.08953870  0.86976185  1  0  -0.327881  -0.209145  0  3.541796  0
N  N88  1  0.83401808  0.90018746  0.14518154  1  0  -0.506455  -0.439778  0  3.319614  0
N  N89  1  0.16598194  0.09981187  0.85481724  1  0  -0.506453  -0.439804  0  3.319669  0
N  N90  1  0.13713430  0.06686838  0.15329986  1  0  -0.317661  -0.237353  0  3.517016  0
N  N91  1  0.86286688  0.93312992  0.84670016  1  0  -0.31769  -0.237406  0  3.517077  0
O  O92  1  0.53403612  0.82919621  0.35834971  1  0  -0.323437  -0.538895  0  2.253534  0
O  O93  1  0.46596374  0.17080311  0.64165710  1  0  -0.32337  -0.538752  0  2.253566  0
O  O94  1  0.81584438  0.65914856  0.28381847  1  0  -0.285059  -0.490038  0  2.293041  0
O  O95  1  0.18415329  0.34085180  0.71618146  1  0  -0.285129  -0.490089  0  2.292929  0
O  O96  1  0.57922928  0.65257912  0.16052293  1  0  -0.330789  -0.575772  0  2.318339  0
O  O97  1  0.42076939  0.34742433  0.83947820  1  0  -0.330761  -0.575764  0  2.318432  0
O  O98  1  0.54660338  0.69573014  0.49098417  1  0  -0.321595  -0.567769  0  2.177419  0
O  O99  1  0.45339423  0.30426714  0.50902457  1  0  -0.321594  -0.567762  0  2.177268  0
O  O100  1  0.52026071  0.42931202  0.17463435  1  0  -0.308927  -0.53868  0  2.169268  0
O  O101  1  0.47973350  0.57068835  0.82536699  1  0  -0.308988  -0.538747  0  2.169334  0
O  O102  1  0.90328877  0.30197630  0.17268084  1  0  -0.318586  -0.54488  0  2.305981  0
O  O103  1  0.09671463  0.69802508  0.82731650  1  0  -0.318524  -0.544893  0  2.306185  0
O  O104  1  0.65015111  0.12329523  0.20047017  1  0  -0.273183  -0.44888  0  2.291253  0
O  O105  1  0.34985003  0.87670409  0.79952984  1  0  -0.273174  -0.44889  0  2.291183  0
O  O106  1  0.86717306  0.02220549  0.33254750  1  0  -0.32923  -0.561915  0  2.339892  0
O  O107  1  0.13282569  0.97779693  0.66745146  1  0  -0.329189  -0.561924  0  2.339923  0
O  O108  1  0.94872364  0.23996771  0.00990203  1  0  -0.324758  -0.578098  0  2.193529  0
O  O109  1  0.05127771  0.76002750  0.99009511  1  0  -0.324816  -0.57824  0  2.193409  0
O  O110  1  0.90230130  0.20833165  0.41809204  1  0  -0.318921  -0.558783  0  2.224344  0
O  O111  1  0.09769871  0.79166871  0.58190526  1  0  -0.318936  -0.55879  0  2.224365  0
