# generated using pymatgen
data_Ag2H8C6SO4
_symmetry_space_group_name_H-M   'P 1'
_cell_length_a   5.14966202
_cell_length_b   8.02736524
_cell_length_c   10.90434094
_cell_angle_alpha   86.70545782
_cell_angle_beta   76.35655132
_cell_angle_gamma   71.31496123
_symmetry_Int_Tables_number   1
_chemical_formula_structural   Ag2H8C6SO4
_chemical_formula_sum   'Ag4 H16 C12 S2 O8'
_cell_volume   414.87859142
_cell_formula_units_Z   2
loop_
 _symmetry_equiv_pos_site_id
 _symmetry_equiv_pos_as_xyz
  1  'x, y, z'
loop_
 _atom_site_type_symbol
 _atom_site_label
 _atom_site_symmetry_multiplicity
 _atom_site_fract_x
 _atom_site_fract_y
 _atom_site_fract_z
 _atom_site_occupancy
 _atom_site_hle17_bader_spin_density
 _atom_site_hle17_ddec_charge
 _atom_site_hle17_ddec_spin_density
 _atom_site_hle17_ddec_sum_bond_order
 _atom_site_hle17_magmom
 _atom_site_hse06_10hf_bader_charge
 _atom_site_hse06_10hf_bader_spin_density
 _atom_site_hse06_10hf_ddec_charge
 _atom_site_hse06_10hf_ddec_spin_density
 _atom_site_hse06_10hf_ddec_sum_bond_order
 _atom_site_hse06_10hf_magmom
 _atom_site_hse06_bader_spin_density
 _atom_site_hse06_ddec_charge
 _atom_site_hse06_ddec_spin_density
 _atom_site_hse06_ddec_sum_bond_order
 _atom_site_hse06_magmom
 _atom_site_pbe_bader_spin_density
 _atom_site_pbe_cm5_charge
 _atom_site_pbe_ddec_charge
 _atom_site_pbe_ddec_spin_density
 _atom_site_pbe_ddec_sum_bond_order
 _atom_site_pbe_magmom
Ag  Ag0  1  0.38877363  0.87265896  0.95295941  1  0  0.530694  0  1.472862  0  0.579707  0  0.414161  0  1.936248  0  0  0.447174  0  1.880274  0  0  0.399942  0.390918  0  1.974998  0
Ag  Ag1  1  0.71458108  0.62744686  0.54715911  1  0  0.530631  0  1.4725  0  0.580667  0  0.414216  0  1.935956  0  0  0.447165  0  1.880018  0  0  0.399523  0.390737  0  1.97481  0
Ag  Ag2  1  0.61126549  0.12734169  0.04704840  1  0  0.530837  0  1.47261  0  0.579994  0  0.414238  0  1.936111  0  0  0.44726  0  1.880126  0  0  0.399992  0.390992  0  1.974862  0
Ag  Ag3  1  0.28539728  0.37254943  0.45282961  1  0  0.530694  0  1.47262  0  0.580693  0  0.414256  0  1.936134  0  0  0.447201  0  1.880207  0  0  0.399574  0.390777  0  1.974989  0
H  H4  1  0.75150094  0.49144229  0.95006169  1  0  0.104426  0  0.960228  0  0.08516  0  0.116658  0  1.030964  0  0  0.119192  0  1.029255  0  0  0.096763  0.114845  0  1.032165  0
H  H5  1  0.69288426  0.00840382  0.55000293  1  0  0.10511  0  0.959218  0  0.077246  0  0.11722  0  1.029638  0  0  0.119694  0  1.027963  0  0  0.097105  0.11538  0  1.031017  0
H  H6  1  0.24853263  0.50853819  0.04992559  1  0  0.104393  0  0.960162  0  0.084553  0  0.116755  0  1.030769  0  0  0.119291  0  1.029063  0  0  0.096844  0.11494  0  1.031969  0
H  H7  1  0.30709026  0.99158886  0.45000155  1  0  0.105073  0  0.959326  0  0.07719  0  0.117176  0  1.029702  0  0  0.11965  0  1.028026  0  0  0.09712  0.115339  0  1.03108  0
H  H8  1  0.80768913  0.38353731  0.80625659  1  0  0.127202  0  0.944134  0  0.105933  0  0.139985  0  1.005808  0  0  0.142858  0  1.004492  0  0  0.102394  0.137871  0  1.006919  0
H  H9  1  0.49679227  0.11655605  0.69361225  1  0  0.127616  0  0.944311  0  0.118453  0  0.140462  0  1.005764  0  0  0.143279  0  1.004449  0  0  0.102638  0.138386  0  1.006834  0
H  H10  1  0.19237149  0.61644063  0.19373489  1  0  0.127118  0  0.944165  0  0.106147  0  0.13994  0  1.00585  0  0  0.142806  0  1.004543  0  0  0.102405  0.137827  0  1.006955  0
H  H11  1  0.50317712  0.88343266  0.30639135  1  0  0.127663  0  0.944412  0  0.118703  0  0.140443  0  1.005887  0  0  0.143255  0  1.004586  0  0  0.102628  0.13837  0  1.006953  0
H  H12  1  0.18613129  0.52538056  0.70866677  1  0  0.099022  0  0.945827  0  0.099468  0  0.109003  0  1.020863  0  0  0.111467  0  1.018145  0  0  0.095753  0.107171  0  1.022941  0
H  H13  1  0.91897243  0.97536546  0.79167383  1  0  0.099562  0  0.946138  0  0.085718  0  0.109771  0  1.020471  0  0  0.112139  0  1.017901  0  0  0.095415  0.10785  0  1.022597  0
H  H14  1  0.81388048  0.47463425  0.29132727  1  0  0.09909  0  0.945827  0  0.099901  0  0.109022  0  1.020905  0  0  0.111482  0  1.018191  0  0  0.095784  0.107192  0  1.022982  0
H  H15  1  0.08101397  0.02464288  0.20832490  1  0  0.099576  0  0.946222  0  0.08571  0  0.10972  0  1.020585  0  0  0.112141  0  1.017962  0  0  0.095444  0.107801  0  1.022707  0
H  H16  1  0.11368052  0.63914727  0.85504273  1  0  0.089101  0  0.960171  0  0.074051  0  0.103868  0  1.027954  0  0  0.104977  0  1.027793  0  0  0.0951  0.102937  0  1.028278  0
H  H17  1  0.10726246  0.86149779  0.64541364  1  0  0.0906  0  0.958009  0  0.114611  0  0.104904  0  1.025986  0  0  0.106024  0  1.02582  0  0  0.095789  0.103997  0  1.026284  0
H  H18  1  0.88632161  0.36085982  0.14495889  1  0  0.089044  0  0.960124  0  0.074106  0  0.103845  0  1.027851  0  0  0.104927  0  1.027717  0  0  0.095084  0.102921  0  1.028168  0
H  H19  1  0.89271584  0.13851588  0.35458855  1  0  0.090591  0  0.957969  0  0.114672  0  0.104904  0  1.025919  0  0  0.106027  0  1.025749  0  0  0.095767  0.103999  0  1.026216  0
C  C20  1  0.91251565  0.43600245  0.86388477  1  0  -0.276819  0  3.68263  0  -0.056994  0  -0.311321  0  3.924266  0  0  -0.318897  0  3.933948  0  0  -0.177185  -0.306031  0  3.917565  0
C  C21  1  0.71179552  0.06414672  0.63620343  1  0  -0.277594  0  3.682457  0  -0.057603  0  -0.311085  0  3.921318  0  0  -0.318451  0  3.930815  0  0  -0.177616  -0.306004  0  3.914949  0
C  C22  1  0.08752478  0.56397822  0.13611162  1  0  -0.276759  0  3.682518  0  -0.057053  0  -0.311445  0  3.924237  0  0  -0.319016  0  3.933917  0  0  -0.17723  -0.306141  0  3.917517  0
C  C23  1  0.28817146  0.93585765  0.36379471  1  0  -0.277643  0  3.683  0  -0.053159  0  -0.311049  0  3.921642  0  0  -0.318425  0  3.931155  0  0  -0.17762  -0.305976  0  3.915277  0
C  C24  1  0.13910715  0.28336908  0.90304486  1  0  0.700083  0  3.836764  0  1.594287  0  0.652876  0  4.12135  0  0  0.687151  0  4.117948  0  0  0.204378  0.629538  0  4.122628  0
C  C25  1  0.82486659  0.21682328  0.59696814  1  0  0.698982  0  3.837061  0  1.609933  0  0.652053  0  4.120942  0  0  0.686255  0  4.117634  0  0  0.203996  0.628655  0  4.122368  0
C  C26  1  0.86095038  0.71662883  0.09695783  1  0  0.700136  0  3.835668  0  1.593729  0  0.652926  0  4.120342  0  0  0.687204  0  4.116936  0  0  0.204355  0.629582  0  4.121611  0
C  C27  1  0.17510442  0.78318522  0.40303797  1  0  0.698789  0  3.837294  0  1.61111  0  0.651972  0  4.120987  0  0  0.686183  0  4.117681  0  0  0.203979  0.628569  0  4.122402  0
C  C28  1  0.02510665  0.57737451  0.79520388  1  0  -0.101576  0  3.625281  0  -0.111805  0  -0.142045  0  3.881112  0  0  -0.141018  0  3.89433  0  0  -0.150525  -0.142741  0  3.872213  0
C  C29  1  0.89694216  0.92313464  0.70509237  1  0  -0.104149  0  3.627101  0  -0.143326  0  -0.144372  0  3.88234  0  0  -0.143374  0  3.895614  0  0  -0.15094  -0.144935  0  3.873381  0
C  C30  1  0.97491093  0.42262856  0.20479423  1  0  -0.101582  0  3.625484  0  -0.111833  0  -0.141939  0  3.881195  0  0  -0.140891  0  3.89442  0  0  -0.150499  -0.142647  0  3.87229  0
C  C31  1  0.10303240  0.07687239  0.29490687  1  0  -0.104109  0  3.627148  0  -0.148328  0  -0.14425  0  3.882192  0  0  -0.143284  0  3.895433  0  0  -0.150906  -0.144794  0  3.873184  0
S  S32  1  0.73593001  0.75009159  0.75011473  1  0  -0.002145  0  2.899865  0  0.0011  0  0.046643  0  3.393399  0  0  0.03623  0  3.376163  0  0  -0.01008  0.053632  0  3.405324  0
S  S33  1  0.26407515  0.24990233  0.24988640  1  0  -0.002097  0  2.900079  0  0.000855  0  0.046631  0  3.393591  0  0  0.036214  0  3.376358  0  0  -0.0101  0.053614  0  3.405523  0
O  O34  1  0.38520711  0.29219163  0.88786722  1  0  -0.614925  0  2.004999  0  -1.184833  0  -0.535963  0  2.246883  0  0  -0.566574  0  2.239088  0  0  -0.315863  -0.514327  0  2.251288  0
O  O35  1  0.06466669  0.20800970  0.61216251  1  0  -0.613609  0  2.004582  0  -1.186688  0  -0.535515  0  2.24707  0  0  -0.566176  0  2.239379  0  0  -0.315124  -0.513797  0  2.251354  0
O  O36  1  0.61479050  0.70781169  0.11214286  1  0  -0.615132  0  2.003898  0  -1.1842  0  -0.536138  0  2.245768  0  0  -0.566758  0  2.237972  0  0  -0.315954  -0.51451  0  2.250207  0
O  O37  1  0.93527081  0.79201439  0.38783533  1  0  -0.61359  0  2.004099  0  -1.186933  0  -0.535573  0  2.24659  0  0  -0.566251  0  2.238919  0  0  -0.315197  -0.513877  0  2.250931  0
O  O38  1  0.06248665  0.15300293  0.95373852  1  0  -0.655972  0  2.156994  0  -1.185394  0  -0.570691  0  2.451083  0  0  -0.604488  0  2.436601  0  0  -0.345583  -0.546915  0  2.460119  0
O  O39  1  0.66875191  0.34712088  0.54624561  1  0  -0.656343  0  2.15846  0  -1.199849  0  -0.570912  0  2.451993  0  0  -0.604725  0  2.437548  0  0  -0.345944  -0.54723  0  2.461047  0
O  O40  1  0.93755820  0.84697925  0.04626675  1  0  -0.655863  0  2.157323  0  -1.185356  0  -0.570495  0  2.451234  0  0  -0.604303  0  2.436799  0  0  -0.345538  -0.546726  0  2.460267  0
O  O41  1  0.33117891  0.65289295  0.45376414  1  0  -0.656127  0  2.158612  0  -1.200343  0  -0.570853  0  2.452251  0  0  -0.604614  0  2.437694  0  0  -0.345871  -0.547189  0  2.46135  0
