# generated using pymatgen
data_AgH8C10N2Cl
_symmetry_space_group_name_H-M   'P 1'
_cell_length_a   5.89395226
_cell_length_b   9.27241182
_cell_length_c   9.27220846
_cell_angle_alpha   92.46145399
_cell_angle_beta   107.93879871
_cell_angle_gamma   107.94135766
_symmetry_Int_Tables_number   1
_chemical_formula_structural   AgH8C10N2Cl
_chemical_formula_sum   'Ag2 H16 C20 N4 Cl2'
_cell_volume   453.31026518
_cell_formula_units_Z   2
loop_
 _symmetry_equiv_pos_site_id
 _symmetry_equiv_pos_as_xyz
  1  'x, y, z'
loop_
 _atom_site_type_symbol
 _atom_site_label
 _atom_site_symmetry_multiplicity
 _atom_site_fract_x
 _atom_site_fract_y
 _atom_site_fract_z
 _atom_site_occupancy
 _atom_site_hle17_bader_spin_density
 _atom_site_hle17_ddec_charge
 _atom_site_hle17_ddec_spin_density
 _atom_site_hle17_ddec_sum_bond_order
 _atom_site_hle17_magmom
 _atom_site_hse06_10hf_bader_spin_density
 _atom_site_hse06_10hf_ddec_charge
 _atom_site_hse06_10hf_ddec_spin_density
 _atom_site_hse06_10hf_ddec_sum_bond_order
 _atom_site_hse06_10hf_magmom
 _atom_site_hse06_bader_spin_density
 _atom_site_hse06_ddec_charge
 _atom_site_hse06_ddec_spin_density
 _atom_site_hse06_ddec_sum_bond_order
 _atom_site_hse06_magmom
 _atom_site_pbe_bader_spin_density
 _atom_site_pbe_cm5_charge
 _atom_site_pbe_ddec_charge
 _atom_site_pbe_ddec_spin_density
 _atom_site_pbe_ddec_sum_bond_order
 _atom_site_pbe_magmom
Ag  Ag0  1  0.24999420  0.91853219  0.08147917  1  0  0.474369  0  1.486504  0  0  0.338336  0  1.940516  0  0  0.363291  0  1.896625  0  0  0.371675  0.320717  0  1.970049  0
Ag  Ag1  1  0.75000873  0.08147107  0.91852837  1  0  0.47433  0  1.486452  0  0  0.338291  0  1.940423  0  0  0.363245  0  1.896538  0  0  0.371632  0.320665  0  1.969957  0
H  H2  1  0.11947919  0.02450998  0.37097282  1  0  0.078976  0  0.966984  0  0  0.087038  0  1.033471  0  0  0.08929  0  1.032056  0  0  0.101747  0.08524  0  1.034654  0
H  H3  1  0.38049228  0.62904335  0.97548963  1  0  0.078877  0  0.966982  0  0  0.087007  0  1.033407  0  0  0.089237  0  1.03202  0  0  0.101712  0.08521  0  1.034589  0
H  H4  1  0.88051888  0.97549100  0.62903150  1  0  0.079016  0  0.967127  0  0  0.087101  0  1.033588  0  0  0.089334  0  1.032198  0  0  0.10177  0.085302  0  1.034772  0
H  H5  1  0.61950693  0.37095651  0.02450839  1  0  0.07885  0  0.967015  0  0  0.086994  0  1.03343  0  0  0.089225  0  1.032043  0  0  0.101698  0.085197  0  1.034614  0
H  H6  1  0.32934588  0.21616732  0.61334928  1  0  0.108841  0  0.969294  0  0  0.117059  0  1.036067  0  0  0.120049  0  1.035273  0  0  0.09734  0.113156  0  1.03976  0
H  H7  1  0.17061783  0.38666312  0.78384195  1  0  0.108847  0  0.969504  0  0  0.117079  0  1.036231  0  0  0.120068  0  1.035437  0  0  0.097352  0.113171  0  1.039933  0
H  H8  1  0.67065772  0.78384975  0.38665041  1  0  0.108821  0  0.969356  0  0  0.117055  0  1.036107  0  0  0.120046  0  1.035312  0  0  0.09737  0.11315  0  1.039802  0
H  H9  1  0.82938009  0.61333448  0.21614816  1  0  0.10891  0  0.969544  0  0  0.117127  0  1.036277  0  0  0.120119  0  1.035481  0  0  0.097353  0.113207  0  1.039995  0
H  H10  1  0.01155895  0.34274067  0.49468123  1  0  0.098661  0  0.964721  0  0  0.109109  0  1.028304  0  0  0.111517  0  1.029016  0  0  0.101433  0.10728  0  1.02815  0
H  H11  1  0.48841993  0.50532924  0.65725877  1  0  0.098601  0  0.964779  0  0  0.108999  0  1.02841  0  0  0.111418  0  1.029083  0  0  0.101402  0.107161  0  1.028282  0
H  H12  1  0.98843961  0.65725802  0.50532092  1  0  0.098728  0  0.964788  0  0  0.109183  0  1.028331  0  0  0.111584  0  1.029062  0  0  0.101465  0.107351  0  1.028179  0
H  H13  1  0.51157572  0.49467061  0.34274179  1  0  0.09863  0  0.964856  0  0  0.109017  0  1.028488  0  0  0.111425  0  1.0292  0  0  0.101417  0.107187  0  1.028333  0
H  H14  1  0.77959872  0.13490248  0.26785978  1  0  0.077  0  0.986518  0  0  0.081497  0  1.059507  0  0  0.083976  0  1.057466  0  0  0.102404  0.080124  0  1.060177  0
H  H15  1  0.72038691  0.73214773  0.86508956  1  0  0.077079  0  0.986513  0  0  0.081557  0  1.059536  0  0  0.084034  0  1.057496  0  0  0.102423  0.080181  0  1.060213  0
H  H16  1  0.22041083  0.86509044  0.73214317  1  0  0.077074  0  0.986534  0  0  0.081561  0  1.059552  0  0  0.084035  0  1.057513  0  0  0.102416  0.080182  0  1.06022  0
H  H17  1  0.27961230  0.26785212  0.13490954  1  0  0.077014  0  0.98646  0  0  0.081468  0  1.059536  0  0  0.083942  0  1.057498  0  0  0.102397  0.080093  0  1.060213  0
C  C18  1  0.31780510  0.09769572  0.40476666  1  0  0.118765  0  3.707256  0  0  0.089241  0  3.954368  0  0  0.095534  0  3.97364  0  0  0.038541  0.085265  0  3.94021  0
C  C19  1  0.18216754  0.59524849  0.90229848  1  0  0.118918  0  3.707031  0  0  0.089341  0  3.954161  0  0  0.09565  0  3.973433  0  0  0.038577  0.085365  0  3.940002  0
C  C20  1  0.68221498  0.90230632  0.59524740  1  0  0.118691  0  3.707301  0  0  0.089078  0  3.954512  0  0  0.095386  0  3.973783  0  0  0.038469  0.085104  0  3.940355  0
C  C21  1  0.81783506  0.40474793  0.09769681  1  0  0.118963  0  3.707277  0  0  0.089365  0  3.954391  0  0  0.095674  0  3.973665  0  0  0.038635  0.08539  0  3.940236  0
C  C22  1  0.43299529  0.20750107  0.53590713  1  0  -0.158269  0  3.705064  0  0  -0.177964  0  3.958097  0  0  -0.184549  0  3.97778  0  0  -0.08613  -0.172484  0  3.94452  0
C  C23  1  0.06696944  0.46409719  0.79250684  1  0  -0.158257  0  3.705171  0  0  -0.177988  0  3.958247  0  0  -0.184574  0  3.977927  0  0  -0.086133  -0.172517  0  3.94469  0
C  C24  1  0.56700555  0.79250798  0.46408948  1  0  -0.158235  0  3.704854  0  0  -0.177921  0  3.957914  0  0  -0.184508  0  3.977592  0  0  -0.086143  -0.172432  0  3.94431  0
C  C25  1  0.93302101  0.53589348  0.20749228  1  0  -0.158346  0  3.705503  0  0  -0.178034  0  3.95854  0  0  -0.184623  0  3.978218  0  0  -0.086131  -0.172541  0  3.944964  0
C  C26  1  0.68679976  0.30047186  0.57127562  1  0  0.088155  0  3.771659  0  0  0.098222  0  4.007663  0  0  0.102913  0  4.026138  0  0  0.007182  0.094754  0  3.994363  0
C  C27  1  0.81317534  0.42872422  0.69953299  1  0  0.088379  0  3.771668  0  0  0.098492  0  4.007624  0  0  0.103181  0  4.026106  0  0  0.007328  0.095027  0  3.994315  0
C  C28  1  0.31320594  0.69953946  0.42872529  1  0  0.08818  0  3.771705  0  0  0.098287  0  4.007687  0  0  0.102976  0  4.026166  0  0  0.007197  0.094819  0  3.994385  0
C  C29  1  0.18681610  0.57127452  0.30046023  1  0  0.088329  0  3.771656  0  0  0.098376  0  4.007688  0  0  0.103069  0  4.026164  0  0  0.00725  0.094909  0  3.99438  0
C  C30  1  0.81492323  0.27316117  0.47402636  1  0  -0.161292  0  3.710221  0  0  -0.175327  0  3.951989  0  0  -0.182922  0  3.973963  0  0  -0.086355  -0.170881  0  3.938226  0
C  C31  1  0.68505734  0.52598339  0.72684386  1  0  -0.161361  0  3.710583  0  0  -0.175346  0  3.952315  0  0  -0.182933  0  3.974297  0  0  -0.086385  -0.170907  0  3.938557  0
C  C32  1  0.18505491  0.72682035  0.52596885  1  0  -0.161362  0  3.710173  0  0  -0.1754  0  3.951889  0  0  -0.182996  0  3.973857  0  0  -0.086392  -0.170962  0  3.938142  0
C  C33  1  0.31495223  0.47402218  0.27315646  1  0  -0.161358  0  3.710498  0  0  -0.175303  0  3.95223  0  0  -0.182896  0  3.974206  0  0  -0.086359  -0.170867  0  3.938495  0
C  C34  1  0.68684225  0.16002249  0.34611913  1  0  0.119548  0  3.709022  0  0  0.090944  0  3.953886  0  0  0.097269  0  3.97301  0  0  0.03589  0.086237  0  3.940194  0
C  C35  1  0.81312848  0.65388333  0.83997797  1  0  0.119327  0  3.709611  0  0  0.090724  0  3.954466  0  0  0.097049  0  3.973594  0  0  0.035753  0.086018  0  3.940769  0
C  C36  1  0.31316603  0.83998077  0.65388406  1  0  0.119404  0  3.709063  0  0  0.09079  0  3.953896  0  0  0.097117  0  3.973026  0  0  0.035864  0.086092  0  3.940189  0
C  C37  1  0.18686782  0.34611767  0.16002277  1  0  0.119464  0  3.709533  0  0  0.090851  0  3.954409  0  0  0.097178  0  3.97354  0  0  0.035817  0.086146  0  3.940714  0
N  N38  1  0.44080265  0.07440978  0.31000332  1  0  -0.29166  0  3.302781  0  0  -0.208483  0  3.573604  0  0  -0.22578  0  3.590059  0  0  -0.334658  -0.194618  0  3.560032  0
N  N39  1  0.05916198  0.69001114  0.92558908  1  0  -0.291665  0  3.302891  0  0  -0.208497  0  3.573735  0  0  -0.225791  0  3.59018  0  0  -0.334659  -0.194629  0  3.56016  0
N  N40  1  0.55918846  0.92558206  0.68999275  1  0  -0.291581  0  3.303139  0  0  -0.208364  0  3.573936  0  0  -0.225661  0  3.590386  0  0  -0.334616  -0.194497  0  3.560356  0
N  N41  1  0.94084452  0.30999212  0.07441591  1  0  -0.29171  0  3.303167  0  0  -0.20852  0  3.574023  0  0  -0.225817  0  3.590471  0  0  -0.334711  -0.194654  0  3.560454  0
Cl  Cl42  1  0.25000687  0.12159578  0.87840087  1  0  -0.631847  0  0.957392  0  0  -0.561031  0  1.276248  0  0  -0.577901  0  1.246537  0  0  -0.326429  -0.548863  0  1.299574  0
Cl  Cl43  1  0.74998910  0.87839832  0.12159948  1  0  -0.631802  0  0.957335  0  0  -0.561008  0  1.276213  0  0  -0.577881  0  1.246505  0  0  -0.326412  -0.548843  0  1.299539  0
