# generated using pymatgen
data_AlH12C33(ClO2)3
_symmetry_space_group_name_H-M   'P 1'
_cell_length_a   3.96801403
_cell_length_b   20.44123482
_cell_length_c   20.48109223
_cell_angle_alpha   60.07962440
_cell_angle_beta   87.04928337
_cell_angle_gamma   86.99615418
_symmetry_Int_Tables_number   1
_chemical_formula_structural   AlH12C33(ClO2)3
_chemical_formula_sum   'Al1 H12 C33 Cl3 O6'
_cell_volume   1437.23790174
_cell_formula_units_Z   1
loop_
 _symmetry_equiv_pos_site_id
 _symmetry_equiv_pos_as_xyz
  1  'x, y, z'
loop_
 _atom_site_type_symbol
 _atom_site_label
 _atom_site_symmetry_multiplicity
 _atom_site_fract_x
 _atom_site_fract_y
 _atom_site_fract_z
 _atom_site_occupancy
 _atom_site_pbe_bader_charge
 _atom_site_pbe_bader_spin_density
 _atom_site_pbe_cm5_charge
 _atom_site_pbe_ddec_charge
 _atom_site_pbe_ddec_spin_density
 _atom_site_pbe_ddec_sum_bond_order
 _atom_site_pbe_magmom
Al  Al0  1  0.03353213  0.49949845  0.49997450  1  2.504789  0  0.425053  1.593046  0  2.577341  0
H  H1  1  0.82441763  0.30763063  0.70672159  1  0.094793  0  0.110327  0.115158  0  0.986438  0
H  H2  1  0.80422318  0.23502508  0.84760721  1  0.08718  0  0.107432  0.112321  0  0.98632  0
H  H3  1  0.22995239  0.70860821  0.30797050  1  0.085241  0  0.110492  0.115291  0  0.986687  0
H  H4  1  0.22819813  0.84972025  0.23601875  1  0.08609  0  0.107393  0.112543  0  0.985567  0
H  H5  1  0.27133478  0.30909648  0.48454667  1  0.077522  0  0.110618  0.115992  0  0.986472  0
H  H6  1  0.28580602  0.23712683  0.41529566  1  0.089001  0  0.10706  0.112518  0  0.986732  0
H  H7  1  0.78398310  0.70730592  0.48346044  1  0.102324  0  0.110562  0.115464  0  0.986769  0
H  H8  1  0.76156179  0.84844027  0.41499549  1  0.090172  0  0.107338  0.112559  0  0.986508  0
H  H9  1  0.19518928  0.48390428  0.70934620  1  0.089332  0  0.110285  0.114846  0  0.986003  0
H  H10  1  0.19617435  0.41497401  0.85022513  1  0.07329  0  0.107603  0.112668  0  0.986145  0
H  H11  1  0.87383828  0.48046191  0.30732118  1  0.089312  0  0.110503  0.11497  0  0.986275  0
H  H12  1  0.86743299  0.41221999  0.23451166  1  0.071589  0  0.107319  0.11278  0  0.986727  0
C  C13  1  0.51896220  0.44194035  0.61612077  1  1.60633  0  0.274088  0.647754  0  4.066908  0
C  C14  1  0.56200697  0.44086636  0.44205093  1  1.552618  0  0.273277  0.645862  0  4.069902  0
C  C15  1  0.51806784  0.61585757  0.44145936  1  1.591532  0  0.27301  0.646691  0  4.069288  0
C  C16  1  0.68275712  0.32980240  0.73883566  1  0.030703  0  -0.077152  -0.083862  0  3.983367  0
C  C17  1  0.67252157  0.28965073  0.81703184  1  -0.076179  0  -0.079636  -0.125426  0  3.947773  0
C  C18  1  0.35035515  0.73986888  0.33012763  1  0.046253  0  -0.076725  -0.083361  0  3.983073  0
C  C19  1  0.34832160  0.81821107  0.29033812  1  -0.094806  0  -0.08034  -0.12608  0  3.946243  0
C  C20  1  0.40681171  0.33021526  0.43051633  1  -0.068212  0  -0.078211  -0.085533  0  3.986023  0
C  C21  1  0.41393925  0.29040818  0.39195312  1  0.009171  0  -0.079836  -0.12601  0  3.94871  0
C  C22  1  0.65772559  0.73918786  0.42994249  1  -0.077664  0  -0.077209  -0.084133  0  3.98475  0
C  C23  1  0.64609541  0.81751447  0.39183826  1  0.056162  0  -0.080294  -0.126259  0  3.94881  0
C  C24  1  0.33216187  0.43000900  0.74027874  1  -0.06065  0  -0.07675  -0.083788  0  3.98384  0
C  C25  1  0.33156537  0.39158145  0.81848718  1  0.028843  0  -0.080368  -0.126093  0  3.947779  0
C  C26  1  0.74137784  0.42781635  0.32970906  1  -0.048516  0  -0.077044  -0.082642  0  3.981529  0
C  C27  1  0.73894779  0.38975054  0.28944431  1  -0.003556  0  -0.080579  -0.127542  0  3.947844  0
C  C28  1  0.51052916  0.39988191  0.69986153  1  -0.034866  0  -0.009954  -0.041891  0  3.962677  0
C  C29  1  0.49963804  0.32044746  0.85802607  1  0.025873  0  0.004342  0.135432  0  4.106331  0
C  C30  1  0.49735989  0.28066747  0.93765782  1  -0.036131  0  -0.028683  -0.073596  0  4.068944  0
C  C31  1  0.49949630  0.24634053  0.00632860  1  -0.176618  0  -0.055392  -0.09391  0  4.16849  0
C  C32  1  0.50609533  0.20680439  0.08566021  1  0.178154  0  -0.013424  0.011052  0  4.131542  0
C  C33  1  0.50797457  0.69975743  0.39976491  1  -0.078518  0  -0.009795  -0.041996  0  3.961679  0
C  C34  1  0.49431927  0.85820574  0.32094495  1  0.056465  0  0.005325  0.136623  0  4.106616  0
C  C35  1  0.49180395  0.93796330  0.28099365  1  -0.055697  0  -0.029717  -0.076202  0  4.069888  0
C  C36  1  0.49476380  0.00676607  0.24658850  1  -0.1702  0  -0.054349  -0.091505  0  4.170478  0
C  C37  1  0.50329998  0.08615599  0.20666865  1  0.202439  0  -0.014318  0.00977  0  4.133185  0
C  C38  1  0.57195491  0.39889351  0.40002969  1  0.014149  0  -0.009066  -0.041611  0  3.960875  0
C  C39  1  0.57632072  0.32022594  0.32021478  1  0.110988  0  0.00523  0.137359  0  4.105789  0
C  C40  1  0.57039319  0.28108282  0.27966508  1  -0.359372  0  -0.029454  -0.076035  0  4.070229  0
C  C41  1  0.55758365  0.24688802  0.24525160  1  0.072183  0  -0.054037  -0.092025  0  4.168282  0
C  C42  1  0.53856275  0.20708686  0.20588936  1  0.06475  0  -0.013832  0.011386  0  4.131035  0
C  C43  1  0.49143495  0.12719795  0.12712335  1  -0.004275  0  0.029387  0.086565  0  3.948691  0
C  C44  1  0.52656003  0.12740325  0.24475881  1  0.149654  0  0.029258  0.08702  0  3.945267  0
C  C45  1  0.52968222  0.24546790  0.12632771  1  0.082348  0  0.029368  0.086622  0  3.948076  0
Cl  Cl46  1  0.54166372  0.07929577  0.34106644  1  -0.18383  0  0.015238  -0.042826  0  1.567838  0
Cl  Cl47  1  0.54876791  0.34187450  0.07764749  1  -0.176688  0  0.014464  -0.043467  0  1.568283  0
Cl  Cl48  1  0.45811302  0.07896594  0.07942234  1  -0.172911  0  0.015074  -0.042769  0  1.568111  0
O  O49  1  0.29581701  0.58233168  0.42685465  1  -1.253486  0  -0.238407  -0.596618  0  2.363356  0
O  O50  1  0.27947914  0.48997723  0.58295161  1  -1.256542  0  -0.239078  -0.595834  0  2.36106  0
O  O51  1  0.32150571  0.42668288  0.49082133  1  -1.263211  0  -0.240342  -0.600951  0  2.379396  0
O  O52  1  0.74925985  0.58241940  0.48951274  1  -1.256134  0  -0.238505  -0.598592  0  2.372577  0
O  O53  1  0.79174814  0.48824828  0.42710061  1  -1.251143  0  -0.237868  -0.593084  0  2.357713  0
O  O54  1  0.76649226  0.42720419  0.58257909  1  -1.260044  0  -0.23968  -0.59865  0  2.371536  0
