# generated using pymatgen
data_CoH8(C3N)4
_symmetry_space_group_name_H-M   'P 1'
_cell_length_a   13.31312799
_cell_length_b   13.89691481
_cell_length_c   26.50027619
_cell_angle_alpha   89.99996498
_cell_angle_beta   101.67590286
_cell_angle_gamma   90.00000181
_symmetry_Int_Tables_number   1
_chemical_formula_structural   CoH8(C3N)4
_chemical_formula_sum   'Co8 H64 C96 N32'
_cell_volume   4801.40355810
_cell_formula_units_Z   8
loop_
 _symmetry_equiv_pos_site_id
 _symmetry_equiv_pos_as_xyz
  1  'x, y, z'
loop_
 _atom_site_type_symbol
 _atom_site_label
 _atom_site_symmetry_multiplicity
 _atom_site_fract_x
 _atom_site_fract_y
 _atom_site_fract_z
 _atom_site_occupancy
 _atom_site_pbe_bader_charge
 _atom_site_pbe_bader_spin_density
 _atom_site_pbe_cm5_charge
 _atom_site_pbe_ddec_charge
 _atom_site_pbe_ddec_spin_density
 _atom_site_pbe_ddec_sum_bond_order
 _atom_site_pbe_magmom
Co  Co0  1  0.98299560  0.13276863  0.73150693  1  1.116835  2.491446  0.724372  0.572326  2.733021  2.876386  2.418
Co  Co1  1  0.01700526  0.63276878  0.76849367  1  1.116841  2.49145  0.724349  0.572277  2.733029  2.876358  2.418
Co  Co2  1  0.01700336  0.86723262  0.26849323  1  1.116655  2.491454  0.724321  0.572266  2.733021  2.876422  2.418
Co  Co3  1  0.98299601  0.36723103  0.23150709  1  1.11687  2.491441  0.724358  0.572306  2.733022  2.876364  2.418
Co  Co4  1  0.98972136  0.88591491  0.75591806  1  1.12332  2.496124  0.722768  0.575841  2.735624  2.850293  2.421
Co  Co5  1  0.01027794  0.38591544  0.74408193  1  1.123304  2.496123  0.722764  0.575837  2.735621  2.85031  2.421
Co  Co6  1  0.01027683  0.11408489  0.24408164  1  1.123313  2.496126  0.722776  0.57584  2.735623  2.85032  2.421
Co  Co7  1  0.98972179  0.61408509  0.25591793  1  1.123298  2.496124  0.72275  0.575839  2.735623  2.850293  2.421
H  H8  1  0.73546463  0.15359125  0.70322014  1  0.102209  0.001761  0.118029  0.103749  0.000634  1.005745  0.001
H  H9  1  0.26453546  0.65359137  0.79678038  1  0.102224  0.001761  0.118021  0.103731  0.000634  1.005757  0.001
H  H10  1  0.26453509  0.84640856  0.29678009  1  0.102219  0.001761  0.118032  0.103783  0.000634  1.005726  0.001
H  H11  1  0.73546504  0.34640843  0.20321994  1  0.10226  0.001761  0.118022  0.103734  0.000634  1.005754  0.001
H  H12  1  0.76268953  0.86770295  0.76994611  1  0.067611  0.001739  0.118842  0.104971  0.000584  1.0063  0.001
H  H13  1  0.23730977  0.36770277  0.73005426  1  0.067637  0.001739  0.118861  0.105016  0.000584  1.006269  0.001
H  H14  1  0.23731019  0.13229686  0.23005412  1  0.067637  0.001738  0.118848  0.104987  0.000584  1.006296  0.001
H  H15  1  0.76268996  0.63229703  0.26994598  1  0.067637  0.001738  0.11886  0.105006  0.000584  1.006276  0.001
H  H16  1  0.20210908  0.14711930  0.70364751  1  0.087089  0.001583  0.118581  0.106088  0.000472  1.007601  0.001
H  H17  1  0.79789101  0.64712016  0.79635150  1  0.087167  0.001583  0.118578  0.106073  0.000472  1.007603  0.001
H  H18  1  0.79789065  0.85287979  0.29635197  1  0.087158  0.001583  0.118579  0.106088  0.000472  1.007596  0.001
H  H19  1  0.20210948  0.35287893  0.20364881  1  0.087174  0.001583  0.118598  0.106088  0.000472  1.007586  0.001
H  H20  1  0.23360877  0.86328253  0.77298239  1  0.099522  0.00207  0.119139  0.104547  0.00083  1.004111  0.001
H  H21  1  0.76639130  0.36328238  0.72701768  1  0.099527  0.00207  0.119136  0.104532  0.00083  1.004085  0.001
H  H22  1  0.76639019  0.13671727  0.22701777  1  0.099524  0.00207  0.119144  0.104546  0.00083  1.004115  0.001
H  H23  1  0.23360843  0.63671743  0.27298218  1  0.099532  0.00207  0.119144  0.104562  0.00083  1.004112  0.001
H  H24  1  0.37274540  0.14170012  0.69604842  1  0.020695  6e-05  0.097271  0.09548  -2.4e-05  1.007728  0.0
H  H25  1  0.62725392  0.64170096  0.80395014  1  0.020788  6e-05  0.097287  0.095477  -2.4e-05  1.007784  0.0
H  H26  1  0.62725433  0.85829825  0.30395031  1  0.020802  6e-05  0.097283  0.09547  -2.4e-05  1.007761  0.0
H  H27  1  0.37274657  0.35829956  0.19604904  1  0.020791  6e-05  0.097275  0.095468  -2.4e-05  1.00779  0.0
H  H28  1  0.55624152  0.14433596  0.69580379  1  0.046684  7.2e-05  0.097123  0.09538  -1.7e-05  1.008147  0.0
H  H29  1  0.44375856  0.64433680  0.80419522  1  0.046673  7.2e-05  0.097127  0.095377  -1.7e-05  1.008142  0.0
H  H30  1  0.44375820  0.85566313  0.30419531  1  0.046665  7.2e-05  0.097117  0.0954  -1.7e-05  1.008104  0.0
H  H31  1  0.55624116  0.35566373  0.19580388  1  0.046666  7.2e-05  0.097143  0.095411  -1.7e-05  1.008108  0.0
H  H32  1  0.59231853  0.87085688  0.77441504  1  0.05841  4e-05  0.097443  0.095564  -3.3e-05  1.010716  0.0
H  H33  1  0.40768230  0.37085600  0.72558511  1  0.058398  4e-05  0.09745  0.09561  -3.3e-05  1.010702  0.0
H  H34  1  0.40768196  0.12914365  0.22558527  1  0.058401  4e-05  0.09745  0.095592  -3.3e-05  1.010708  0.0
H  H35  1  0.59231819  0.62914453  0.27441483  1  0.058397  4e-05  0.097456  0.095616  -3.3e-05  1.010678  0.0
H  H36  1  0.40931198  0.86892335  0.77530758  1  0.037411  8.1e-05  0.096803  0.094017  -3.1e-05  1.011478  0.0
H  H37  1  0.59068885  0.36892320  0.72469257  1  0.037393  8.1e-05  0.09679  0.094008  -3.1e-05  1.011475  0.0
H  H38  1  0.59068851  0.13107645  0.22469236  1  0.037423  8.1e-05  0.096796  0.094005  -3.1e-05  1.011442  0.0
H  H39  1  0.40931164  0.63107661  0.27530737  1  0.037409  8.1e-05  0.096804  0.094015  -3.1e-05  1.011466  0.0
H  H40  1  0.03199221  0.42736212  0.62805337  1  0.078061  0.001714  0.114702  0.100094  0.000588  1.025011  0.001
H  H41  1  0.96800786  0.92736361  0.87194706  1  0.078034  0.001714  0.114714  0.10013  0.000588  1.025001  0.001
H  H42  1  0.96800829  0.57263697  0.37194656  1  0.078052  0.001714  0.114693  0.100089  0.000588  1.025019  0.001
H  H43  1  0.03199264  0.07263763  0.12805288  1  0.078058  0.001714  0.114684  0.100084  0.000588  1.025002  0.001
H  H44  1  0.97924305  0.12031701  0.61348277  1  0.09533  0.001961  0.119444  0.105916  0.000735  1.003862  0.001
H  H45  1  0.02075704  0.62031774  0.88651776  1  0.095326  0.001962  0.119434  0.105914  0.000735  1.003866  0.001
H  H46  1  0.02075668  0.87968280  0.38651746  1  0.095331  0.001961  0.119433  0.105902  0.000735  1.003878  0.001
H  H47  1  0.97924268  0.37968278  0.11348248  1  0.095321  0.001961  0.119443  0.105916  0.000735  1.003826  0.001
H  H48  1  0.07554228  0.13008539  0.54524907  1  0.049174  6.9e-05  0.098377  0.09797  -2e-05  1.005571  0.0
H  H49  1  0.92445935  0.63008679  0.95475161  1  0.049211  6.9e-05  0.098386  0.097989  -2e-05  1.005578  0.0
H  H50  1  0.92445898  0.86991369  0.45475169  1  0.049205  6.9e-05  0.098394  0.097993  -2e-05  1.005574  0.0
H  H51  1  0.07554268  0.36991517  0.04524886  1  0.049204  6.9e-05  0.098366  0.097951  -2e-05  1.005561  0.0
H  H52  1  0.08355632  0.12359048  0.45371714  1  0.05781  7.2e-05  0.098809  0.097535  -2.4e-05  1.006004  0.0
H  H53  1  0.91644307  0.62359379  0.04628327  1  0.057713  7.2e-05  0.098815  0.097563  -2.4e-05  1.006058  0.0
H  H54  1  0.91644264  0.87640717  0.54628302  1  0.057704  7.2e-05  0.098819  0.097535  -2.4e-05  1.006059  0.0
H  H55  1  0.08355896  0.37640889  0.95371720  1  0.057799  7.2e-05  0.098809  0.097513  -2.4e-05  1.006036  0.0
H  H56  1  0.97626821  0.41679443  0.43519915  1  0.042926  9.2e-05  0.095486  0.091272  -2.6e-05  1.024899  0.0
H  H57  1  0.02373269  0.91679698  0.06480093  1  0.042882  9.2e-05  0.095466  0.091254  -2.6e-05  1.024866  0.0
H  H58  1  0.02373152  0.58320322  0.56480071  1  0.042895  9.2e-05  0.095454  0.091245  -2.6e-05  1.024891  0.0
H  H59  1  0.97626781  0.08320571  0.93519863  1  0.04293  9.2e-05  0.095472  0.091246  -2.6e-05  1.024912  0.0
H  H60  1  0.96721498  0.42277628  0.52666165  1  0.05974  4.5e-05  0.097137  0.096891  -1.5e-05  1.019214  0.0
H  H61  1  0.03278432  0.92277835  0.97333795  1  0.059698  4.5e-05  0.097158  0.096919  -1.5e-05  1.019198  0.0
H  H62  1  0.03278552  0.57722209  0.47333866  1  0.059706  4.5e-05  0.097176  0.096932  -1.5e-05  1.019205  0.0
H  H63  1  0.96721464  0.07722433  0.02666145  1  0.059745  4.5e-05  0.097156  0.096913  -1.5e-05  1.019198  0.0
H  H64  1  0.98305597  0.40991382  0.34752111  1  0.10774  0.002134  0.116403  0.099859  0.000924  1.02342  0.001
H  H65  1  0.01694492  0.90991482  0.15247935  1  0.107739  0.002134  0.116442  0.099917  0.000924  1.023409  0.001
H  H66  1  0.01694376  0.59008527  0.65247950  1  0.107749  0.002134  0.116439  0.099934  0.000924  1.023359  0.001
H  H67  1  0.98305557  0.09008570  0.84752096  1  0.107755  0.002134  0.116418  0.0999  0.000924  1.023418  0.001
H  H68  1  0.06521140  0.10824971  0.36555079  1  0.096331  0.001977  0.120693  0.108344  0.000746  0.998994  0.001
H  H69  1  0.93478875  0.60825149  0.13444856  1  0.096376  0.001977  0.120678  0.108317  0.000746  0.998893  0.001
H  H70  1  0.93478756  0.89174937  0.63444937  1  0.096353  0.001977  0.120685  0.108305  0.000746  0.998953  0.001
H  H71  1  0.06521251  0.39174976  0.86555107  1  0.096345  0.001977  0.120712  0.108355  0.000746  0.998989  0.001
C  C72  1  0.75865238  0.08342099  0.71950894  1  0.364072  0.02078  0.009223  -0.050454  0.012342  3.96952  0.016
C  C73  1  0.24134772  0.58342041  0.78049123  1  0.363905  0.020779  0.009217  -0.050432  0.012341  3.969607  0.016
C  C74  1  0.24134812  0.91657954  0.28049175  1  0.364072  0.02078  0.009212  -0.050499  0.012342  3.969586  0.016
C  C75  1  0.75865278  0.41657868  0.21950908  1  0.363863  0.020779  0.009215  -0.050419  0.012341  3.969531  0.016
C  C76  1  0.69986974  0.01012125  0.73607492  1  0.041887  0.015544  -0.033299  -0.033706  0.007971  4.076551  0.01
C  C77  1  0.30012959  0.51012070  0.76392482  1  0.042068  0.015544  -0.033308  -0.033755  0.007972  4.076699  0.01
C  C78  1  0.30012999  0.98987927  0.26392532  1  0.041869  0.015544  -0.033323  -0.033773  0.007971  4.076603  0.01
C  C79  1  0.69987013  0.48987911  0.23607542  1  0.042074  0.015544  -0.033325  -0.033789  0.007972  4.076625  0.01
C  C80  1  0.77276229  0.93826682  0.75412507  1  0.387194  0.021664  0.009919  -0.048172  0.012705  3.968434  0.016
C  C81  1  0.22723700  0.43826663  0.74587528  1  0.387158  0.021663  0.009918  -0.048207  0.012704  3.968457  0.016
C  C82  1  0.22723820  0.06173371  0.24587562  1  0.387161  0.021664  0.009922  -0.048192  0.012705  3.968443  0.016
C  C83  1  0.77276272  0.56173318  0.25412496  1  0.38719  0.021663  0.009931  -0.048172  0.012704  3.968416  0.016
C  C84  1  0.19357558  0.07751823  0.72088885  1  0.406607  0.024197  0.010756  -0.04709  0.01421  3.959727  0.018
C  C85  1  0.80642528  0.57751839  0.77911064  1  0.406539  0.024197  0.010756  -0.047074  0.01421  3.959762  0.018
C  C86  1  0.80642414  0.92248158  0.27911063  1  0.406557  0.024197  0.010765  -0.047096  0.014211  3.959708  0.018
C  C87  1  0.19357598  0.42248142  0.22088975  1  0.406545  0.024197  0.010753  -0.047062  0.014211  3.959738  0.018
C  C88  1  0.26666732  0.00510862  0.73755513  1  0.040091  0.016907  -0.032469  -0.033235  0.008673  4.077241  0.01
C  C89  1  0.73333355  0.50510880  0.76244438  1  0.040094  0.016906  -0.032478  -0.033269  0.008673  4.077315  0.01
C  C90  1  0.73333241  0.99489118  0.26244435  1  0.040221  0.016907  -0.032495  -0.033269  0.008673  4.077268  0.01
C  C91  1  0.26666771  0.49489100  0.23755601  1  0.040294  0.016906  -0.032503  -0.03329  0.008673  4.077316  0.01
C  C92  1  0.20981626  0.93336572  0.75676915  1  0.36278  0.024831  0.012197  -0.043124  0.014681  3.957734  0.018
C  C93  1  0.79018380  0.43336555  0.74323090  1  0.362767  0.02483  0.012206  -0.043071  0.01468  3.957675  0.018
C  C94  1  0.79018270  0.06663408  0.24323101  1  0.362833  0.024831  0.012187  -0.043115  0.014681  3.957721  0.018
C  C95  1  0.20981669  0.56663353  0.25676903  1  0.362776  0.024831  0.012182  -0.043122  0.014681  3.957738  0.018
C  C96  1  0.37573622  0.00549792  0.73613266  1  0.034628  0.003047  -0.013148  0.078122  0.001602  4.057898  0.002
C  C97  1  0.62426465  0.50549809  0.76386724  1  0.034591  0.003047  -0.013148  0.078139  0.001602  4.057874  0.002
C  C98  1  0.62426351  0.99450117  0.26386683  1  0.03454  0.003047  -0.013128  0.078171  0.001602  4.057859  0.002
C  C99  1  0.37573584  0.49450099  0.23613270  1  0.034629  0.003047  -0.013146  0.078147  0.001602  4.057859  0.002
C  C100  1  0.42049889  0.08209263  0.71377280  1  -0.02669  0.002594  -0.095396  -0.130876  0.001369  4.002472  0.002
C  C101  1  0.57950121  0.58209278  0.78622662  1  -0.02673  0.002593  -0.095422  -0.130915  0.001369  4.002521  0.002
C  C102  1  0.57950007  0.91790645  0.28622585  1  -0.026685  0.002593  -0.095423  -0.130898  0.001369  4.002567  0.002
C  C103  1  0.42049852  0.41790703  0.21377324  1  -0.026788  0.002594  -0.095395  -0.130908  0.001369  4.002566  0.002
C  C104  1  0.52478428  0.08353252  0.71354661  1  -0.029811  0.002088  -0.096372  -0.132161  0.001092  4.005638  0.001
C  C105  1  0.47521581  0.58353338  0.78645280  1  -0.029785  0.002088  -0.096354  -0.132094  0.001093  4.00559  0.001
C  C106  1  0.47521544  0.91646585  0.28645249  1  -0.029828  0.002088  -0.096354  -0.132174  0.001092  4.005585  0.001
C  C107  1  0.52478468  0.41646714  0.21354676  1  -0.029806  0.002088  -0.096422  -0.132139  0.001093  4.005619  0.001
C  C108  1  0.58995453  0.00827336  0.73547952  1  0.019605  0.003464  -0.013149  0.079708  0.001829  4.055001  0.002
C  C109  1  0.41004481  0.50827281  0.76452059  1  0.019629  0.003464  -0.013133  0.079722  0.001829  4.055016  0.002
C  C110  1  0.41004520  0.99172645  0.26452034  1  0.019654  0.003464  -0.013109  0.07982  0.001829  4.05493  0.002
C  C111  1  0.58995492  0.49172700  0.23547927  1  0.019636  0.003464  -0.013115  0.079698  0.001829  4.05507  0.002
C  C112  1  0.54490242  0.93106306  0.75721227  1  -0.071586  0.002124  -0.094633  -0.129638  0.00112  4.001258  0.001
C  C113  1  0.45509764  0.43106216  0.74278778  1  -0.071591  0.002125  -0.094656  -0.129704  0.00112  4.001316  0.001
C  C114  1  0.45509730  0.06893747  0.24278759  1  -0.071603  0.002124  -0.094648  -0.129706  0.00112  4.001313  0.001
C  C115  1  0.54490209  0.56893765  0.25721208  1  -0.071587  0.002125  -0.094636  -0.12969  0.00112  4.001298  0.001
C  C116  1  0.44073949  0.92981386  0.75762477  1  -0.037401  0.002502  -0.095292  -0.12941  0.001297  4.004484  0.001
C  C117  1  0.55926057  0.42981296  0.74237566  1  -0.037388  0.002502  -0.095271  -0.129406  0.001297  4.004469  0.001
C  C118  1  0.55925947  0.07018595  0.24237501  1  -0.0374  0.002502  -0.095321  -0.129443  0.001297  4.004473  0.001
C  C119  1  0.44073992  0.57018684  0.25762466  1  -0.03739  0.002502  -0.09529  -0.129394  0.001297  4.004425  0.001
C  C120  1  0.01613877  0.35159781  0.63267091  1  0.408028  0.016551  0.003968  -0.058019  0.009996  3.97383  0.013
C  C121  1  0.98386054  0.85159860  0.86732947  1  0.40802  0.01655  0.003912  -0.058124  0.009996  3.973913  0.013
C  C122  1  0.98386096  0.64840199  0.36732895  1  0.408056  0.016551  0.00396  -0.058048  0.009996  3.973841  0.013
C  C123  1  0.01614072  0.14840265  0.13267092  1  0.408028  0.01655  0.003986  -0.058039  0.009995  3.973814  0.013
C  C124  1  0.00952185  0.27575942  0.59702661  1  0.005082  0.014971  -0.035247  -0.035263  0.007587  4.089715  0.01
C  C125  1  0.99047823  0.77576088  0.90297386  1  0.005075  0.014971  -0.035293  -0.035343  0.007587  4.089685  0.01
C  C126  1  0.99047865  0.72423967  0.40297408  1  0.005132  0.014971  -0.035235  -0.035251  0.007587  4.089694  0.01
C  C127  1  0.00952303  0.22424036  0.09702615  1  0.005144  0.014972  -0.035267  -0.035264  0.007588  4.089638  0.01
C  C128  1  0.99054476  0.19486233  0.62554101  1  0.345539  0.017829  0.005593  -0.05741  0.010583  3.986606  0.014
C  C129  1  0.00945456  0.69486307  0.87445942  1  0.345553  0.017828  0.005612  -0.057404  0.010583  3.986534  0.014
C  C130  1  0.00945496  0.80513748  0.37445922  1  0.345566  0.017829  0.005598  -0.057388  0.010583  3.986553  0.014
C  C131  1  0.99054517  0.30513817  0.12554044  1  0.345544  0.017828  0.005559  -0.05742  0.010583  3.986487  0.014
C  C132  1  0.01946744  0.27639340  0.54311574  1  0.02296  0.003691  -0.014621  0.079301  0.001957  4.051979  0.002
C  C133  1  0.98053187  0.77639624  0.95688466  1  0.02246  0.003692  -0.014618  0.079319  0.001957  4.052067  0.002
C  C134  1  0.98053228  0.72360424  0.45688449  1  0.022962  0.003691  -0.01465  0.079258  0.001957  4.052214  0.002
C  C135  1  0.01946863  0.22360644  0.04311566  1  0.02294  0.003692  -0.014582  0.079378  0.001957  4.051998  0.002
C  C136  1  0.05259587  0.19304398  0.52105680  1  -0.011002  0.0017  -0.096881  -0.134084  0.000899  4.009836  0.001
C  C137  1  0.94740345  0.69304679  0.97894401  1  -0.011153  0.0017  -0.096811  -0.134026  0.000899  4.009785  0.001
C  C138  1  0.94740386  0.80695366  0.47894381  1  -0.011162  0.0017  -0.096883  -0.134123  0.000899  4.00985  0.001
C  C139  1  0.05259704  0.30695517  0.02105631  1  -0.011091  0.001701  -0.096887  -0.134105  0.000899  4.009853  0.001
C  C140  1  0.05739870  0.18956986  0.46924595  1  -0.08823  0.002854  -0.095703  -0.132127  0.001492  4.008238  0.002
C  C141  1  0.94259992  0.68957248  0.03075436  1  -0.088099  0.002854  -0.095699  -0.13215  0.001492  4.008273  0.002
C  C142  1  0.94259950  0.81042779  0.53075413  1  -0.08808  0.002854  -0.095645  -0.132002  0.001492  4.008198  0.002
C  C143  1  0.05740057  0.31042949  0.96924596  1  -0.088239  0.002854  -0.095676  -0.132061  0.001492  4.008268  0.002
C  C144  1  0.02918750  0.26924224  0.43667467  1  -0.034566  0.002586  -0.0122  0.082486  0.001345  4.052032  0.001
C  C145  1  0.97081187  0.76924482  0.06332530  1  -0.034586  0.002586  -0.012241  0.082412  0.001345  4.051992  0.001
C  C146  1  0.97081146  0.73075469  0.56332548  1  -0.034577  0.002586  -0.012227  0.082441  0.001345  4.051996  0.001
C  C147  1  0.02918862  0.23075787  0.93667463  1  -0.034598  0.002586  -0.012189  0.082479  0.001345  4.052042  0.001
C  C148  1  0.99909731  0.35352066  0.45913431  1  0.01662  0.002906  -0.095676  -0.131637  0.001529  3.99631  0.002
C  C149  1  0.00090205  0.85352251  0.04086602  1  0.016597  0.002907  -0.095676  -0.131631  0.001529  3.996159  0.002
C  C150  1  0.00090088  0.64647771  0.54086578  1  0.0166  0.002907  -0.095671  -0.131629  0.001529  3.996264  0.002
C  C151  1  0.99909767  0.14648017  0.95913421  1  0.016637  0.002907  -0.095663  -0.13159  0.001529  3.996291  0.002
C  C152  1  0.99428259  0.35719698  0.51107150  1  -0.080865  0.001727  -0.095319  -0.131544  0.000906  3.99349  0.001
C  C153  1  0.00571671  0.85719904  0.98892850  1  -0.080181  0.001726  -0.0953  -0.131521  0.000906  3.993503  0.001
C  C154  1  0.00571714  0.64280138  0.48892836  1  -0.080784  0.001727  -0.095326  -0.13155  0.000906  3.99359  0.001
C  C155  1  0.99428301  0.14280293  0.01107174  1  -0.080881  0.001727  -0.095334  -0.131591  0.000906  3.993486  0.001
C  C156  1  0.00192693  0.33465609  0.34370900  1  0.352466  0.021895  0.011614  -0.042643  0.013018  3.952814  0.016
C  C157  1  0.99807167  0.83465784  0.15629163  1  0.352532  0.021895  0.011576  -0.042769  0.013018  3.952884  0.016
C  C158  1  0.99807203  0.66534299  0.65629154  1  0.352517  0.021895  0.011574  -0.042771  0.013018  3.952829  0.016
C  C159  1  0.00192806  0.16534340  0.84370898  1  0.35255  0.021894  0.011612  -0.042681  0.013018  3.952869  0.016
C  C160  1  0.02734163  0.26276170  0.38149072  1  0.064585  0.018566  -0.032666  -0.035503  0.009539  4.07895  0.012
C  C161  1  0.97265774  0.76276421  0.11850926  1  0.064529  0.018567  -0.032601  -0.035332  0.009539  4.078767  0.012
C  C162  1  0.97265733  0.73723667  0.61850944  1  0.064524  0.018567  -0.032666  -0.035486  0.009539  4.078901  0.012
C  C163  1  0.02734276  0.23723775  0.88149106  1  0.064521  0.018567  -0.032686  -0.035514  0.009539  4.078976  0.012
C  C164  1  0.04463518  0.18120908  0.35287241  1  0.394811  0.022061  0.011694  -0.047299  0.013133  3.952656  0.017
C  C165  1  0.95536497  0.68121156  0.14712729  1  0.394824  0.02206  0.011651  -0.047318  0.013133  3.952541  0.017
C  C166  1  0.95536378  0.81878929  0.64712775  1  0.394844  0.02206  0.01169  -0.047231  0.013132  3.952615  0.017
C  C167  1  0.04463629  0.31878968  0.85287234  1  0.394828  0.02206  0.011698  -0.047292  0.013132  3.952706  0.017
N  N168  1  0.85813527  0.05672297  0.72706311  1  -0.785786  0.088963  -0.289392  -0.190131  0.045762  3.669701  0.056
N  N169  1  0.14186483  0.55672312  0.77293706  1  -0.785787  0.088964  -0.289379  -0.190102  0.045762  3.669687  0.056
N  N170  1  0.14186370  0.94327684  0.27293742  1  -0.785789  0.088962  -0.289383  -0.190125  0.045761  3.669701  0.056
N  N171  1  0.85813489  0.44327669  0.22706280  1  -0.785791  0.088963  -0.289379  -0.190129  0.045762  3.669702  0.056
N  N172  1  0.86678503  0.96675876  0.74865528  1  -0.775558  0.091169  -0.287137  -0.19011  0.046832  3.669759  0.06
N  N173  1  0.13321426  0.46675784  0.75134468  1  -0.775583  0.091169  -0.287162  -0.19012  0.046832  3.669785  0.06
N  N174  1  0.13321547  0.03324177  0.25134503  1  -0.775534  0.091169  -0.287123  -0.190057  0.046832  3.669731  0.06
N  N175  1  0.86678546  0.53324197  0.24865480  1  -0.775598  0.091169  -0.287141  -0.190084  0.046832  3.669722  0.06
N  N176  1  0.10128419  0.05067125  0.72973793  1  -0.782254  0.094128  -0.287985  -0.186108  0.048488  3.675153  0.062
N  N177  1  0.89871514  0.55067143  0.77026141  1  -0.782275  0.094127  -0.287987  -0.186102  0.048487  3.675151  0.062
N  N178  1  0.89871477  0.94932855  0.27026185  1  -0.782334  0.094121  -0.287971  -0.186053  0.048486  3.675114  0.062
N  N179  1  0.10128459  0.44932694  0.22973844  1  -0.782449  0.094135  -0.287993  -0.186081  0.048486  3.675065  0.062
N  N180  1  0.11137161  0.96156551  0.75209410  1  -0.784985  0.091471  -0.2871  -0.186282  0.046998  3.674975  0.056
N  N181  1  0.88862845  0.46156605  0.74790594  1  -0.784996  0.091472  -0.287104  -0.186303  0.046999  3.675017  0.056
N  N182  1  0.88862812  0.03843430  0.24790613  1  -0.78498  0.091472  -0.287085  -0.186284  0.046998  3.674999  0.056
N  N183  1  0.11137128  0.53843447  0.25209392  1  -0.785062  0.091472  -0.287088  -0.18632  0.046999  3.674937  0.056
N  N184  1  0.00255390  0.31776078  0.67870123  1  -0.764808  0.08851  -0.285062  -0.184257  0.045421  3.668941  0.057
N  N185  1  0.99744464  0.81776090  0.82129908  1  -0.764812  0.08851  -0.285066  -0.184245  0.045422  3.668966  0.057
N  N186  1  0.99744506  0.68223974  0.32129855  1  -0.764799  0.088509  -0.285071  -0.184234  0.045421  3.668931  0.057
N  N187  1  0.00255585  0.18223963  0.17870086  1  -0.764787  0.088509  -0.285098  -0.184276  0.045422  3.66895  0.057
N  N188  1  0.98598685  0.22075509  0.67406303  1  -0.781962  0.086957  -0.288106  -0.19039  0.044822  3.682549  0.057
N  N189  1  0.01401170  0.72075590  0.82593769  1  -0.781923  0.086956  -0.288085  -0.190335  0.044821  3.682526  0.057
N  N190  1  0.01401211  0.77924543  0.32593713  1  -0.781949  0.086957  -0.288102  -0.190431  0.044824  3.682602  0.057
N  N191  1  0.98598803  0.27924535  0.17406255  1  -0.781931  0.086957  -0.288095  -0.190433  0.044823  3.68259  0.057
N  N192  1  0.00330792  0.29816241  0.29670472  1  -0.777663  0.094336  -0.286149  -0.177518  0.048454  3.674831  0.06
N  N193  1  0.99668991  0.79816482  0.20329547  1  -0.777714  0.094334  -0.286142  -0.177461  0.048453  3.6748  0.06
N  N194  1  0.99669104  0.70183596  0.70329582  1  -0.777722  0.094335  -0.286175  -0.17751  0.048455  3.674831  0.06
N  N195  1  0.00330981  0.20183570  0.79670476  1  -0.777746  0.094336  -0.286185  -0.177554  0.048454  3.674864  0.06
N  N196  1  0.02989264  0.20332337  0.30233129  1  -0.780667  0.094348  -0.283351  -0.17724  0.048376  3.659115  0.061
N  N197  1  0.97010597  0.70332507  0.19766864  1  -0.780671  0.094348  -0.283366  -0.177335  0.048377  3.659117  0.061
N  N198  1  0.97010632  0.79667572  0.69766887  1  -0.78067  0.094349  -0.28334  -0.177271  0.048376  3.659136  0.061
N  N199  1  0.02989453  0.29667545  0.80233130  1  -0.780655  0.094348  -0.283333  -0.17722  0.048376  3.65911  0.061
