# generated using pymatgen
data_Zn2H5(C4O3)3
_symmetry_space_group_name_H-M   'P 1'
_cell_length_a   13.07718896
_cell_length_b   13.07624699
_cell_length_c   16.09362563
_cell_angle_alpha   80.63982314
_cell_angle_beta   79.56449682
_cell_angle_gamma   89.41598850
_symmetry_Int_Tables_number   1
_chemical_formula_structural   Zn2H5(C4O3)3
_chemical_formula_sum   'Zn4 H10 C24 O18'
_cell_volume   2669.93666746
_cell_formula_units_Z   2
loop_
 _symmetry_equiv_pos_site_id
 _symmetry_equiv_pos_as_xyz
  1  'x, y, z'
loop_
 _atom_site_type_symbol
 _atom_site_label
 _atom_site_symmetry_multiplicity
 _atom_site_fract_x
 _atom_site_fract_y
 _atom_site_fract_z
 _atom_site_occupancy
 _atom_site_pbe_bader_charge
 _atom_site_pbe_bader_spin_density
 _atom_site_pbe_cm5_charge
 _atom_site_pbe_ddec_charge
 _atom_site_pbe_ddec_spin_density
 _atom_site_pbe_ddec_sum_bond_order
 _atom_site_pbe_magmom
Zn  Zn0  1  0.58969465  0.57628814  0.55463787  1  1.313312  0  0.674236  0.960936  0  2.386178  0
Zn  Zn1  1  0.58601251  0.41408516  0.42614725  1  1.311659  0  0.673065  0.967977  0  2.356855  0
Zn  Zn2  1  0.42833297  0.60460209  0.42545709  1  1.316187  0  0.676092  0.965863  0  2.362028  0
Zn  Zn3  1  0.39589723  0.41732656  0.58556728  1  1.312591  0  0.67494  0.969849  0  2.351316  0
H  H4  1  0.08449721  0.58154745  0.46594154  1  0.106137  0  0.118333  0.136416  0  0.965859  0
H  H5  1  0.90310532  0.44952087  0.34357843  1  0.098736  0  0.110048  0.051493  0  0.951058  0
H  H6  1  0.59698071  0.56665871  0.97032220  1  0.139777  0  0.130238  0.154587  0  0.956091  0
H  H7  1  0.60743058  0.89008753  0.57816630  1  0.137541  0  0.123849  0.13351  0  0.964697  0
H  H8  1  0.47685679  0.93749448  0.43516375  1  0.104733  0  0.117703  0.136058  0  0.969843  0
H  H9  1  0.07250715  0.38615132  0.60411413  1  0.154091  0  0.122387  0.130946  0  0.969003  0
H  H10  1  0.34138468  0.38532614  0.00241431  1  0.620183  0  0.3499  0.379373  0  0.853614  0
H  H11  1  0.65857863  0.17936180  0.55191212  1  0.069474  0  0.103323  0.04413  0  0.982679  0
H  H12  1  0.30097177  0.12399046  0.55641967  1  0.092275  0  0.110317  0.050539  0  0.948073  0
H  H13  1  0.77935320  0.41338434  0.64123317  1  0.071732  0  0.10508  0.048035  0  0.979446  0
C  C14  1  0.47768098  0.22328029  0.52801136  1  1.592434  0  0.221381  0.590415  0  4.216939  0
C  C15  1  0.04419891  0.44359639  0.55678045  1  -0.055606  0  -0.054256  -0.04079  0  3.935533  0
C  C16  1  0.89142424  0.45028881  0.48160908  1  0.019465  0  -0.00105  -0.141254  0  3.807591  0
C  C17  1  0.52334465  0.78012846  0.48028842  1  1.532025  0  0.229049  0.652885  0  4.159955  0
C  C18  1  0.93325472  0.44239715  0.55446947  1  -0.085148  0  0.025172  0.069289  0  3.880214  0
C  C19  1  0.77755300  0.46747878  0.48388661  1  1.576354  0  0.223614  0.595379  0  4.214277  0
C  C20  1  0.22204012  0.51931896  0.51449558  1  1.566953  0  0.228489  0.652248  0  4.157767  0
C  C21  1  0.52164425  0.51863087  0.26957387  1  1.678082  0  0.236216  0.686173  0  4.23271  0
C  C22  1  0.48200136  0.48039743  0.72682508  1  1.688405  0  0.229912  0.66604  0  4.247  0
C  C23  1  0.52617156  0.52220588  0.17924320  1  0.22023  0  -0.035735  -0.203308  0  3.905234  0
C  C24  1  0.53369715  0.52346018  0.01540563  1  0.14587  0  -0.082202  -0.207933  0  4.021794  0
C  C25  1  0.47166340  0.47480701  0.89381418  1  -0.323301  0  -0.027267  -0.115414  0  4.110515  0
C  C26  1  0.46366563  0.47207470  0.98259488  1  0.562964  0  0.09862  0.326603  0  4.174723  0
C  C27  1  0.66058929  0.09712761  0.54208444  1  0.965543  0  0.105572  0.264773  0  3.928584  0
C  C28  1  0.36111026  0.06473890  0.56659415  1  0.968058  0  0.109215  0.2988  0  3.934999  0
C  C29  1  0.86362151  0.42455641  0.64073333  1  0.964203  0  0.104493  0.259281  0  3.924683  0
C  C30  1  0.94984056  0.43390814  0.39544061  1  0.95117  0  0.10809  0.294817  0  3.93876  0
C  C31  1  0.52885365  0.52251556  0.10295651  1  -0.459173  0  -0.005773  0.084373  0  4.119744  0
C  C32  1  0.47512457  0.47523345  0.81747273  1  0.082055  0  -0.027774  -0.133376  0  3.944699  0
C  C33  1  0.51913322  0.89302985  0.48095893  1  -0.028205  0  -0.074615  -0.199385  0  3.86068  0
C  C34  1  0.56109443  0.93736707  0.53701502  1  0.014141  0  -0.054891  -0.039934  0  3.933295  0
C  C35  1  0.47083762  0.10715884  0.54194298  1  -0.051495  0  0.000617  -0.137248  0  3.807018  0
C  C36  1  0.55836900  0.04852896  0.53866004  1  -0.013666  0  0.023452  0.063916  0  3.888382  0
C  C37  1  0.10992654  0.51878157  0.51056880  1  0.030123  0  -0.07109  -0.192776  0  3.854121  0
O  O38  1  0.50009796  0.50146000  0.49810794  1  -1.232028  0  -0.569845  -1.03501  0  2.525754  0
O  O39  1  0.58045559  0.45269745  0.30473664  1  -1.14618  0  -0.31057  -0.539907  0  2.273724  0
O  O40  1  0.41112417  0.43216102  0.70257413  1  -1.150005  0  -0.309544  -0.537643  0  2.273583  0
O  O41  1  0.45985455  0.58084476  0.30573094  1  -1.147329  0  -0.303727  -0.533321  0  2.276708  0
O  O42  1  0.55906270  0.53314258  0.67974067  1  -1.153514  0  -0.309044  -0.537619  0  2.281365  0
O  O43  1  0.38342395  0.41595157  0.03655018  1  -1.098967  0  -0.332977  -0.424359  0  2.210714  0
O  O44  1  0.74126872  0.04866905  0.53806671  1  -1.049975  0  -0.248168  -0.322622  0  2.077972  0
O  O45  1  0.33679648  0.97532931  0.59886315  1  -1.055261  0  -0.244984  -0.325092  0  2.096032  0
O  O46  1  0.89739224  0.41827619  0.70735751  1  -1.044357  0  -0.244878  -0.318037  0  2.07793  0
O  O47  1  0.03822888  0.40196157  0.38153230  1  -1.051111  0  -0.245792  -0.324353  0  2.100971  0
O  O48  1  0.73675500  0.53835990  0.52407819  1  -1.156767  0  -0.305615  -0.534978  0  2.345496  0
O  O49  1  0.25468413  0.44955416  0.56838304  1  -1.168776  0  -0.315067  -0.550295  0  2.318834  0
O  O50  1  0.54254717  0.26702163  0.46340643  1  -1.158835  0  -0.30738  -0.536432  0  2.339509  0
O  O51  1  0.46999836  0.74655967  0.43076822  1  -1.152634  0  -0.31234  -0.541932  0  2.286084  0
O  O52  1  0.41431921  0.26712779  0.58058932  1  -1.148042  0  -0.304153  -0.533447  0  2.318882  0
O  O53  1  0.57727993  0.72585456  0.52939084  1  -1.15773  0  -0.314668  -0.546358  0  2.322147  0
O  O54  1  0.73309608  0.41209588  0.44183165  1  -1.162692  0  -0.308232  -0.541963  0  2.321778  0
O  O55  1  0.27704038  0.58978688  0.46125096  1  -1.155702  0  -0.311768  -0.53992  0  2.285978  0
