# generated using pymatgen
data_AsH10PbC15NO12
_symmetry_space_group_name_H-M   'P 1'
_cell_length_a   5.07980044
_cell_length_b   11.94414928
_cell_length_c   14.95195136
_cell_angle_alpha   99.06479700
_cell_angle_beta   94.94270679
_cell_angle_gamma   97.90187302
_symmetry_Int_Tables_number   1
_chemical_formula_structural   AsH10PbC15NO12
_chemical_formula_sum   'As2 H20 Pb2 C30 N2 O24'
_cell_volume   881.94934956
_cell_formula_units_Z   2
loop_
 _symmetry_equiv_pos_site_id
 _symmetry_equiv_pos_as_xyz
  1  'x, y, z'
loop_
 _atom_site_type_symbol
 _atom_site_label
 _atom_site_symmetry_multiplicity
 _atom_site_fract_x
 _atom_site_fract_y
 _atom_site_fract_z
 _atom_site_occupancy
 _atom_site_hle17_bader_spin_density
 _atom_site_hle17_ddec_charge
 _atom_site_hle17_ddec_spin_density
 _atom_site_hle17_ddec_sum_bond_order
 _atom_site_hle17_magmom
 _atom_site_hse06_10hf_bader_spin_density
 _atom_site_hse06_10hf_ddec_charge
 _atom_site_hse06_10hf_ddec_spin_density
 _atom_site_hse06_10hf_ddec_sum_bond_order
 _atom_site_hse06_10hf_magmom
 _atom_site_hse06_bader_spin_density
 _atom_site_hse06_ddec_charge
 _atom_site_hse06_ddec_spin_density
 _atom_site_hse06_ddec_sum_bond_order
 _atom_site_hse06_magmom
 _atom_site_pbe_bader_spin_density
 _atom_site_pbe_cm5_charge
 _atom_site_pbe_ddec_charge
 _atom_site_pbe_ddec_spin_density
 _atom_site_pbe_ddec_sum_bond_order
 _atom_site_pbe_magmom
As  As0  1  0.00155751  0.13813986  0.42815601  1  0  1.545991  0  3.980347  0  0  1.480938  0  4.435763  0  0  1.531534  0  4.407657  0  0  0.616121  1.445178  0  4.455106  0
As  As1  1  0.99844062  0.86186079  0.57184360  1  0  1.546003  0  3.980445  0  0  1.480922  0  4.435873  0  0  1.531515  0  4.40776  0  0  0.616073  1.445168  0  4.455218  0
H  H2  1  0.41665547  0.33438242  0.22864503  1  0  0.129844  0  0.928302  0  0  0.139766  0  0.984003  0  0  0.143296  0  0.983588  0  0  0.114048  0.137258  0  0.984443  0
H  H3  1  0.58334507  0.66561394  0.77135344  1  0  0.129811  0  0.928313  0  0  0.139754  0  0.983998  0  0  0.143283  0  0.983562  0  0  0.114044  0.13725  0  0.984439  0
H  H4  1  0.24479377  0.38137428  0.44434676  1  0  0.134747  0  0.953626  0  0  0.137595  0  1.024473  0  0  0.141399  0  1.020679  0  0  0.119176  0.134825  0  1.027224  0
H  H5  1  0.75520148  0.61862380  0.55565312  1  0  0.134723  0  0.953598  0  0  0.137568  0  1.024449  0  0  0.14136  0  1.020685  0  0  0.119166  0.134798  0  1.027198  0
H  H6  1  0.54260374  0.16727133  0.29398983  1  0  0.101784  0  0.958507  0  0  0.108627  0  1.026736  0  0  0.112104  0  1.022929  0  0  0.111745  0.106072  0  1.029452  0
H  H7  1  0.45739120  0.83272589  0.70601060  1  0  0.101777  0  0.958538  0  0  0.108623  0  1.026762  0  0  0.112102  0  1.022947  0  0  0.111721  0.106053  0  1.02951  0
H  H8  1  0.87131963  0.26406024  0.11404413  1  0  0.111705  0  0.946717  0  0  0.116396  0  1.016806  0  0  0.12015  0  1.013597  0  0  0.110491  0.113599  0  1.019173  0
H  H9  1  0.12868474  0.73594127  0.88595510  1  0  0.11183  0  0.946572  0  0  0.116541  0  1.016627  0  0  0.120285  0  1.013428  0  0  0.110579  0.113744  0  1.018999  0
H  H10  1  0.95841817  0.31141698  0.83750328  1  0  0.117467  0  0.942802  0  0  0.122963  0  1.010403  0  0  0.127615  0  1.005436  0  0  0.113662  0.119592  0  1.013981  0
H  H11  1  0.04158589  0.68858367  0.16249717  1  0  0.117467  0  0.942799  0  0  0.122964  0  1.010413  0  0  0.127616  0  1.005465  0  0  0.113656  0.119592  0  1.013989  0
H  H12  1  0.37412131  0.07021961  0.95588123  1  0  0.11555  0  0.991378  0  0  0.121177  0  1.060926  0  0  0.125197  0  1.057042  0  0  0.113163  0.118251  0  1.063623  0
H  H13  1  0.62588701  0.92978190  0.04411811  1  0  0.115519  0  0.991457  0  0  0.121154  0  1.060993  0  0  0.125175  0  1.057109  0  0  0.113134  0.118227  0  1.063686  0
H  H14  1  0.79802007  0.61011315  0.28313209  1  0  0.404165  0  0.860237  0  0  0.372933  0  0.942422  0  0  0.385092  0  0.928163  0  0  0.317476  0.364296  0  0.952547  0
H  H15  1  0.20198245  0.38988321  0.71686644  1  0  0.404171  0  0.86023  0  0  0.372945  0  0.942426  0  0  0.385089  0  0.928092  0  0  0.317455  0.364308  0  0.952547  0
H  H16  1  0.56720798  0.50068118  0.92829456  1  0  0.398799  0  0.892918  0  0  0.367081  0  0.971913  0  0  0.380428  0  0.957712  0  0  0.302173  0.35774  0  0.981774  0
H  H17  1  0.43279379  0.49931861  0.07170304  1  0  0.398805  0  0.893  0  0  0.367101  0  0.971965  0  0  0.380449  0  0.957768  0  0  0.302189  0.357756  0  0.981833  0
H  H18  1  0.45633498  0.99482685  0.15708328  1  0  0.418718  0  0.883088  0  0  0.382786  0  0.961933  0  0  0.396872  0  0.942358  0  0  0.301089  0.37292  0  0.975618  0
H  H19  1  0.54366179  0.00517552  0.84291584  1  0  0.418711  0  0.883065  0  0  0.382839  0  0.961845  0  0  0.396924  0  0.942268  0  0  0.301082  0.372973  0  0.975532  0
H  H20  1  0.12000558  0.06824252  0.28430051  1  0  0.415629  0  0.896923  0  0  0.380651  0  0.969028  0  0  0.393691  0  0.950282  0  0  0.291654  0.371476  0  0.982188  0
H  H21  1  0.87999456  0.93175814  0.71570250  1  0  0.415682  0  0.896848  0  0  0.380725  0  0.96891  0  0  0.393766  0  0.950164  0  0  0.291652  0.371551  0  0.982072  0
Pb  Pb22  1  0.54079433  0.12589763  0.61259124  1  0  1.435374  0  1.425321  0  0  1.255833  0  1.847829  0  0  1.312928  0  1.798346  0  0  0.645652  1.214064  0  1.882873  0
Pb  Pb23  1  0.45920029  0.87409873  0.38740773  1  0  1.435386  0  1.425358  0  0  1.255845  0  1.847873  0  0  1.312937  0  1.798457  0  0  0.645649  1.214079  0  1.882926  0
C  C24  1  0.59708835  0.34305461  0.27563848  1  0  -0.178715  0  3.666605  0  0  -0.195293  0  3.923689  0  0  -0.206062  0  3.942871  0  0  -0.092708  -0.188453  0  3.910958  0
C  C25  1  0.40291145  0.65694518  0.72436040  1  0  -0.178726  0  3.666607  0  0  -0.195344  0  3.923726  0  0  -0.206112  0  3.942793  0  0  -0.092739  -0.1885  0  3.910996  0
C  C26  1  0.75578329  0.45233778  0.29851641  1  0  0.347129  0  3.752692  0  0  0.32924  0  4.017227  0  0  0.347843  0  4.029188  0  0  0.11632  0.316909  0  4.008616  0
C  C27  1  0.24421393  0.54766030  0.70148285  1  0  0.347105  0  3.752639  0  0  0.329254  0  4.017202  0  0  0.347725  0  4.029663  0  0  0.116309  0.316913  0  4.008606  0
C  C28  1  0.99339988  0.46284553  0.35914117  1  0  -0.044485  0  3.656958  0  0  -0.060601  0  3.905241  0  0  -0.06724  0  3.930001  0  0  0.070454  -0.053518  0  3.890914  0
C  C29  1  0.00659475  0.53715084  0.64085781  1  0  -0.044406  0  3.656928  0  0  -0.060616  0  3.905323  0  0  -0.071943  0  3.926856  0  0  0.070491  -0.053523  0  3.890987  0
C  C30  1  0.06445587  0.36923001  0.39670030  1  0  -0.059848  0  3.773147  0  0  -0.100603  0  4.044748  0  0  -0.092859  0  4.063635  0  0  -0.073632  -0.105113  0  4.031174  0
C  C31  1  0.93554134  0.63076807  0.60329963  1  0  -0.059796  0  3.773137  0  0  -0.100532  0  4.044761  0  0  -0.093019  0  4.06454  0  0  -0.073616  -0.105036  0  4.031178  0
C  C32  1  0.90256398  0.26392292  0.37268135  1  0  -0.244271  0  3.732917  0  0  -0.226195  0  4.013039  0  0  -0.242827  0  4.04022  0  0  -0.051611  -0.21533  0  3.994835  0
C  C33  1  0.09743520  0.73607515  0.62731663  1  0  -0.244342  0  3.732995  0  0  -0.226244  0  4.013091  0  0  -0.242879  0  4.040218  0  0  -0.051611  -0.215386  0  3.994893  0
C  C34  1  0.66889376  0.25057492  0.31178870  1  0  0.030685  0  3.727948  0  0  -0.004103  0  3.994909  0  0  0.004451  0  4.011725  0  0  -0.062903  -0.009374  0  3.983436  0
C  C35  1  0.33110376  0.74942401  0.68821001  1  0  0.030761  0  3.728  0  0  -0.004012  0  3.994943  0  0  0.004543  0  4.011686  0  0  -0.062846  -0.009277  0  3.98346  0
C  C36  1  0.95778082  0.24250083  0.05057306  1  0  -0.019054  0  3.64174  0  0  -0.059859  0  3.890391  0  0  -0.052179  0  3.904875  0  0  -0.057976  -0.064334  0  3.88033  0
C  C37  1  0.04222158  0.75750068  0.94942745  1  0  -0.019234  0  3.641636  0  0  -0.060058  0  3.890331  0  0  -0.052375  0  3.904819  0  0  -0.058103  -0.064541  0  3.88029  0
C  C38  1  0.89821559  0.29726435  0.97682741  1  0  -0.089268  0  3.760991  0  0  -0.062948  0  4.002842  0  0  -0.075745  0  4.026872  0  0  -0.016363  -0.054969  0  3.986631  0
C  C39  1  0.10178817  0.70273545  0.02317359  1  0  -0.089308  0  3.760929  0  0  -0.062958  0  4.002731  0  0  -0.075742  0  4.026747  0  0  -0.016379  -0.054982  0  3.986523  0
C  C40  1  0.00705217  0.26911390  0.89478325  1  0  -0.017449  0  3.62494  0  0  -0.061878  0  3.878183  0  0  -0.054143  0  3.892368  0  0  -0.058928  -0.066388  0  3.868348  0
C  C41  1  0.99295115  0.73089019  0.10521760  1  0  -0.01743  0  3.624985  0  0  -0.061895  0  3.878251  0  0  -0.054165  0  3.892445  0  0  -0.058952  -0.066393  0  3.8684  0
C  C42  1  0.17825133  0.18655570  0.88583018  1  0  -0.074401  0  3.72943  0  0  -0.046993  0  3.970142  0  0  -0.058379  0  3.992238  0  0  -0.016669  -0.040021  0  3.955401  0
C  C43  1  0.82175917  0.81345182  0.11417331  1  0  -0.074437  0  3.729478  0  0  -0.047002  0  3.970161  0  0  -0.058385  0  3.992257  0  0  -0.016611  -0.040038  0  3.955424  0
C  C44  1  0.24046765  0.13378655  0.96024542  1  0  -0.041925  0  3.660677  0  0  -0.086011  0  3.914713  0  0  -0.080441  0  3.932542  0  0  -0.067803  -0.089099  0  3.902431  0
C  C45  1  0.75953963  0.86621754  0.03975688  1  0  -0.041913  0  3.660789  0  0  -0.086003  0  3.914851  0  0  -0.080436  0  3.932686  0  0  -0.06786  -0.089092  0  3.902566  0
C  C46  1  0.13105659  0.16132360  0.04228053  1  0  -0.085506  0  3.760538  0  0  -0.06072  0  4.003575  0  0  -0.073292  0  4.027277  0  0  -0.016125  -0.052835  0  3.987676  0
C  C47  1  0.86894416  0.83867878  0.95772204  1  0  -0.08546  0  3.760447  0  0  -0.060764  0  4.003516  0  0  -0.07334  0  4.027226  0  0  -0.016074  -0.052879  0  3.987615  0
C  C48  1  0.20274191  0.10440097  0.12085937  1  0  0.67123  0  3.818433  0  0  0.616938  0  4.115251  0  0  0.651022  0  4.107682  0  0  0.239913  0.593845  0  4.119897  0
C  C49  1  0.79726048  0.89560054  0.87913913  1  0  0.671104  0  3.818708  0  0  0.617  0  4.115284  0  0  0.651083  0  4.107717  0  0  0.239999  0.593921  0  4.119916  0
C  C50  1  0.72126576  0.38651044  0.98755149  1  0  0.655163  0  3.819788  0  0  0.599709  0  4.122315  0  0  0.633151  0  4.115954  0  0  0.235305  0.577132  0  4.126046  0
C  C51  1  0.27874191  0.61348935  0.01244427  1  0  0.655347  0  3.820083  0  0  0.59994  0  4.122502  0  0  0.63337  0  4.116153  0  0  0.235388  0.577362  0  4.126243  0
C  C52  1  0.29235904  0.15784558  0.79684341  1  0  0.653649  0  3.900805  0  0  0.601286  0  4.192178  0  0  0.636034  0  4.186851  0  0  0.215144  0.577789  0  4.194876  0
C  C53  1  0.70764628  0.84215852  0.20316085  1  0  0.653603  0  3.901036  0  0  0.601246  0  4.192396  0  0  0.635995  0  4.18707  0  0  0.21513  0.577753  0  4.195085  0
N  N54  1  0.16839627  0.57024968  0.38470911  1  0  0.489691  0  3.947909  0  0  0.545994  0  4.199519  0  0  0.553278  0  4.232733  0  0  0.050969  0.530313  0  4.193883  0
N  N55  1  0.83160261  0.42974754  0.61529009  1  0  0.489668  0  3.94794  0  0  0.546015  0  4.199511  0  0  0.569485  0  4.207765  0  0  0.050938  0.530331  0  4.193871  0
O  O56  1  0.11787884  0.65183421  0.34454204  1  0  -0.419846  0  1.860397  0  0  -0.398616  0  2.078743  0  0  -0.410041  0  2.080509  0  0  -0.121712  -0.387187  0  2.082819  0
O  O57  1  0.88211837  0.34816387  0.65545656  1  0  -0.419891  0  1.860412  0  0  -0.39865  0  2.078729  0  0  -0.415594  0  2.07305  0  0  -0.121741  -0.387219  0  2.082804  0
O  O58  1  0.35994788  0.58035825  0.44373341  1  0  -0.327745  0  1.794635  0  0  -0.31727  0  1.994977  0  0  -0.322922  0  1.999946  0  0  -0.108722  -0.309632  0  1.99699  0
O  O59  1  0.64004902  0.41963897  0.55626440  1  0  -0.327736  0  1.794595  0  0  -0.317288  0  1.994944  0  0  -0.328518  0  1.992102  0  0  -0.108715  -0.309643  0  1.996948  0
O  O60  1  0.66842881  0.53776398  0.26309653  1  0  -0.454813  0  2.130128  0  0  -0.411775  0  2.345928  0  0  -0.43227  0  2.336056  0  0  -0.315806  -0.397256  0  2.352299  0
O  O61  1  0.33157266  0.46223496  0.73690229  1  0  -0.454821  0  2.130188  0  0  -0.411798  0  2.345959  0  0  -0.432314  0  2.336067  0  0  -0.315774  -0.397279  0  2.352336  0
O  O62  1  0.69527991  0.44021232  0.91753576  1  0  -0.528253  0  2.09943  0  0  -0.477742  0  2.316668  0  0  -0.500083  0  2.302934  0  0  -0.318615  -0.462296  0  2.325697  0
O  O63  1  0.30471928  0.55978576  0.08246356  1  0  -0.528327  0  2.099331  0  0  -0.477843  0  2.316539  0  0  -0.500183  0  2.30281  0  0  -0.318661  -0.46239  0  2.325563  0
O  O64  1  0.61061342  0.40716672  0.05849238  1  0  -0.565184  0  2.012973  0  0  -0.514594  0  2.234153  0  0  -0.538106  0  2.227725  0  0  -0.282372  -0.498493  0  2.238116  0
O  O65  1  0.38938596  0.59283737  0.94150970  1  0  -0.565268  0  2.013491  0  0  -0.514709  0  2.234687  0  0  -0.538212  0  2.228255  0  0  -0.282405  -0.498609  0  2.238663  0
O  O66  1  0.23803542  0.21374084  0.73432063  1  0  -0.635643  0  1.974734  0  0  -0.574176  0  2.208552  0  0  -0.60318  0  2.202097  0  0  -0.291841  -0.553752  0  2.212334  0
O  O67  1  0.76197095  0.78626068  0.26568267  1  0  -0.635679  0  1.974736  0  0  -0.574244  0  2.208597  0  0  -0.60325  0  2.202169  0  0  -0.291889  -0.553822  0  2.212378  0
O  O68  1  0.44092821  0.07856269  0.78575624  1  0  -0.669656  0  2.034139  0  0  -0.602649  0  2.265831  0  0  -0.632889  0  2.256286  0  0  -0.313576  -0.581397  0  2.271751  0
O  O69  1  0.55907909  0.92144141  0.21424807  1  0  -0.669565  0  2.034321  0  0  -0.602525  0  2.266017  0  0  -0.632762  0  2.256473  0  0  -0.313524  -0.581274  0  2.271933  0
O  O70  1  0.39805138  0.04431000  0.10788315  1  0  -0.55864  0  2.158086  0  0  -0.498996  0  2.384265  0  0  -0.523535  0  2.36786  0  0  -0.316726  -0.482028  0  2.395233  0
O  O71  1  0.60194155  0.95568721  0.89211320  1  0  -0.558608  0  2.158204  0  0  -0.499055  0  2.384281  0  0  -0.523586  0  2.367876  0  0  -0.316745  -0.482097  0  2.395249  0
O  O72  1  0.08587758  0.11634323  0.19086639  1  0  -0.578461  0  2.006781  0  0  -0.523743  0  2.23077  0  0  -0.547677  0  2.223097  0  0  -0.284523  -0.507254  0  2.235725  0
O  O73  1  0.91412846  0.88365742  0.80913344  1  0  -0.578384  0  2.006947  0  0  -0.523756  0  2.230886  0  0  -0.547692  0  2.223214  0  0  -0.284574  -0.507271  0  2.235837  0
O  O74  1  0.72456803  0.05807302  0.45575984  1  0  -0.921878  0  1.780943  0  0  -0.842385  0  2.057153  0  0  -0.87559  0  2.038584  0  0  -0.388678  -0.818477  0  2.069487  0
O  O75  1  0.27542266  0.94192336  0.54424170  1  0  -0.921816  0  1.780943  0  0  -0.842311  0  2.057129  0  0  -0.875516  0  2.038566  0  0  -0.388649  -0.818407  0  2.069468  0
O  O76  1  0.22668020  0.19678291  0.51827543  1  0  -0.862034  0  1.715338  0  0  -0.807144  0  1.991854  0  0  -0.837481  0  1.974356  0  0  -0.401193  -0.785172  0  2.003332  0
O  O77  1  0.77331037  0.80321861  0.48172808  1  0  -0.862061  0  1.715407  0  0  -0.80715  0  1.991902  0  0  -0.83749  0  1.974454  0  0  -0.401175  -0.785178  0  2.003384  0
O  O78  1  0.14038597  0.04498486  0.34673930  1  0  -0.800223  0  1.878282  0  0  -0.745611  0  2.116112  0  0  -0.76913  0  2.090235  0  0  -0.426041  -0.728877  0  2.134059  0
O  O79  1  0.85961613  0.95501580  0.65326176  1  0  -0.800292  0  1.878209  0  0  -0.745685  0  2.116046  0  0  -0.769203  0  2.090163  0  0  -0.426042  -0.728945  0  2.133991  0
