# generated using pymatgen
data_CuH16C13SN4(OF)3
_symmetry_space_group_name_H-M   'P 1'
_cell_length_a   8.96550277
_cell_length_b   9.36375767
_cell_length_c   11.92026765
_cell_angle_alpha   80.32697941
_cell_angle_beta   69.16049639
_cell_angle_gamma   62.50392597
_symmetry_Int_Tables_number   1
_chemical_formula_structural   CuH16C13SN4(OF)3
_chemical_formula_sum   'Cu2 H32 C26 S2 N8 O6 F6'
_cell_volume   829.59761338
_cell_formula_units_Z   2
loop_
 _symmetry_equiv_pos_site_id
 _symmetry_equiv_pos_as_xyz
  1  'x, y, z'
loop_
 _atom_site_type_symbol
 _atom_site_label
 _atom_site_symmetry_multiplicity
 _atom_site_fract_x
 _atom_site_fract_y
 _atom_site_fract_z
 _atom_site_occupancy
 _atom_site_hle17_bader_spin_density
 _atom_site_hle17_ddec_charge
 _atom_site_hle17_ddec_spin_density
 _atom_site_hle17_ddec_sum_bond_order
 _atom_site_hle17_magmom
 _atom_site_hse06_10hf_bader_spin_density
 _atom_site_hse06_10hf_ddec_charge
 _atom_site_hse06_10hf_ddec_spin_density
 _atom_site_hse06_10hf_ddec_sum_bond_order
 _atom_site_hse06_10hf_magmom
 _atom_site_hse06_bader_spin_density
 _atom_site_hse06_ddec_charge
 _atom_site_hse06_ddec_spin_density
 _atom_site_hse06_ddec_sum_bond_order
 _atom_site_hse06_magmom
 _atom_site_pbe_bader_spin_density
 _atom_site_pbe_cm5_charge
 _atom_site_pbe_ddec_charge
 _atom_site_pbe_ddec_spin_density
 _atom_site_pbe_ddec_sum_bond_order
 _atom_site_pbe_magmom
Cu  Cu0  1  0.15761931  0.67375659  0.74489085  1  0  0.513121  0  1.832443  0  0  0.410653  0  2.280501  0  0  0.394684  0  2.249262  0  0  0.606133  0.424743  0  2.298564  0
Cu  Cu1  1  0.84238370  0.32623282  0.25510914  1  0  0.51314  0  1.832745  0  0  0.410626  0  2.280856  0  0  0.394641  0  2.249614  0  0  0.60621  0.424716  0  2.298934  0
H  H2  1  0.81825906  0.67326099  0.87771902  1  0  0.108394  0  0.954284  0  0  0.116036  0  1.020204  0  0  0.119608  0  1.01696  0  0  0.119506  0.113344  0  1.022767  0
H  H3  1  0.18173471  0.32674286  0.12229162  1  0  0.108373  0  0.954268  0  0  0.11601  0  1.020188  0  0  0.119581  0  1.016947  0  0  0.119516  0.113321  0  1.022749  0
H  H4  1  0.37811151  0.55177302  0.91890339  1  0  0.140298  0  0.958648  0  0  0.160996  0  1.017514  0  0  0.162691  0  1.016935  0  0  0.098719  0.15959  0  1.01814  0
H  H5  1  0.62187341  0.44823689  0.08110547  1  0  0.140341  0  0.958509  0  0  0.161028  0  1.017392  0  0  0.162722  0  1.016813  0  0  0.098716  0.159621  0  1.018018  0
H  H6  1  0.43073109  0.35488680  0.98501475  1  0  0.134529  0  0.960929  0  0  0.151336  0  1.02446  0  0  0.153097  0  1.023998  0  0  0.092745  0.149999  0  1.024712  0
H  H7  1  0.56926808  0.64511824  0.01499008  1  0  0.134527  0  0.960922  0  0  0.151376  0  1.024404  0  0  0.153139  0  1.023937  0  0  0.092731  0.15003  0  1.024665  0
H  H8  1  0.43109929  0.38939308  0.83265845  1  0  0.124703  0  0.953486  0  0  0.140815  0  1.025712  0  0  0.142671  0  1.024516  0  0  0.09411  0.139405  0  1.026695  0
H  H9  1  0.56889468  0.61062039  0.16734751  1  0  0.124659  0  0.953475  0  0  0.140792  0  1.025689  0  0  0.142651  0  1.02449  0  0  0.094094  0.139383  0  1.026673  0
H  H10  1  0.44051433  0.74841080  0.58056058  1  0  0.094309  0  0.984383  0  0  0.101225  0  1.051915  0  0  0.104525  0  1.048864  0  0  0.116164  0.098868  0  1.054136  0
H  H11  1  0.55948685  0.25157742  0.41943503  1  0  0.094261  0  0.984431  0  0  0.101246  0  1.051868  0  0  0.104548  0  1.048812  0  0  0.116161  0.098886  0  1.054095  0
H  H12  1  0.33550178  0.22172534  0.58904067  1  0  0.139306  0  0.943438  0  0  0.162118  0  0.997127  0  0  0.16375  0  0.996597  0  0  0.100054  0.160906  0  0.997604  0
H  H13  1  0.66448230  0.77827377  0.41096648  1  0  0.139326  0  0.943402  0  0  0.162136  0  0.997105  0  0  0.163739  0  0.996617  0  0  0.100051  0.160926  0  0.997582  0
H  H14  1  0.30060063  0.30888488  0.72239877  1  0  0.130761  0  0.955257  0  0  0.145269  0  1.02692  0  0  0.147319  0  1.025694  0  0  0.094865  0.143755  0  1.027814  0
H  H15  1  0.69938827  0.69111661  0.27760090  1  0  0.130776  0  0.955233  0  0  0.14527  0  1.026915  0  0  0.147318  0  1.025687  0  0  0.09484  0.143757  0  1.027807  0
H  H16  1  0.14837665  0.40998035  0.64170493  1  0  0.107203  0  0.974744  0  0  0.127127  0  1.042433  0  0  0.129247  0  1.040768  0  0  0.091354  0.125964  0  1.042385  0
H  H17  1  0.85162666  0.59002347  0.35829056  1  0  0.107325  0  0.974707  0  0  0.127252  0  1.042357  0  0  0.129373  0  1.040686  0  0  0.09138  0.126091  0  1.042306  0
H  H18  1  0.68859468  0.04852307  0.55067967  1  0  0.090062  0  0.93789  0  0  0.1005  0  0.998542  0  0  0.102708  0  0.997748  0  0  0.114815  0.098768  0  0.999507  0
H  H19  1  0.31141113  0.95148554  0.44931703  1  0  0.090095  0  0.937787  0  0  0.100475  0  0.998515  0  0  0.102681  0  0.997724  0  0  0.114825  0.098744  0  0.99948  0
H  H20  1  0.03209835  0.01090597  0.79809542  1  0  0.098715  0  0.968618  0  0  0.103103  0  1.038297  0  0  0.106722  0  1.034499  0  0  0.112511  0.10034  0  1.04149  0
H  H21  1  0.96790810  0.98907621  0.20190711  1  0  0.098725  0  0.968506  0  0  0.103142  0  1.038165  0  0  0.106765  0  1.034354  0  0  0.112498  0.10038  0  1.041359  0
H  H22  1  0.88413949  0.66040325  0.65919621  1  0  0.123571  0  0.96066  0  0  0.142964  0  1.027302  0  0  0.145016  0  1.025148  0  0  0.096422  0.143266  0  1.025065  0
H  H23  1  0.11586604  0.33959336  0.34079124  1  0  0.123782  0  0.960531  0  0  0.14307  0  1.027253  0  0  0.145119  0  1.025103  0  0  0.096458  0.143372  0  1.025016  0
H  H24  1  0.05729482  0.67385024  0.53026256  1  0  0.120827  0  0.956768  0  0  0.141039  0  1.019701  0  0  0.141933  0  1.020082  0  0  0.094342  0.140114  0  1.020023  0
H  H25  1  0.94270613  0.32615600  0.46972821  1  0  0.120782  0  0.95679  0  0  0.141004  0  1.019701  0  0  0.1419  0  1.020077  0  0  0.094326  0.14008  0  1.020029  0
H  H26  1  0.83282910  0.76465554  0.52974659  1  0  0.125883  0  0.948388  0  0  0.150731  0  1.001357  0  0  0.151165  0  1.002409  0  0  0.098734  0.150196  0  1.001136  0
H  H27  1  0.16717420  0.23534828  0.47024303  1  0  0.125927  0  0.948462  0  0  0.150789  0  1.001384  0  0  0.151223  0  1.002439  0  0  0.098749  0.150254  0  1.001161  0
H  H28  1  0.70047131  0.42780326  0.73581938  1  0  0.129509  0  0.947911  0  0  0.148679  0  1.010164  0  0  0.15044  0  1.00987  0  0  0.097168  0.147503  0  1.009853  0
H  H29  1  0.29954136  0.57218847  0.26419364  1  0  0.129372  0  0.948082  0  0  0.148578  0  1.01032  0  0  0.15034  0  1.010023  0  0  0.097098  0.1474  0  1.010006  0
H  H30  1  0.79469069  0.31886223  0.85070210  1  0  0.130804  0  0.926737  0  0  0.155473  0  0.977563  0  0  0.156405  0  0.978279  0  0  0.099264  0.154119  0  0.97777  0
H  H31  1  0.20532707  0.68111628  0.14930795  1  0  0.130819  0  0.926722  0  0  0.155527  0  0.977467  0  0  0.156459  0  0.978185  0  0  0.099276  0.15417  0  0.977678  0
H  H32  1  0.93304510  0.34388580  0.70821433  1  0  0.110817  0  0.960883  0  0  0.133955  0  1.021769  0  0  0.134273  0  1.022987  0  0  0.092783  0.13451  0  1.018207  0
H  H33  1  0.06696860  0.65609873  0.29179518  1  0  0.11079  0  0.960716  0  0  0.133888  0  1.021666  0  0  0.134204  0  1.022884  0  0  0.092773  0.13444  0  1.018112  0
C  C34  1  0.32066162  0.01934675  0.89935783  1  0  0.597484  0  3.665082  0  0  0.523707  0  4.040967  0  0  0.551584  0  4.014354  0  0  0.287554  0.503514  0  4.060522  0
C  C35  1  0.67932993  0.98066674  0.10063703  1  0  0.597714  0  3.66458  0  0  0.523681  0  4.040956  0  0  0.551542  0  4.014374  0  0  0.28762  0.503518  0  4.06046  0
C  C36  1  0.90061161  0.59471537  0.93226385  1  0  0.015241  0  3.636187  0  0  -0.025352  0  3.898355  0  0  -0.022423  0  3.910192  0  0  0.037571  -0.027583  0  3.890895  0
C  C37  1  0.09938208  0.40528610  0.06773789  1  0  0.015126  0  3.636476  0  0  -0.025459  0  3.898635  0  0  -0.022522  0  3.910462  0  0  0.037504  -0.027691  0  3.891178  0
C  C38  1  0.17387427  0.47401156  0.96337462  1  0  0.272649  0  3.698474  0  0  0.276694  0  3.951485  0  0  0.281277  0  3.969804  0  0  0.117718  0.273218  0  3.9394  0
C  C39  1  0.82612121  0.52598869  0.03663351  1  0  0.272656  0  3.698282  0  0  0.276733  0  3.95125  0  0  0.28132  0  3.969569  0  0  0.117793  0.273256  0  3.939165  0
C  C40  1  0.36448969  0.44008009  0.92372789  1  0  -0.394581  0  3.703879  0  0  -0.479975  0  3.944366  0  0  -0.482586  0  3.951441  0  0  -0.248541  -0.477749  0  3.93937  0
C  C41  1  0.63550057  0.55992859  0.07627550  1  0  -0.394602  0  3.70373  0  0  -0.480073  0  3.94418  0  0  -0.482687  0  3.951251  0  0  -0.248535  -0.477836  0  3.939196  0
C  C42  1  0.46790123  0.63610647  0.54469486  1  0  0.02902  0  3.648393  0  0  -0.01066  0  3.909638  0  0  -0.00735  0  3.920975  0  0  0.041057  -0.013315  0  3.902714  0
C  C43  1  0.53211009  0.36388050  0.45529986  1  0  0.028905  0  3.648309  0  0  -0.010754  0  3.909498  0  0  -0.007441  0  3.920834  0  0  0.041074  -0.013408  0  3.902569  0
C  C44  1  0.39648462  0.42414830  0.56243050  1  0  0.262933  0  3.726706  0  0  0.267571  0  3.980267  0  0  0.272408  0  3.997483  0  0  0.117751  0.263866  0  3.969397  0
C  C45  1  0.60352441  0.57584348  0.43756504  1  0  0.262929  0  3.726747  0  0  0.267657  0  3.980226  0  0  0.272496  0  3.997437  0  0  0.117797  0.263948  0  3.969359  0
C  C46  1  0.28964224  0.33597331  0.63164796  1  0  -0.38596  0  3.71972  0  0  -0.473424  0  3.96273  0  0  -0.475462  0  3.968122  0  0  -0.242544  -0.47174  0  3.959232  0
C  C47  1  0.71035972  0.66402331  0.36834968  1  0  -0.38619  0  3.719712  0  0  -0.473659  0  3.96273  0  0  -0.475676  0  3.968134  0  0  -0.242543  -0.471974  0  3.959231  0
C  C48  1  0.88784920  0.89076696  0.63188553  1  0  0.253802  0  3.716784  0  0  0.2586  0  3.968975  0  0  0.262548  0  3.989312  0  0  0.114512  0.256185  0  3.955351  0
C  C49  1  0.11214922  0.10923208  0.36810939  1  0  0.254036  0  3.716599  0  0  0.258724  0  3.968854  0  0  0.262672  0  3.989192  0  0  0.114603  0.256309  0  3.955233  0
C  C50  1  0.76741324  0.04169691  0.60495375  1  0  0.026846  0  3.689602  0  0  -0.001656  0  3.94828  0  0  -0.001531  0  3.967275  0  0  0.044502  -0.002705  0  3.936321  0
C  C51  1  0.23259065  0.95830570  0.39504594  1  0  0.026708  0  3.689351  0  0  -0.001741  0  3.948085  0  0  -0.001612  0  3.967074  0  0  0.04444  -0.00279  0  3.936125  0
C  C52  1  0.83659836  0.17132806  0.71142474  1  0  0.250688  0  3.740238  0  0  0.264401  0  3.990612  0  0  0.267303  0  4.011629  0  0  0.119998  0.262301  0  3.976901  0
C  C53  1  0.16340950  0.82866371  0.28857951  1  0  0.250501  0  3.740416  0  0  0.264164  0  3.990892  0  0  0.267061  0  4.011914  0  0  0.119868  0.262067  0  3.977176  0
C  C54  1  0.95566864  0.02143449  0.74127215  1  0  0.032391  0  3.637231  0  0  -0.006361  0  3.892011  0  0  -0.002648  0  3.90482  0  0  0.038855  -0.009958  0  3.884671  0
C  C55  1  0.04433796  0.97855489  0.25873023  1  0  0.032427  0  3.637201  0  0  -0.006355  0  3.891952  0  0  -0.002644  0  3.904771  0  0  0.038915  -0.009946  0  3.884598  0
C  C56  1  0.91772361  0.73852499  0.58482309  1  0  -0.381453  0  3.722501  0  0  -0.468177  0  3.960897  0  0  -0.469195  0  3.967839  0  0  -0.242975  -0.467747  0  3.954984  0
C  C57  1  0.08228021  0.26147523  0.41516854  1  0  -0.381702  0  3.722532  0  0  -0.468326  0  3.960966  0  0  -0.469347  0  3.967911  0  0  -0.243009  -0.467897  0  3.95505  0
C  C58  1  0.81379528  0.32410757  0.75410652  1  0  -0.364226  0  3.696925  0  0  -0.4457  0  3.926966  0  0  -0.448787  0  3.937244  0  0  -0.236422  -0.442874  0  3.917962  0
C  C59  1  0.18621383  0.67588660  0.24590211  1  0  -0.36403  0  3.696918  0  0  -0.445519  0  3.926982  0  0  -0.448608  0  3.937266  0  0  -0.236339  -0.442691  0  3.917973  0
S  S60  1  0.41518955  0.85564854  0.78913348  1  0  1.111793  0  5.847132  0  0  1.009622  0  6.388424  0  0  1.051852  0  6.369274  0  0  0.485586  0.980655  0  6.400901  0
S  S61  1  0.58480913  0.14436251  0.21086314  1  0  1.111932  0  5.846849  0  0  1.009875  0  6.388117  0  0  1.052107  0  6.36897  0  0  0.485746  0.980901  0  6.400587  0
N  N62  1  0.07130853  0.57074414  0.89482346  1  0  -0.300015  0  3.329507  0  0  -0.239357  0  3.633136  0  0  -0.241346  0  3.636807  0  0  -0.354476  -0.238505  0  3.630633  0
N  N63  1  0.92868748  0.42925250  0.10518584  1  0  -0.299926  0  3.329553  0  0  -0.239228  0  3.633096  0  0  -0.241214  0  3.636756  0  0  -0.354445  -0.238378  0  3.630605  0
N  N64  1  0.36352172  0.56349822  0.60734863  1  0  -0.305207  0  3.351229  0  0  -0.246156  0  3.657199  0  0  -0.247747  0  3.659766  0  0  -0.358219  -0.245496  0  3.65551  0
N  N65  1  0.63649314  0.43648633  0.39264379  1  0  -0.305104  0  3.351159  0  0  -0.246113  0  3.657162  0  0  -0.247705  0  3.659732  0  0  -0.358312  -0.245446  0  3.65547  0
N  N66  1  0.98188364  0.88217156  0.70246117  1  0  -0.306967  0  3.327656  0  0  -0.242665  0  3.622736  0  0  -0.248124  0  3.629794  0  0  -0.349248  -0.239552  0  3.617935  0
N  N67  1  0.01811822  0.11782025  0.29753714  1  0  -0.307131  0  3.327739  0  0  -0.242711  0  3.62279  0  0  -0.248168  0  3.629842  0  0  -0.349318  -0.239599  0  3.617996  0
N  N68  1  0.74089219  0.18066365  0.64315755  1  0  -0.307679  0  3.036955  0  0  -0.278578  0  3.301278  0  0  -0.286161  0  3.318654  0  0  -0.306585  -0.27367  0  3.290176  0
N  N69  1  0.25911697  0.81933292  0.35684487  1  0  -0.307528  0  3.036861  0  0  -0.278402  0  3.301162  0  0  -0.285983  0  3.318538  0  0  -0.306511  -0.273495  0  3.290057  0
O  O70  1  0.27664319  0.79896905  0.82678046  1  0  -0.627597  0  2.085193  0  0  -0.584771  0  2.363029  0  0  -0.599696  0  2.345269  0  0  -0.341158  -0.574703  0  2.374729  0
O  O71  1  0.72337184  0.20102269  0.17321935  1  0  -0.627665  0  2.08513  0  0  -0.584864  0  2.362981  0  0  -0.599789  0  2.345218  0  0  -0.341255  -0.574796  0  2.374683  0
O  O72  1  0.58029703  0.74144188  0.81082701  1  0  -0.600198  0  2.000475  0  0  -0.561258  0  2.248503  0  0  -0.581153  0  2.238855  0  0  -0.33073  -0.547403  0  2.253996  0
O  O73  1  0.41971320  0.25857751  0.18916457  1  0  -0.600138  0  2.000502  0  0  -0.561246  0  2.248548  0  0  -0.581136  0  2.238891  0  0  -0.330684  -0.547391  0  2.254044  0
O  O74  1  0.43310751  0.93792188  0.67323507  1  0  -0.602889  0  1.966548  0  0  -0.568018  0  2.212986  0  0  -0.587188  0  2.202642  0  0  -0.338585  -0.55424  0  2.219284  0
O  O75  1  0.56687567  0.06209165  0.32676371  1  0  -0.60306  0  1.966415  0  0  -0.568179  0  2.212798  0  0  -0.587345  0  2.202446  0  0  -0.338724  -0.5544  0  2.219099  0
F  F76  1  0.43111893  0.08935642  0.87916632  1  0  -0.232212  0  1.218591  0  0  -0.18576  0  1.386494  0  0  -0.196335  0  1.373043  0  0  -0.090064  -0.178129  0  1.395653  0
F  F77  1  0.56884142  0.91068247  0.12082098  1  0  -0.232237  0  1.218341  0  0  -0.185786  0  1.386401  0  0  -0.196357  0  1.372952  0  0  -0.090066  -0.178164  0  1.395546  0
F  F78  1  0.16125882  0.13663639  0.89191441  1  0  -0.237969  0  1.186376  0  0  -0.187596  0  1.344123  0  0  -0.198392  0  1.33092  0  0  -0.093884  -0.179833  0  1.353435  0
F  F79  1  0.83870792  0.86336402  0.10809135  1  0  -0.238072  0  1.186251  0  0  -0.187588  0  1.344054  0  0  -0.19838  0  1.330859  0  0  -0.09393  -0.179832  0  1.353355  0
F  F80  1  0.29392355  0.96139698  0.01341558  1  0  -0.228633  0  1.21652  0  0  -0.187117  0  1.38608  0  0  -0.197071  0  1.371499  0  0  -0.091388  -0.179903  0  1.396317  0
F  F81  1  0.70608231  0.03861403  0.98658079  1  0  -0.228641  0  1.216499  0  0  -0.187067  0  1.386175  0  0  -0.197016  0  1.371602  0  0  -0.091371  -0.179858  0  1.396402  0
