# generated using pymatgen
data_Cu4H8C21N8
_symmetry_space_group_name_H-M   'P 1'
_cell_length_a   20.88679493
_cell_length_b   21.05348995
_cell_length_c   21.27324511
_cell_angle_alpha   89.72495527
_cell_angle_beta   90.05536757
_cell_angle_gamma   89.78775341
_symmetry_Int_Tables_number   1
_chemical_formula_structural   Cu4H8C21N8
_chemical_formula_sum   'Cu12 H24 C63 N24'
_cell_volume   9354.51875635
_cell_formula_units_Z   3
loop_
 _symmetry_equiv_pos_site_id
 _symmetry_equiv_pos_as_xyz
  1  'x, y, z'
loop_
 _atom_site_type_symbol
 _atom_site_label
 _atom_site_symmetry_multiplicity
 _atom_site_fract_x
 _atom_site_fract_y
 _atom_site_fract_z
 _atom_site_occupancy
 _atom_site_pbe_bader_charge
 _atom_site_pbe_bader_spin_density
 _atom_site_pbe_cm5_charge
 _atom_site_pbe_ddec_charge
 _atom_site_pbe_ddec_spin_density
 _atom_site_pbe_ddec_sum_bond_order
 _atom_site_pbe_magmom
Cu  Cu0  1  0.75698637  0.75610689  0.85751110  1  0.548589  0  0.490526  0.210187  0  2.108521  0
Cu  Cu1  1  0.86672796  0.75684536  0.75473140  1  0.541575  0  0.489269  0.211659  0  2.096418  0
Cu  Cu2  1  0.75940424  0.86605132  0.75546802  1  0.53698  0  0.489883  0.210914  0  2.100776  0
Cu  Cu3  1  0.75753713  0.24227185  0.13838203  1  0.53667  0  0.490678  0.210485  0  2.107011  0
Cu  Cu4  1  0.86443699  0.24433790  0.24458078  1  0.535213  0  0.489811  0.212024  0  2.09785  0
Cu  Cu5  1  0.75906040  0.13495770  0.24367640  1  0.528267  0  0.49033  0.21106  0  2.10181  0
Cu  Cu6  1  0.24063636  0.75954147  0.13524937  1  0.535787  0  0.490382  0.210332  0  2.106938  0
Cu  Cu7  1  0.13071696  0.76305359  0.23779107  1  0.536818  0  0.489192  0.210977  0  2.09868  0
Cu  Cu8  1  0.24498550  0.86332806  0.24309395  1  0.558216  0  0.490073  0.211753  0  2.098521  0
Cu  Cu9  1  0.23978738  0.23934276  0.86661192  1  0.542814  0  0.490878  0.210184  0  2.109181  0
Cu  Cu10  1  0.13100136  0.23864043  0.76258472  1  0.563945  0  0.489686  0.210738  0  2.1001  0
Cu  Cu11  1  0.24448369  0.13639761  0.75836741  1  0.540146  0  0.489757  0.21192  0  2.098744  0
H  H12  1  0.80358922  0.64291136  0.94487471  1  0.113905  0  0.126551  0.121006  0  0.979347  0
H  H13  1  0.95531989  0.64387017  0.80612186  1  0.083919  0  0.126833  0.120983  0  0.979552  0
H  H14  1  0.64799715  0.95590844  0.80742102  1  0.1041  0  0.126709  0.120601  0  0.979838  0
H  H15  1  0.64437072  0.80380248  0.94527950  1  0.120736  0  0.126776  0.121101  0  0.979474  0
H  H16  1  0.95532147  0.80660113  0.64407622  1  0.105382  0  0.126608  0.12099  0  0.980759  0
H  H17  1  0.81016073  0.95414011  0.64536796  1  0.099694  0  0.126601  0.120654  0  0.979909  0
H  H18  1  0.80518629  0.35461592  0.05059032  1  0.120249  0  0.126605  0.120647  0  0.980184  0
H  H19  1  0.95103885  0.35843095  0.19544132  1  0.114824  0  0.126809  0.121055  0  0.979978  0
H  H20  1  0.64772199  0.04516137  0.19368520  1  0.094921  0  0.126629  0.120171  0  0.980106  0
H  H21  1  0.64644553  0.19187801  0.05017201  1  0.1102  0  0.126624  0.120851  0  0.979677  0
H  H22  1  0.95316139  0.19611735  0.35654968  1  0.119512  0  0.12666  0.120815  0  0.979804  0
H  H23  1  0.80996567  0.04773007  0.35495581  1  0.102604  0  0.126511  0.120368  0  0.980547  0
H  H24  1  0.19295610  0.64586088  0.04979673  1  0.122112  0  0.126612  0.120729  0  0.979656  0
H  H25  1  0.04010602  0.65261391  0.18724048  1  0.114991  0  0.126767  0.120925  0  0.979198  0
H  H26  1  0.36128434  0.94841723  0.19535310  1  0.122347  0  0.126519  0.12048  0  0.979803  0
H  H27  1  0.35277435  0.80808827  0.04730889  1  0.117394  0  0.126528  0.120198  0  0.979381  0
H  H28  1  0.04242218  0.81536027  0.34743846  1  0.105797  0  0.126733  0.121384  0  0.979934  0
H  H29  1  0.20052607  0.94750343  0.35861111  1  0.108673  0  0.126524  0.120505  0  0.979905  0
H  H30  1  0.19224025  0.35282482  0.95239114  1  0.111901  0  0.126691  0.121224  0  0.979649  0
H  H31  1  0.04122309  0.35065503  0.81264970  1  0.08481  0  0.126841  0.121134  0  0.979754  0
H  H32  1  0.36063582  0.04994709  0.80614299  1  0.110486  0  0.126753  0.120648  0  0.980186  0
H  H33  1  0.35071235  0.18852677  0.95574902  1  0.116365  0  0.126618  0.120446  0  0.980186  0
H  H34  1  0.04289421  0.18741044  0.65245253  1  0.079274  0  0.126431  0.120366  0  0.979304  0
H  H35  1  0.20025790  0.05317508  0.64236016  1  0.117396  0  0.126426  0.120743  0  0.980586  0
C  C36  1  0.83487135  0.65126481  0.90506313  1  0.435533  0  0.016548  -0.048262  0  3.92739  0
C  C37  1  0.89396702  0.62251830  0.89069331  1  0.109993  0  -0.026257  0.050805  0  4.191927  0
C  C38  1  0.91259340  0.65181436  0.83397925  1  0.438773  0  0.017235  -0.046662  0  3.92403  0
C  C39  1  0.65521428  0.91305605  0.83505719  1  0.432436  0  0.017109  -0.047196  0  3.924418  0
C  C40  1  0.62546496  0.89447681  0.89156923  1  0.102922  0  -0.026598  0.050766  0  4.192199  0
C  C41  1  0.65332276  0.83512817  0.90567994  1  0.43008  0  0.016357  -0.048793  0  3.928421  0
C  C42  1  0.91408221  0.83682315  0.65240895  1  0.364325  0  0.016406  -0.048501  0  3.926893  0
C  C43  1  0.89762940  0.89509790  0.62381312  1  0.129359  0  -0.026704  0.049989  0  4.18931  0
C  C44  1  0.83973685  0.91239124  0.65306435  1  0.485287  0  0.017107  -0.046926  0  3.925217  0
C  C45  1  0.83505055  0.34743007  0.09172701  1  0.418339  0  0.016275  -0.04838  0  3.926059  0
C  C46  1  0.89265822  0.37762208  0.10820299  1  0.136265  0  -0.026288  0.050284  0  4.189295  0
C  C47  1  0.90974756  0.34931918  0.16595310  1  0.427586  0  0.016622  -0.047984  0  3.925229  0
C  C48  1  0.65549000  0.08681584  0.16452850  1  0.415106  0  0.017025  -0.046547  0  3.924907  0
C  C49  1  0.62636277  0.10362489  0.10707219  1  0.120393  0  -0.026192  0.049735  0  4.191902  0
C  C50  1  0.65481112  0.16198419  0.09101890  1  0.438568  0  0.017019  -0.047421  0  3.926432  0
C  C51  1  0.91233930  0.16562961  0.34809204  1  0.388937  0  0.017082  -0.046741  0  3.924488  0
C  C52  1  0.89654589  0.10735079  0.37679640  1  0.158286  0  -0.026217  0.04945  0  4.18898  0
C  C53  1  0.83899823  0.08963533  0.34728493  1  0.410522  0  0.016675  -0.047054  0  3.925985  0
C  C54  1  0.16134623  0.65570931  0.08899014  1  0.432978  0  0.017004  -0.047361  0  3.92615  0
C  C55  1  0.10214984  0.62782478  0.10416437  1  0.078869  0  -0.026886  0.048518  0  4.189742  0
C  C56  1  0.08306938  0.65922492  0.15940880  1  0.407394  0  0.017721  -0.045895  0  3.924278  0
C  C57  1  0.35092932  0.90847365  0.16504565  1  0.478368  0  0.016705  -0.047401  0  3.925908  0
C  C58  1  0.37830210  0.89271818  0.10668096  1  0.100998  0  -0.026286  0.050183  0  4.190872  0
C  C59  1  0.34661702  0.83661113  0.08919229  1  0.396651  0  0.017429  -0.045498  0  3.925396  0
C  C60  1  0.08652625  0.84180973  0.34195492  1  0.472742  0  0.016505  -0.048822  0  3.925427  0
C  C61  1  0.10738190  0.89608208  0.37443825  1  0.045941  0  -0.026559  0.050313  0  4.18697  0
C  C62  1  0.16749063  0.90950367  0.34770573  1  0.469536  0  0.016542  -0.047357  0  3.924909  0
C  C63  1  0.16107989  0.34404290  0.91262002  1  0.41454  0  0.016799  -0.048187  0  3.928004  0
C  C64  1  0.10235154  0.37311489  0.89703312  1  0.108543  0  -0.026705  0.04972  0  4.189975  0
C  C65  1  0.08372545  0.34290801  0.84101996  1  0.48511  0  0.016689  -0.047652  0  3.925063  0
C  C66  1  0.34994443  0.08954979  0.83683924  1  0.431984  0  0.016978  -0.047068  0  3.925534  0
C  C67  1  0.37689276  0.10454205  0.89559734  1  0.127149  0  -0.026827  0.049668  0  4.191867  0
C  C68  1  0.34488673  0.16055188  0.91348293  1  0.424206  0  0.017009  -0.047244  0  3.927416  0
C  C69  1  0.08682032  0.16038936  0.65823464  1  0.479277  0  0.017622  -0.046026  0  3.923004  0
C  C70  1  0.10749692  0.10581136  0.62593090  1  0.099065  0  -0.026597  0.050052  0  4.189311  0
C  C71  1  0.16739826  0.09161178  0.65305122  1  0.395657  0  0.016877  -0.048054  0  3.927603  0
C  C72  1  0.00366843  0.00119846  0.50025095  1  0.285728  0  0.0656  0.326132  0  4.091397  0
C  C73  1  0.99859697  0.50037414  0.00093764  1  0.332496  0  0.065389  0.327696  0  4.093679  0
C  C74  1  0.50259076  0.99840102  0.00073519  1  0.296412  0  0.064802  0.327073  0  4.098092  0
C  C75  1  0.92817808  0.57756924  0.92679234  1  -0.398936  0  -0.049976  -0.087535  0  4.179793  0
C  C76  1  0.95840191  0.54070612  0.95951065  1  0.151553  0  -0.045995  -0.120468  0  3.977098  0
C  C77  1  0.92708997  0.42295108  0.07315980  1  -0.136721  0  -0.049581  -0.086128  0  4.180622  0
C  C78  1  0.95789991  0.46016763  0.04168640  1  -0.142796  0  -0.046517  -0.121598  0  3.976683  0
C  C79  1  0.06847771  0.58131317  0.07027359  1  -0.270463  0  -0.048967  -0.084884  0  4.178507  0
C  C80  1  0.03866325  0.54250908  0.04006147  1  0.014176  0  -0.047207  -0.123025  0  3.975125  0
C  C81  1  0.06867919  0.41949657  0.93132627  1  -0.433742  0  -0.049379  -0.087024  0  4.178216  0
C  C82  1  0.03899561  0.45808765  0.96212243  1  0.151865  0  -0.046308  -0.120125  0  3.973267  0
C  C83  1  0.58069042  0.92870208  0.92757109  1  -0.360825  0  -0.049303  -0.087401  0  4.182875  0
C  C84  1  0.54371429  0.95884450  0.95994711  1  0.113542  0  -0.046066  -0.120077  0  3.978834  0
C  C85  1  0.42277092  0.06983394  0.93020926  1  -0.138929  0  -0.049453  -0.087255  0  4.180085  0
C  C86  1  0.46067649  0.03903179  0.96128569  1  -0.146361  0  -0.046086  -0.119831  0  3.977485  0
C  C87  1  0.58137524  0.06879740  0.07211087  1  -0.410755  0  -0.049648  -0.085391  0  4.180799  0
C  C88  1  0.54408255  0.03812497  0.04076835  1  0.167532  0  -0.04651  -0.122565  0  3.980253  0
C  C89  1  0.42404793  0.92706160  0.07194944  1  -0.48574  0  -0.049537  -0.087195  0  4.17974  0
C  C90  1  0.46161444  0.95775776  0.04071398  1  0.192403  0  -0.046473  -0.120765  0  3.97592  0
C  C91  1  0.93248162  0.92971278  0.57862109  1  -0.553877  0  -0.050033  -0.087661  0  4.178289  0
C  C92  1  0.96329772  0.96065478  0.54105192  1  0.305577  0  -0.04626  -0.120073  0  3.973815  0
C  C93  1  0.07404923  0.93062259  0.42065476  1  -0.440195  0  -0.049122  -0.086899  0  4.177066  0
C  C94  1  0.04399648  0.96121024  0.45898517  1  0.165818  0  -0.046657  -0.120256  0  3.97246  0
C  C95  1  0.07412653  0.07154043  0.57965851  1  -0.383829  0  -0.049217  -0.086184  0  4.176856  0
C  C96  1  0.04405598  0.04110287  0.54134093  1  0.121267  0  -0.047142  -0.121613  0  3.971953  0
C  C97  1  0.93174486  0.07292506  0.42215488  1  -0.352435  0  -0.049417  -0.086093  0  4.176285  0
C  C98  1  0.96287926  0.04190322  0.45965253  1  0.119758  0  -0.046773  -0.121195  0  3.973277  0
N  N99  1  0.86810597  0.69486980  0.81645346  1  -0.799131  0  -0.33535  -0.142392  0  3.769634  0
N  N100  1  0.81993576  0.69448159  0.86052584  1  -0.762897  0  -0.335835  -0.140206  0  3.773247  0
N  N101  1  0.69640248  0.81996147  0.86114671  1  -0.763079  0  -0.33613  -0.140226  0  3.772865  0
N  N102  1  0.69761043  0.86825384  0.81737587  1  -0.766952  0  -0.33537  -0.141149  0  3.770566  0
N  N103  1  0.82342944  0.86794568  0.69579088  1  -0.77557  0  -0.335545  -0.140917  0  3.772729  0
N  N104  1  0.86952289  0.82108200  0.69539963  1  -0.773384  0  -0.334318  -0.140559  0  3.769814  0
N  N105  1  0.86586786  0.30550032  0.18211155  1  -0.783197  0  -0.334895  -0.141245  0  3.769866  0
N  N106  1  0.81956439  0.30436446  0.13609699  1  -0.760768  0  -0.335599  -0.139806  0  3.77265  0
N  N107  1  0.69767776  0.17819789  0.13536488  1  -0.824528  0  -0.336246  -0.140882  0  3.776113  0
N  N108  1  0.69812520  0.13161629  0.18093019  1  -0.731472  0  -0.335745  -0.141241  0  3.772947  0
N  N109  1  0.82231364  0.13380769  0.30427124  1  -0.737272  0  -0.335495  -0.140866  0  3.772471  0
N  N110  1  0.86777127  0.18093608  0.30475592  1  -0.791339  0  -0.335594  -0.141981  0  3.771296  0
N  N111  1  0.12749886  0.70238749  0.17549653  1  -0.767398  0  -0.33559  -0.142208  0  3.772126  0
N  N112  1  0.17599290  0.70020428  0.13183822  1  -0.756955  0  -0.335324  -0.139598  0  3.772741  0
N  N113  1  0.30362251  0.82069017  0.13358718  1  -0.75844  0  -0.336309  -0.141756  0  3.776978  0
N  N114  1  0.30624777  0.86523822  0.18061752  1  -0.796588  0  -0.335136  -0.141242  0  3.772599  0
N  N115  1  0.18095229  0.86668233  0.30274643  1  -0.788199  0  -0.335104  -0.141554  0  3.77034  0
N  N116  1  0.13074925  0.82470860  0.29919709  1  -0.771092  0  -0.334612  -0.139548  0  3.770501  0
N  N117  1  0.12792078  0.29917629  0.82499071  1  -0.769436  0  -0.334386  -0.140034  0  3.771438  0
N  N118  1  0.17585613  0.29991415  0.86936878  1  -0.797654  0  -0.336569  -0.14095  0  3.775758  0
N  N119  1  0.30215726  0.17717519  0.86890016  1  -0.776487  0  -0.336086  -0.139436  0  3.776034  0
N  N120  1  0.30523442  0.13316802  0.82139662  1  -0.767335  0  -0.335515  -0.142187  0  3.772022  0
N  N121  1  0.18090641  0.13428252  0.69807145  1  -0.747042  0  -0.335221  -0.141644  0  3.772185  0
N  N122  1  0.13094726  0.17693461  0.70126073  1  -0.794644  0  -0.33524  -0.140739  0  3.774008  0
