# generated using pymatgen
data_Mn2H10C10(N2O)5
_symmetry_space_group_name_H-M   'P 1'
_cell_length_a   9.29078512
_cell_length_b   17.46889467
_cell_length_c   22.83322228
_cell_angle_alpha   90.00003308
_cell_angle_beta   90.00011180
_cell_angle_gamma   90.00000264
_symmetry_Int_Tables_number   1
_chemical_formula_structural   Mn2H10C10(N2O)5
_chemical_formula_sum   'Mn16 H80 C80 N80 O40'
_cell_volume   3705.82618929
_cell_formula_units_Z   8
loop_
 _symmetry_equiv_pos_site_id
 _symmetry_equiv_pos_as_xyz
  1  'x, y, z'
loop_
 _atom_site_type_symbol
 _atom_site_label
 _atom_site_symmetry_multiplicity
 _atom_site_fract_x
 _atom_site_fract_y
 _atom_site_fract_z
 _atom_site_occupancy
 _atom_site_pbe_bader_charge
 _atom_site_pbe_bader_spin_density
 _atom_site_pbe_cm5_charge
 _atom_site_pbe_ddec_charge
 _atom_site_pbe_ddec_spin_density
 _atom_site_pbe_ddec_sum_bond_order
 _atom_site_pbe_magmom
Mn  Mn0  1  0.40603294  0.54112092  0.65449354  1  1.506825  4.543997  0.616782  0.843762  4.673469  2.469147  4.466
Mn  Mn1  1  0.59396528  0.95887928  0.15449200  1  1.506935  4.543974  0.616802  0.843826  4.673451  2.469077  4.466
Mn  Mn2  1  0.09397674  0.04112294  0.34550669  1  1.506975  4.543961  0.616804  0.843798  4.673482  2.469095  4.466
Mn  Mn3  1  0.90603205  0.45887939  0.84550574  1  1.506858  4.543978  0.616786  0.843774  4.673465  2.46913  4.466
Mn  Mn4  1  0.59397433  0.45887519  0.34550567  1  1.506957  4.543961  0.616799  0.84379  4.673488  2.469101  4.466
Mn  Mn5  1  0.40603123  0.04112141  0.84550545  1  1.506845  4.543978  0.616792  0.843807  4.673466  2.469091  4.466
Mn  Mn6  1  0.90602515  0.95887604  0.65449427  1  1.506936  4.543956  0.616796  0.843829  4.673477  2.469076  4.466
Mn  Mn7  1  0.09396662  0.54112302  0.15449522  1  1.506859  4.543987  0.616759  0.843713  4.673487  2.469206  4.466
Mn  Mn8  1  0.74426721  0.62433172  0.73944797  1  1.481579  4.527198  0.628232  0.764866  4.663554  2.564838  4.451
Mn  Mn9  1  0.25573250  0.87566912  0.23945007  1  1.48155  4.52721  0.628203  0.764802  4.663538  2.564935  4.451
Mn  Mn10  1  0.75573224  0.12433310  0.26055313  1  1.4816  4.527192  0.628254  0.764911  4.66356  2.564791  4.451
Mn  Mn11  1  0.24427183  0.37566745  0.76055249  1  1.481557  4.527204  0.628242  0.764917  4.663528  2.564777  4.451
Mn  Mn12  1  0.25573683  0.37566611  0.26054817  1  1.481597  4.527183  0.628245  0.764932  4.663561  2.564792  4.451
Mn  Mn13  1  0.74426940  0.12433329  0.76054913  1  1.481597  4.527201  0.62824  0.764891  4.663535  2.564859  4.451
Mn  Mn14  1  0.24426642  0.87566874  0.73944739  1  1.481589  4.527203  0.628245  0.764885  4.663566  2.564789  4.451
Mn  Mn15  1  0.75573329  0.62433210  0.23945022  1  1.481645  4.52718  0.628273  0.764963  4.663537  2.564744  4.451
H  H16  1  0.17634715  0.60328281  0.59311360  1  0.62793  0.001058  0.289971  0.354741  0.000951  0.993764  0.001
H  H17  1  0.82365401  0.89671677  0.09311309  1  0.627924  0.001058  0.289984  0.354756  0.000951  0.993738  0.001
H  H18  1  0.32365501  0.10328317  0.40688709  1  0.627916  0.001058  0.289963  0.35472  0.000951  0.993788  0.001
H  H19  1  0.67634870  0.39671692  0.90688681  1  0.627943  0.001058  0.28998  0.354743  0.000951  0.993762  0.001
H  H20  1  0.82365690  0.39671674  0.40688736  1  0.627906  0.001058  0.289953  0.35471  0.000951  0.993809  0.001
H  H21  1  0.17634573  0.10328221  0.90688699  1  0.627928  0.001058  0.289977  0.354768  0.000951  0.993719  0.001
H  H22  1  0.67634473  0.89671638  0.59311211  1  0.627917  0.001058  0.289964  0.354695  0.000951  0.993821  0.001
H  H23  1  0.32365212  0.60328263  0.09311327  1  0.627939  0.001058  0.289997  0.354769  0.00095  0.993717  0.001
H  H24  1  0.26530184  0.55668054  0.54426375  1  0.611017  0.003095  0.329609  0.402617  0.001896  0.873868  0.002
H  H25  1  0.73469909  0.94331901  0.04426320  1  0.611045  0.003095  0.329618  0.402603  0.001897  0.873857  0.002
H  H26  1  0.23469924  0.05668092  0.45573648  1  0.611054  0.003095  0.329595  0.402577  0.001897  0.873908  0.002
H  H27  1  0.76530362  0.44331920  0.95573673  1  0.611012  0.003095  0.329625  0.402623  0.001897  0.873828  0.002
H  H28  1  0.73469790  0.44331901  0.45573589  1  0.611028  0.003095  0.329585  0.402578  0.001897  0.873862  0.002
H  H29  1  0.26530173  0.05667939  0.95573601  1  0.611009  0.003095  0.329601  0.402579  0.001896  0.873828  0.002
H  H30  1  0.76530158  0.94331920  0.54426316  1  0.611046  0.003095  0.329639  0.402626  0.001897  0.873821  0.002
H  H31  1  0.23469719  0.55667977  0.04426379  1  0.611008  0.003095  0.329655  0.402629  0.001896  0.873805  0.002
H  H32  1  0.64184119  0.75511392  0.81862776  1  0.491849  0.000317  0.306384  0.320162  -5.9e-05  0.974976  0.0
H  H33  1  0.35815998  0.74488583  0.31862682  1  0.491871  0.000317  0.306377  0.32015  -5.9e-05  0.975017  0.0
H  H34  1  0.85815935  0.25511353  0.18137252  1  0.491846  0.000317  0.306338  0.320092  -5.9e-05  0.975087  0.0
H  H35  1  0.14184004  0.24488582  0.68137262  1  0.491859  0.000317  0.306369  0.320133  -5.9e-05  0.975029  0.0
H  H36  1  0.35815855  0.24488506  0.18137276  1  0.49186  0.000317  0.30637  0.320146  -5.9e-05  0.975013  0.0
H  H37  1  0.64184084  0.25511486  0.68137282  1  0.491865  0.000317  0.306373  0.320148  -5.9e-05  0.975017  0.0
H  H38  1  0.14183823  0.74488545  0.81862712  1  0.491881  0.000317  0.306393  0.32017  -5.9e-05  0.975022  0.0
H  H39  1  0.85815863  0.75511488  0.31862702  1  0.491887  0.000317  0.306374  0.320152  -5.9e-05  0.975016  0.0
H  H40  1  0.51508979  0.82957198  0.81806802  1  0.488024  0.00049  0.31367  0.321264  0.000115  0.952042  0.0
H  H41  1  0.48491137  0.67042778  0.31806714  1  0.488015  0.00049  0.313644  0.321242  0.000115  0.952062  0.0
H  H42  1  0.98490860  0.32957216  0.18193230  1  0.488007  0.00049  0.313658  0.321261  0.000115  0.952035  0.0
H  H43  1  0.01508971  0.17042718  0.68193227  1  0.488015  0.000491  0.31368  0.321263  0.000115  0.952002  0.0
H  H44  1  0.48490887  0.17042700  0.18193206  1  0.488006  0.000491  0.313681  0.321255  0.000115  0.952012  0.0
H  H45  1  0.51508944  0.32957292  0.68193162  1  0.487997  0.00049  0.313675  0.321214  0.000115  0.952076  0.0
H  H46  1  0.01508899  0.67042739  0.81806735  1  0.488004  0.00049  0.31367  0.321228  0.000115  0.952057  0.0
H  H47  1  0.98491003  0.82957351  0.31806825  1  0.487993  0.00049  0.313687  0.321242  0.000115  0.952  0.0
H  H48  1  0.95843188  0.65569543  0.64341782  1  0.48896  0.000371  0.29962  0.302412  -8.1e-05  0.993657  0.0
H  H49  1  0.04156630  0.84430476  0.14341754  1  0.488989  0.000371  0.299595  0.302382  -8.1e-05  0.99375  0.0
H  H50  1  0.54156758  0.15569517  0.35658330  1  0.488971  0.000371  0.299621  0.302403  -8.1e-05  0.993665  0.0
H  H51  1  0.45843373  0.34430488  0.85658282  1  0.488989  0.000371  0.29961  0.302415  -8.1e-05  0.993681  0.0
H  H52  1  0.04156894  0.34430469  0.35658314  1  0.488968  0.000371  0.299625  0.302377  -8.1e-05  0.993643  0.0
H  H53  1  0.95843237  0.15569536  0.85658210  1  0.488962  0.000371  0.299603  0.302401  -8.1e-05  0.993694  0.0
H  H54  1  0.45843216  0.84430438  0.64341722  1  0.488973  0.000371  0.299613  0.3024  -8.1e-05  0.993668  0.0
H  H55  1  0.54156709  0.65569467  0.14341770  1  0.488968  0.000371  0.299616  0.30243  -8.1e-05  0.993656  0.0
H  H56  1  0.13489333  0.68080177  0.65873027  1  0.4946  0.000566  0.30017  0.284946  0.000285  1.001894  0.001
H  H57  1  0.86510599  0.81919787  0.15873020  1  0.494594  0.000566  0.30018  0.284958  0.000285  1.001892  0.001
H  H58  1  0.36510560  0.18080207  0.34126958  1  0.494597  0.000566  0.300188  0.284974  0.000285  1.001843  0.001
H  H59  1  0.63489563  0.31919854  0.84127011  1  0.494592  0.000566  0.300195  0.284955  0.000285  1.001942  0.001
H  H60  1  0.86510641  0.31919778  0.34126981  1  0.494597  0.000566  0.300194  0.284982  0.000285  1.001843  0.001
H  H61  1  0.13489483  0.18080168  0.84126944  1  0.494598  0.000566  0.300181  0.284959  0.000285  1.001903  0.001
H  H62  1  0.63489306  0.81919748  0.65873050  1  0.49459  0.000566  0.300172  0.284956  0.000285  1.001914  0.001
H  H63  1  0.36510626  0.68080158  0.15872997  1  0.494604  0.000566  0.300176  0.284973  0.000285  1.001873  0.001
H  H64  1  0.62039117  0.57042953  0.48583500  1  0.102017  0.000404  0.108087  0.112838  -0.000369  1.015847  0.0
H  H65  1  0.37960972  0.92957264  0.98583625  1  0.101981  0.000404  0.108085  0.112849  -0.000369  1.015805  0.0
H  H66  1  0.87961258  0.07042939  0.51416389  1  0.101994  0.000404  0.108072  0.112818  -0.000369  1.015824  0.0
H  H67  1  0.12038385  0.42957098  0.01416415  1  0.101895  0.000404  0.108083  0.112795  -0.000369  1.015804  0.0
H  H68  1  0.37960965  0.42957059  0.51416421  1  0.102016  0.000404  0.108084  0.112835  -0.000369  1.015796  0.0
H  H69  1  0.62038571  0.07042920  0.01416515  1  0.101946  0.000404  0.108074  0.112798  -0.000369  1.015829  0.0
H  H70  1  0.12038716  0.92957073  0.48583576  1  0.101997  0.000404  0.108066  0.112786  -0.000369  1.015856  0.0
H  H71  1  0.87961481  0.57042972  0.98583680  1  0.101953  0.000404  0.108096  0.112829  -0.000369  1.015795  0.0
H  H72  1  0.88611126  0.74153420  0.40362248  1  0.060042  0.000494  0.101405  0.09605  6.8e-05  1.039947  0.0
H  H73  1  0.11389247  0.75846504  0.90362300  1  0.059763  0.000494  0.101406  0.096091  6.8e-05  1.039928  0.0
H  H74  1  0.61389143  0.24153355  0.59637780  1  0.059749  0.000494  0.101416  0.096062  6.8e-05  1.03992  0.0
H  H75  1  0.38610647  0.25846688  0.09637820  1  0.059763  0.000494  0.101414  0.096069  6.8e-05  1.039951  0.0
H  H76  1  0.11388956  0.25846478  0.59637716  1  0.060059  0.000494  0.101409  0.096074  6.8e-05  1.039929  0.0
H  H77  1  0.88610835  0.24153508  0.09637708  1  0.060058  0.000494  0.10139  0.096047  6.8e-05  1.039965  0.0
H  H78  1  0.38611046  0.75846543  0.40362316  1  0.060071  0.000494  0.101415  0.096078  6.8e-05  1.039921  0.0
H  H79  1  0.61389219  0.74153381  0.90362276  1  0.059768  0.000494  0.10142  0.096105  6.8e-05  1.039917  0.0
H  H80  1  0.94099060  0.79799746  0.50107656  1  0.09111  0.00033  0.101083  0.105037  5.6e-05  1.017767  0.0
H  H81  1  0.05901334  0.70200206  0.00107712  1  0.091174  0.00033  0.101096  0.105059  5.6e-05  1.017755  0.0
H  H82  1  0.55901102  0.29799673  0.49892374  1  0.091161  0.00033  0.101082  0.105073  5.6e-05  1.017757  0.0
H  H83  1  0.44098774  0.20200343  0.99892406  1  0.091191  0.00033  0.101067  0.105031  5.6e-05  1.017706  0.0
H  H84  1  0.05900914  0.20200267  0.49892308  1  0.091118  0.00033  0.101072  0.105046  5.6e-05  1.017757  0.0
H  H85  1  0.94098855  0.29799692  0.99892209  1  0.091148  0.00033  0.101071  0.105028  5.6e-05  1.017787  0.0
H  H86  1  0.44099087  0.70200397  0.50107722  1  0.091146  0.00033  0.101071  0.105076  5.6e-05  1.017782  0.0
H  H87  1  0.55901200  0.79799784  0.00107734  1  0.091156  0.00033  0.101097  0.10506  5.6e-05  1.017752  0.0
H  H88  1  0.84199057  0.73749280  0.59098016  1  0.103864  0.000342  0.102841  0.095749  -0.000187  1.047691  0.0
H  H89  1  0.15801165  0.76250850  0.09098082  1  0.103863  0.000342  0.102837  0.095736  -0.000187  1.047735  0.0
H  H90  1  0.65800782  0.23749201  0.40902011  1  0.103867  0.000342  0.102842  0.095749  -0.000187  1.047729  0.0
H  H91  1  0.34198836  0.26250866  0.90902082  1  0.103894  0.000342  0.102828  0.095717  -0.000187  1.047842  0.0
H  H92  1  0.15800809  0.26250732  0.40901948  1  0.103834  0.000342  0.102857  0.095729  -0.000187  1.047729  0.0
H  H93  1  0.84198809  0.23749048  0.90901970  1  0.103873  0.000342  0.102826  0.095702  -0.000187  1.047842  0.0
H  H94  1  0.34199192  0.76250812  0.59097997  1  0.103859  0.000342  0.102852  0.095751  -0.000187  1.047732  0.0
H  H95  1  0.65801245  0.73749204  0.09098057  1  0.103852  0.000342  0.102852  0.09574  -0.000187  1.047731  0.0
C  C96  1  0.48600061  0.74406626  0.75813207  1  1.483133  0.015675  0.334898  0.499617  0.012808  4.111058  0.013
C  C97  1  0.51400027  0.75593402  0.25812995  1  1.483136  0.015673  0.334902  0.499643  0.012806  4.11082  0.013
C  C98  1  0.01399941  0.24406591  0.24186912  1  1.482886  0.015675  0.334856  0.499654  0.012808  4.110821  0.013
C  C99  1  0.98600027  0.25593406  0.74186814  1  1.483126  0.015675  0.334865  0.499598  0.012808  4.11086  0.013
C  C100  1  0.51400021  0.25593215  0.24186801  1  1.483119  0.015677  0.334952  0.499702  0.012809  4.11085  0.013
C  C101  1  0.48599947  0.24406553  0.74186794  1  1.482737  0.015676  0.334902  0.499602  0.012808  4.110848  0.013
C  C102  1  0.98599710  0.75593364  0.75813096  1  1.482751  0.015675  0.334928  0.499677  0.012808  4.110914  0.013
C  C103  1  0.01400054  0.74406664  0.25813281  1  1.482727  0.015675  0.33495  0.499735  0.012807  4.110887  0.013
C  C104  1  0.06820475  0.58170049  0.69270134  1  1.426028  0.013608  0.333151  0.480728  0.010349  4.049919  0.011
C  C105  1  0.93179473  0.91829917  0.19270224  1  1.426143  0.013606  0.333147  0.480661  0.010348  4.04997  0.011
C  C106  1  0.43179633  0.08170134  0.30729891  1  1.426135  0.013609  0.333168  0.480712  0.01035  4.049968  0.011
C  C107  1  0.56820582  0.41829982  0.80729899  1  1.426082  0.013609  0.33312  0.480637  0.01035  4.050021  0.011
C  C108  1  0.93179714  0.41829849  0.30729918  1  1.426122  0.013608  0.333124  0.480738  0.010349  4.049904  0.011
C  C109  1  0.06820501  0.08170095  0.80729784  1  1.426098  0.013608  0.333148  0.480709  0.01035  4.049946  0.011
C  C110  1  0.56820449  0.91829878  0.69270073  1  1.426129  0.013609  0.333155  0.480716  0.01035  4.04999  0.011
C  C111  1  0.43179500  0.58170031  0.19270153  1  1.426112  0.013608  0.333151  0.480687  0.010349  4.049928  0.011
C  C112  1  0.73234418  0.64729990  0.54426002  1  0.019912  0.002977  -0.021065  -0.047864  0.001681  3.984049  0.001
C  C113  1  0.26765782  0.85270194  0.04426080  1  -0.012168  0.003057  -0.021121  -0.048019  0.001681  3.984059  0.001
C  C114  1  0.76765851  0.14729914  0.45573978  1  -0.011847  0.003057  -0.021081  -0.047859  0.001681  3.984026  0.001
C  C115  1  0.23234113  0.35270156  0.95573956  1  -0.011845  0.003057  -0.021147  -0.048064  0.001681  3.984208  0.001
C  C116  1  0.26765556  0.35270022  0.45573875  1  -0.012136  0.003058  -0.021079  -0.04788  0.001682  3.984001  0.001
C  C117  1  0.73234084  0.14729876  0.95573928  1  -0.011831  0.003057  -0.021136  -0.048041  0.001682  3.984058  0.001
C  C118  1  0.23234123  0.85270041  0.54426030  1  -0.011852  0.003058  -0.021117  -0.048022  0.001682  3.984077  0.001
C  C119  1  0.76765862  0.64730028  0.04426139  1  -0.012039  0.003057  -0.021137  -0.048092  0.001682  3.984166  0.001
C  C120  1  0.69381124  0.61894433  0.48910965  1  -0.113866  0.00905  -0.079819  -0.118109  0.00664  3.956593  0.005
C  C121  1  0.30618859  0.88105669  0.98911038  1  -0.113787  0.009049  -0.079814  -0.118124  0.00664  3.956575  0.005
C  C122  1  0.80619037  0.11894476  0.51088925  1  -0.113901  0.00905  -0.079781  -0.118028  0.00664  3.956613  0.005
C  C123  1  0.19380713  0.38105560  0.01088912  1  -0.113826  0.00905  -0.079761  -0.117914  0.00664  3.956533  0.005
C  C124  1  0.30618742  0.38105579  0.51088911  1  -0.113764  0.009049  -0.079776  -0.118056  0.006639  3.956515  0.005
C  C125  1  0.69380900  0.11894572  0.01089014  1  -0.113868  0.009048  -0.079814  -0.118022  0.006639  3.956574  0.005
C  C126  1  0.19381045  0.88105536  0.48911039  1  -0.1139  0.00905  -0.079776  -0.117973  0.00664  3.956552  0.005
C  C127  1  0.80619261  0.61894510  0.98911140  1  -0.113816  0.00905  -0.079768  -0.117928  0.00664  3.956398  0.005
C  C128  1  0.74805734  0.65307412  0.43810943  1  0.012682  0.002055  -0.024289  -0.053485  0.000732  4.00107  0.001
C  C129  1  0.25194547  0.84692744  0.93811054  1  0.012596  0.002055  -0.024183  -0.05324  0.000732  4.000804  0.001
C  C130  1  0.75194750  0.15307230  0.56188949  1  0.012552  0.002055  -0.024217  -0.053433  0.000731  4.000876  0.001
C  C131  1  0.24804809  0.34692696  0.06188982  1  0.012514  0.002055  -0.024256  -0.053482  0.000732  4.000968  0.001
C  C132  1  0.25194455  0.34692657  0.56188977  1  0.012625  0.002055  -0.024253  -0.053369  0.000732  4.000934  0.001
C  C133  1  0.74804996  0.15307440  0.06188954  1  0.01259  0.002055  -0.024249  -0.053445  0.000732  4.000926  0.001
C  C134  1  0.24805440  0.84692668  0.43810972  1  0.012602  0.002054  -0.024215  -0.053365  0.000731  4.000905  0.001
C  C135  1  0.75194842  0.65307317  0.93811026  1  0.012556  0.002055  -0.024255  -0.053423  0.000732  4.000874  0.001
C  C136  1  0.84033374  0.71639467  0.44299754  1  0.008002  0.009369  -0.081841  -0.079992  0.007119  3.957737  0.006
C  C137  1  0.15966911  0.78360575  0.94299811  1  0.00837  0.00937  -0.081847  -0.080087  0.00712  3.95757  0.006
C  C138  1  0.65966896  0.21639456  0.55700229  1  0.008362  0.009371  -0.081815  -0.079886  0.00712  3.957522  0.006
C  C139  1  0.34032768  0.28360641  0.05700266  1  0.008376  0.00937  -0.081787  -0.079889  0.00712  3.95762  0.006
C  C140  1  0.15966708  0.28360545  0.55700167  1  0.00804  0.009369  -0.081845  -0.080013  0.007119  3.957571  0.006
C  C141  1  0.84033063  0.21639667  0.05700197  1  0.007967  0.009369  -0.081845  -0.079989  0.007119  3.95751  0.006
C  C142  1  0.34033186  0.78360556  0.44299823  1  0.008024  0.00937  -0.081832  -0.079959  0.00712  3.957623  0.006
C  C143  1  0.65967098  0.71639429  0.94299829  1  0.008374  0.009369  -0.081837  -0.080073  0.007119  3.957599  0.006
C  C144  1  0.87318577  0.74725354  0.49763724  1  -0.118636  -0.001339  -0.090562  -0.079352  -0.001831  4.001528  -0.001
C  C145  1  0.12681948  0.75274749  0.99763865  1  -0.118771  -0.001339  -0.090661  -0.079475  -0.001831  4.001476  -0.001
C  C146  1  0.62681800  0.24725282  0.50236260  1  -0.118646  -0.00134  -0.090694  -0.079625  -0.001831  4.001588  -0.001
C  C147  1  0.37317946  0.25274754  0.00236255  1  -0.118589  -0.00134  -0.090714  -0.079587  -0.001831  4.001554  -0.001
C  C148  1  0.12681612  0.25274658  0.50236197  1  -0.118729  -0.001339  -0.09063  -0.079497  -0.001831  4.001443  -0.001
C  C149  1  0.87318133  0.24725321  0.00236143  1  -0.118625  -0.001339  -0.090619  -0.07943  -0.001831  4.001531  -0.001
C  C150  1  0.37318282  0.75274730  0.49763748  1  -0.118613  -0.00134  -0.090667  -0.079621  -0.001831  4.001507  -0.001
C  C151  1  0.62682028  0.74725373  0.99763797  1  -0.11877  -0.001339  -0.090671  -0.079458  -0.001831  4.001453  -0.001
C  C152  1  0.81932285  0.71283467  0.54811848  1  -0.050883  0.009431  -0.080382  -0.077128  0.007091  3.947969  0.006
C  C153  1  0.18067810  0.78716602  0.04811917  1  -0.050762  0.009431  -0.080297  -0.077006  0.007091  3.948001  0.006
C  C154  1  0.68067662  0.21283448  0.45188135  1  -0.050887  0.009432  -0.080292  -0.07702  0.007092  3.947824  0.006
C  C155  1  0.31931977  0.28716621  0.95188117  1  -0.050931  0.009431  -0.080233  -0.076907  0.007092  3.948042  0.006
C  C156  1  0.18067582  0.28716545  0.45188029  1  -0.050816  0.00943  -0.080349  -0.077039  0.007091  3.947861  0.006
C  C157  1  0.81932164  0.21283410  0.95188091  1  -0.05081  0.00943  -0.080253  -0.076933  0.007091  3.948063  0.006
C  C158  1  0.31932205  0.78716621  0.54811961  1  -0.050897  0.009432  -0.08029  -0.076942  0.007092  3.947781  0.006
C  C159  1  0.68067997  0.71283505  0.04811935  1  -0.050777  0.009431  -0.080311  -0.076987  0.007091  3.947964  0.006
C  C160  1  0.68235607  0.60884185  0.59945456  1  1.559618  0.021049  0.224988  0.592594  0.020795  4.175207  0.019
C  C161  1  0.31764189  0.89116003  0.09945584  1  1.591715  0.020968  0.225099  0.592884  0.020794  4.174854  0.019
C  C162  1  0.81764554  0.10884162  0.40054478  1  1.591541  0.020969  0.225062  0.592666  0.020796  4.175121  0.019
C  C163  1  0.18235706  0.39115961  0.90054454  1  1.591501  0.02097  0.225015  0.592676  0.020796  4.175112  0.019
C  C164  1  0.31764582  0.39115713  0.40054289  1  1.59167  0.020967  0.224984  0.592629  0.020793  4.175074  0.019
C  C165  1  0.68235785  0.10884066  0.90054336  1  1.591509  0.020967  0.225052  0.592851  0.020793  4.174872  0.019
C  C166  1  0.18235528  0.89115850  0.59945574  1  1.591504  0.020969  0.225034  0.592659  0.020796  4.174974  0.019
C  C167  1  0.81764268  0.60884223  0.09945729  1  1.59165  0.020969  0.224952  0.59271  0.020795  4.17497  0.019
C  C168  1  0.70527180  0.62325710  0.37905029  1  1.557143  0.025648  0.219336  0.578698  0.024803  4.192576  0.022
C  C169  1  0.29472859  0.87674213  0.87905013  1  1.557153  0.025647  0.21938  0.578692  0.024801  4.192807  0.022
C  C170  1  0.79472981  0.12325876  0.62094993  1  1.557489  0.025645  0.219403  0.578702  0.024804  4.192954  0.022
C  C171  1  0.20526391  0.37674169  0.12094937  1  1.557519  0.025644  0.219481  0.57885  0.024802  4.192855  0.022
C  C172  1  0.29473117  0.37674073  0.62094935  1  1.557398  0.025644  0.219482  0.578725  0.0248  4.19298  0.022
C  C173  1  0.70526577  0.12326086  0.12095038  1  1.557143  0.025646  0.219508  0.578827  0.0248  4.192957  0.022
C  C174  1  0.20526778  0.87674136  0.37905015  1  1.557426  0.025647  0.219433  0.578718  0.024804  4.192913  0.022
C  C175  1  0.79473261  0.62325958  0.87905028  1  1.557401  0.025644  0.219528  0.578831  0.0248  4.192944  0.022
N  N176  1  0.52919711  0.67663153  0.73511693  1  -0.738926  0.057382  -0.242757  -0.321113  0.039031  3.365261  0.021
N  N177  1  0.47080258  0.82336816  0.23511567  1  -0.739097  0.057382  -0.242717  -0.321095  0.039031  3.365246  0.021
N  N178  1  0.97080235  0.17663235  0.26488376  1  -0.73894  0.057383  -0.242719  -0.321101  0.039031  3.365165  0.021
N  N179  1  0.02919852  0.32336877  0.76488337  1  -0.738934  0.057378  -0.242741  -0.321106  0.039031  3.365064  0.021
N  N180  1  0.47080370  0.32336745  0.26488315  1  -0.738893  0.05739  -0.242822  -0.321255  0.039033  3.365229  0.021
N  N181  1  0.52919716  0.17663139  0.76488222  1  -0.738987  0.057386  -0.242786  -0.321171  0.039032  3.365232  0.021
N  N182  1  0.02919632  0.82336777  0.73511676  1  -0.738893  0.057383  -0.242771  -0.321168  0.039031  3.365283  0.021
N  N183  1  0.97080445  0.67663192  0.23511803  1  -0.738915  0.057384  -0.242849  -0.321329  0.039035  3.365275  0.021
N  N184  1  0.42581824  0.65768985  0.69585698  1  -0.230126  0.058957  -0.100316  -0.075065  0.041338  3.498787  0.025
N  N185  1  0.57418018  0.84230924  0.19585582  1  -0.229982  0.058953  -0.100302  -0.075097  0.041338  3.498869  0.025
N  N186  1  0.07418069  0.15769126  0.30414373  1  -0.230122  0.05896  -0.100278  -0.075033  0.04134  3.498803  0.025
N  N187  1  0.92581929  0.34230989  0.80414319  1  -0.230129  0.058958  -0.100307  -0.075063  0.04134  3.498764  0.025
N  N188  1  0.57418150  0.34230856  0.30414353  1  -0.230108  0.058967  -0.100277  -0.07499  0.041341  3.498788  0.025
N  N189  1  0.42582063  0.15768974  0.80414251  1  -0.230136  0.05896  -0.100306  -0.075071  0.041341  3.498736  0.025
N  N190  1  0.92581690  0.84230886  0.69585678  1  -0.230098  0.058964  -0.100288  -0.075048  0.041341  3.498881  0.025
N  N191  1  0.07418260  0.65769080  0.19585777  1  -0.230088  0.058963  -0.100281  -0.074999  0.041338  3.498805  0.025
N  N192  1  0.32594617  0.71025070  0.69467009  1  -0.128336  0.02669  -0.079623  -0.050445  0.018303  3.306589  0.02
N  N193  1  0.67405225  0.78974896  0.19466898  1  -0.12808  0.026687  -0.079651  -0.050483  0.018301  3.306645  0.02
N  N194  1  0.17405385  0.21025097  0.30532978  1  -0.128347  0.02669  -0.079637  -0.050483  0.018303  3.306624  0.02
N  N195  1  0.82594614  0.28974961  0.80532956  1  -0.12806  0.026689  -0.079588  -0.050415  0.018303  3.306609  0.02
N  N196  1  0.67405358  0.28974828  0.30532999  1  -0.12835  0.026694  -0.079642  -0.050489  0.018306  3.306576  0.02
N  N197  1  0.32594856  0.21025059  0.80533022  1  -0.128032  0.026689  -0.079619  -0.050442  0.018303  3.306601  0.02
N  N198  1  0.82594482  0.78974858  0.69466987  1  -0.128546  0.026692  -0.07962  -0.050431  0.018304  3.306548  0.02
N  N199  1  0.17405468  0.71025108  0.19467095  1  -0.128357  0.02669  -0.079623  -0.05042  0.018303  3.306647  0.02
N  N200  1  0.36004994  0.76573333  0.73342023  1  -0.776737  0.06074  -0.246334  -0.330004  0.042055  3.407731  0.024
N  N201  1  0.63994758  0.73426636  0.23341907  1  -0.777018  0.060742  -0.246347  -0.329951  0.042054  3.407641  0.024
N  N202  1  0.13994900  0.26573300  0.26657966  1  -0.77675  0.060742  -0.246351  -0.330006  0.042056  3.407749  0.024
N  N203  1  0.86005080  0.23426755  0.76657945  1  -0.777006  0.060743  -0.246386  -0.330036  0.042056  3.407789  0.024
N  N204  1  0.63994980  0.23426622  0.26657985  1  -0.776808  0.060746  -0.246349  -0.329966  0.042056  3.407618  0.024
N  N205  1  0.36005108  0.26573262  0.76658057  1  -0.777001  0.060744  -0.246324  -0.329932  0.042054  3.407776  0.024
N  N206  1  0.86004967  0.73426598  0.73341998  1  -0.776656  0.060741  -0.246349  -0.329995  0.042054  3.40769  0.024
N  N207  1  0.13995109  0.76573314  0.23342019  1  -0.77678  0.060741  -0.246321  -0.329993  0.042054  3.407701  0.024
N  N208  1  0.56309968  0.78494923  0.79741654  1  -1.288196  0.008721  -0.581412  -0.654044  0.005858  3.308052  0.005
N  N209  1  0.43690139  0.71504994  0.29741608  1  -1.288162  0.00872  -0.581397  -0.654056  0.005857  3.307915  0.005
N  N210  1  0.93689764  0.28495057  0.20258376  1  -1.287928  0.00872  -0.581378  -0.654031  0.005858  3.307955  0.005
N  N211  1  0.06309970  0.21505108  0.70258378  1  -1.288183  0.008721  -0.581389  -0.654013  0.005858  3.308063  0.005
N  N212  1  0.43689899  0.21504975  0.20258442  1  -1.288211  0.008722  -0.581404  -0.654015  0.005859  3.308047  0.005
N  N213  1  0.56309835  0.28495018  0.70258312  1  -1.287795  0.008721  -0.581432  -0.654007  0.005858  3.307987  0.005
N  N214  1  0.06309887  0.71504955  0.79741676  1  -1.287794  0.00872  -0.58146  -0.654061  0.005858  3.307969  0.005
N  N215  1  0.93690219  0.78494962  0.29741674  1  -1.287833  0.008721  -0.581413  -0.654007  0.005858  3.308031  0.005
N  N216  1  0.18327147  0.53611032  0.70123061  1  -0.727782  0.05943  -0.211417  -0.309375  0.042574  3.333319  0.028
N  N217  1  0.81672806  0.96388935  0.20123144  1  -0.727161  0.059424  -0.211391  -0.309355  0.042572  3.333214  0.028
N  N218  1  0.31672853  0.03611173  0.29876874  1  -0.72719  0.059437  -0.211421  -0.309384  0.04258  3.333386  0.028
N  N219  1  0.68327250  0.46388942  0.79876937  1  -0.727162  0.059431  -0.211427  -0.309384  0.042576  3.333258  0.028
N  N220  1  0.81672935  0.46388866  0.29876947  1  -0.72718  0.059437  -0.211396  -0.30942  0.04258  3.333326  0.028
N  N221  1  0.18327168  0.03611077  0.79876820  1  -0.727829  0.059433  -0.211403  -0.309337  0.042574  3.333283  0.028
N  N222  1  0.68327229  0.96388839  0.70123090  1  -0.727221  0.059436  -0.211432  -0.309434  0.04258  3.333374  0.028
N  N223  1  0.31672831  0.53611070  0.20123159  1  -0.727846  0.059433  -0.211391  -0.309295  0.042575  3.333222  0.028
N  N224  1  0.14610034  0.48994027  0.74582744  1  -0.202782  0.067319  -0.08882  -0.037333  0.045941  3.458352  0.028
N  N225  1  0.85389829  0.01005855  0.24582854  1  -0.203419  0.067306  -0.088903  -0.037415  0.045939  3.458282  0.028
N  N226  1  0.35389862  0.98994253  0.25417167  1  -0.203382  0.067312  -0.088834  -0.037375  0.045939  3.458402  0.028
N  N227  1  0.64610116  0.51005889  0.75417207  1  -0.203411  0.067313  -0.08884  -0.037339  0.045942  3.458319  0.028
N  N228  1  0.85389940  0.51005871  0.25417264  1  -0.203439  0.067327  -0.08882  -0.037268  0.045939  3.458295  0.028
N  N229  1  0.14610038  0.98994100  0.75417197  1  -0.202764  0.06731  -0.088851  -0.037406  0.045939  3.458404  0.028
N  N230  1  0.64610219  0.01005817  0.74582754  1  -0.203457  0.067324  -0.088847  -0.037362  0.04594  3.458341  0.028
N  N231  1  0.35389858  0.48994065  0.24582801  1  -0.202834  0.067323  -0.088876  -0.037432  0.045941  3.458399  0.028
N  N232  1  0.01440107  0.50600025  0.76302821  1  -0.19978  0.07306  -0.079453  -0.049448  0.051867  3.435178  0.037
N  N233  1  0.98559768  0.99399832  0.26302919  1  -0.199846  0.073067  -0.079421  -0.049384  0.051867  3.435089  0.037
N  N234  1  0.48559785  0.00600162  0.23697113  1  -0.199846  0.073078  -0.079429  -0.049337  0.05187  3.435092  0.037
N  N235  1  0.51440288  0.49399834  0.73697163  1  -0.199739  0.073061  -0.079424  -0.049407  0.051867  3.435189  0.037
N  N236  1  0.98559867  0.49399816  0.23697187  1  -0.19975  0.073065  -0.079478  -0.049495  0.051871  3.435227  0.037
N  N237  1  0.01440098  0.00600066  0.73697133  1  -0.199871  0.073072  -0.079455  -0.049402  0.051869  3.435164  0.037
N  N238  1  0.51440297  0.99399907  0.76302808  1  -0.199723  0.073061  -0.079406  -0.049321  0.051865  3.435046  0.037
N  N239  1  0.48559901  0.50600006  0.26302845  1  -0.199855  0.073075  -0.079431  -0.049427  0.05187  3.435138  0.037
N  N240  1  0.96233272  0.56398045  0.73074231  1  -0.720347  0.063799  -0.212993  -0.293291  0.045162  3.353218  0.029
N  N241  1  0.03766587  0.93601867  0.23074295  1  -0.720375  0.063794  -0.213008  -0.293282  0.04516  3.353304  0.029
N  N242  1  0.53766780  0.06398126  0.26925745  1  -0.720427  0.063805  -0.213021  -0.293343  0.045166  3.35324  0.029
N  N243  1  0.46233416  0.43601872  0.76925789  1  -0.720337  0.063791  -0.212974  -0.293232  0.045162  3.353295  0.029
N  N244  1  0.03766810  0.43601853  0.26925777  1  -0.720418  0.063799  -0.212986  -0.293307  0.045163  3.353241  0.029
N  N245  1  0.96233279  0.06398088  0.76925669  1  -0.720346  0.063795  -0.213016  -0.293319  0.045162  3.353264  0.029
N  N246  1  0.46233409  0.93601886  0.73074219  1  -0.720379  0.063799  -0.212993  -0.293321  0.045164  3.353278  0.029
N  N247  1  0.53766773  0.56398083  0.23074307  1  -0.720354  0.0638  -0.213003  -0.29327  0.045165  3.353177  0.029
N  N248  1  0.06234939  0.63741837  0.64959004  1  -1.263847  0.004504  -0.58322  -0.650111  0.002493  3.29749  0.002
N  N249  1  0.93764989  0.86258126  0.14959005  1  -1.263858  0.004504  -0.583201  -0.650065  0.002493  3.297588  0.002
N  N250  1  0.43765170  0.13741868  0.35041023  1  -1.263889  0.004504  -0.583251  -0.650123  0.002494  3.297469  0.002
N  N251  1  0.56235066  0.36258137  0.85041072  1  -1.263881  0.004504  -0.583219  -0.650092  0.002493  3.297507  0.002
N  N252  1  0.93765143  0.36258118  0.35041048  1  -1.263897  0.004504  -0.58325  -0.650088  0.002494  3.297472  0.002
N  N253  1  0.06234877  0.13741829  0.85040915  1  -1.263821  0.004504  -0.583192  -0.65009  0.002493  3.297494  0.002
N  N254  1  0.56234912  0.86258087  0.64958985  1  -1.263892  0.004504  -0.583243  -0.650114  0.002493  3.297488  0.002
N  N255  1  0.43765016  0.63741818  0.14959024  1  -1.263846  0.004504  -0.58322  -0.650149  0.002493  3.297493  0.002
O  O256  1  0.75055063  0.62650297  0.64605555  1  -1.207876  0.071874  -0.309691  -0.560209  0.052763  2.419876  0.039
O  O257  1  0.24944863  0.87349894  0.14605633  1  -1.207899  0.071867  -0.309743  -0.560298  0.05276  2.419756  0.039
O  O258  1  0.74944774  0.12650271  0.35394467  1  -1.207892  0.071878  -0.309731  -0.560259  0.052762  2.419795  0.039
O  O259  1  0.25055032  0.37349677  0.85394448  1  -1.207902  0.071876  -0.30972  -0.560252  0.052765  2.419827  0.039
O  O260  1  0.24945234  0.37349601  0.35394234  1  -1.207881  0.071858  -0.309685  -0.560264  0.052761  2.419765  0.039
O  O261  1  0.75055111  0.12650175  0.85394375  1  -1.20791  0.071863  -0.309723  -0.560314  0.052761  2.419795  0.039
O  O262  1  0.25055092  0.87349741  0.64605541  1  -1.207901  0.071875  -0.309723  -0.560228  0.052759  2.419784  0.039
O  O263  1  0.74944511  0.62650507  0.14605691  1  -1.207885  0.071865  -0.309729  -0.560277  0.05276  2.419585  0.039
O  O264  1  0.57862209  0.56164710  0.59661523  1  -1.186463  0.070783  -0.313225  -0.532887  0.048112  2.316086  0.035
O  O265  1  0.42137585  0.93835535  0.09661530  1  -1.186559  0.070794  -0.313243  -0.532999  0.048115  2.316019  0.035
O  O266  1  0.92138166  0.06164860  0.40338322  1  -1.186561  0.070782  -0.313247  -0.532898  0.048108  2.316141  0.035
O  O267  1  0.07862418  0.43835607  0.90338292  1  -1.186519  0.070786  -0.313221  -0.532904  0.04811  2.316052  0.035
O  O268  1  0.42138303  0.43835016  0.40338310  1  -1.186485  0.070783  -0.313237  -0.532891  0.048107  2.316083  0.035
O  O269  1  0.57862173  0.06164535  0.90338303  1  -1.186499  0.070785  -0.31322  -0.532985  0.048112  2.315977  0.035
O  O270  1  0.07861808  0.93835267  0.59661686  1  -1.186525  0.070784  -0.313232  -0.532879  0.048108  2.31599  0.035
O  O271  1  0.92137449  0.56164692  0.09661848  1  -1.186476  0.070785  -0.313157  -0.532911  0.04811  2.31615  0.035
O  O272  1  0.60905172  0.57113016  0.37702644  1  -1.20014  0.066142  -0.321655  -0.562684  0.045058  2.359394  0.029
O  O273  1  0.39095726  0.92886849  0.87702813  1  -1.200211  0.066152  -0.321695  -0.562731  0.04506  2.359416  0.029
O  O274  1  0.89095634  0.07113068  0.62297245  1  -1.200197  0.066147  -0.321713  -0.562753  0.04506  2.35943  0.029
O  O275  1  0.10904061  0.42886748  0.12297271  1  -1.200264  0.066146  -0.321702  -0.562724  0.045056  2.359455  0.029
O  O276  1  0.39095986  0.42886653  0.62297146  1  -1.200186  0.066148  -0.321733  -0.562722  0.04506  2.359478  0.029
O  O277  1  0.60903817  0.07113449  0.12297239  1  -1.200197  0.06615  -0.321729  -0.562758  0.04506  2.359468  0.029
O  O278  1  0.10904124  0.92886830  0.37702807  1  -1.200239  0.06615  -0.321711  -0.562737  0.045058  2.359404  0.029
O  O279  1  0.89096128  0.57113379  0.87702781  1  -1.200222  0.066154  -0.321749  -0.562778  0.04506  2.359488  0.029
O  O280  1  0.76376405  0.65287487  0.33379740  1  -1.212261  0.071474  -0.305756  -0.5546  0.051594  2.346155  0.039
O  O281  1  0.23623719  0.84712718  0.83379806  1  -1.212195  0.071463  -0.305835  -0.554674  0.051592  2.346455  0.039
O  O282  1  0.73623971  0.15287370  0.66620108  1  -1.212525  0.071468  -0.305786  -0.554589  0.051591  2.346511  0.039
O  O283  1  0.26375746  0.34712392  0.16620143  1  -1.21249  0.071471  -0.305834  -0.554717  0.051594  2.346478  0.039
O  O284  1  0.23624107  0.34712639  0.66620180  1  -1.212448  0.071465  -0.305839  -0.554671  0.051592  2.346442  0.039
O  O285  1  0.76375932  0.15287523  0.16620202  1  -1.212178  0.071462  -0.305869  -0.554727  0.051592  2.346498  0.039
O  O286  1  0.26375896  0.84712585  0.33379812  1  -1.212467  0.071472  -0.305805  -0.554615  0.051594  2.346505  0.039
O  O287  1  0.73623906  0.65287391  0.83379865  1  -1.212438  0.071467  -0.305833  -0.554673  0.051591  2.346488  0.039
O  O288  1  0.27472416  0.58803056  0.57920539  1  -1.247394  0.052952  -0.555619  -0.719599  0.03796  2.13563  0.025
O  O289  1  0.72527585  0.91197073  0.07920525  1  -1.247426  0.052954  -0.555637  -0.719593  0.037959  2.135615  0.025
O  O290  1  0.22527799  0.08803034  0.42079529  1  -1.247428  0.052963  -0.555602  -0.719538  0.037962  2.135686  0.025
O  O291  1  0.77472578  0.41197033  0.92079466  1  -1.247411  0.052951  -0.555641  -0.719603  0.037959  2.135593  0.025
O  O292  1  0.72527773  0.41196842  0.42079513  1  -1.247388  0.05296  -0.555588  -0.719538  0.03796  2.135633  0.025
O  O293  1  0.27472389  0.08802939  0.92079439  1  -1.247381  0.052951  -0.555629  -0.719606  0.037961  2.135582  0.025
O  O294  1  0.77472282  0.91196863  0.57920435  1  -1.247399  0.052958  -0.555643  -0.719573  0.037961  2.135645  0.025
O  O295  1  0.22527504  0.58802922  0.07920542  1  -1.247392  0.052949  -0.55569  -0.71963  0.037959  2.135566  0.025
