# generated using pymatgen
data_Cu2NiH32C26(N3O7)2
_symmetry_space_group_name_H-M   'P 1'
_cell_length_a   9.03447766
_cell_length_b   8.70702471
_cell_length_c   11.49777509
_cell_angle_alpha   77.66753908
_cell_angle_beta   80.46246766
_cell_angle_gamma   83.49722171
_symmetry_Int_Tables_number   1
_chemical_formula_structural   Cu2NiH32C26(N3O7)2
_chemical_formula_sum   'Cu2 Ni1 H32 C26 N6 O14'
_cell_volume   868.51987329
_cell_formula_units_Z   1
loop_
 _symmetry_equiv_pos_site_id
 _symmetry_equiv_pos_as_xyz
  1  'x, y, z'
loop_
 _atom_site_type_symbol
 _atom_site_label
 _atom_site_symmetry_multiplicity
 _atom_site_fract_x
 _atom_site_fract_y
 _atom_site_fract_z
 _atom_site_occupancy
 _atom_site_hle17_ddec_charge
 _atom_site_hle17_ddec_spin_density
 _atom_site_hle17_ddec_sum_bond_order
 _atom_site_hle17_magmom
 _atom_site_hse06_10hf_ddec_charge
 _atom_site_hse06_10hf_ddec_spin_density
 _atom_site_hse06_10hf_ddec_sum_bond_order
 _atom_site_hse06_10hf_magmom
 _atom_site_hse06_ddec_charge
 _atom_site_hse06_ddec_spin_density
 _atom_site_hse06_ddec_sum_bond_order
 _atom_site_hse06_magmom
 _atom_site_pbe_cm5_charge
 _atom_site_pbe_ddec_charge
 _atom_site_pbe_ddec_spin_density
 _atom_site_pbe_ddec_sum_bond_order
 _atom_site_pbe_magmom
Cu  Cu0  1  0.80853706  0.62425396  0.28633531  1  0.758095  -0.596647  2.030668  -0.482  0.723374  -0.680479  2.446718  -0.583  0.804736  -0.753263  2.376643  -0.658  0.757203  0.67503  -0.633689  2.494228  -0.535
Cu  Cu1  1  0.19134477  0.37582595  0.71387839  1  0.757706  0.728542  2.034165  0.481  0.723032  0.798965  2.450451  0.582  0.80414  0.876443  2.380545  0.658  0.757463  0.674263  0.743091  2.498303  0.533
Ni  Ni2  1  0.99992729  0.00002571  0.99995788  1  1.061156  -1.955265  1.778262  -1.566  1.079055  -1.982058  2.155731  -1.683  1.153941  -2.022441  2.094358  -1.755  0.612389  1.015271  -1.935073  2.209514  -1.615
H  H3  1  0.50709094  0.06708080  0.11925025  1  0.11799  0.000103  0.91172  0.0  0.130733  -4.8e-05  0.972665  0.0  0.133054  -9e-06  0.970922  0.0  0.119798  0.128768  -3.1e-05  0.974507  0.0
H  H4  1  0.49281670  0.93276856  0.88068269  1  0.117707  9e-05  0.912088  0.0  0.130385  -1.8e-05  0.973071  0.0  0.132687  -6e-06  0.971342  0.0  0.119639  0.128448  2.5e-05  0.974898  0.0
H  H5  1  0.37848000  0.01414153  0.25119974  1  0.094462  -3.5e-05  0.91948  0.0  0.108771  -0.000228  0.980703  0.0  0.109758  -0.000149  0.97991  0.0  0.113363  0.10808  -0.000293  0.981268  0.0
H  H6  1  0.62146288  0.98571520  0.74872985  1  0.094048  -5.5e-05  0.919409  0.0  0.108557  -8.2e-05  0.980341  0.0  0.109542  -7.8e-05  0.979528  0.0  0.1133  0.107885  -9.6e-05  0.980906  0.0
H  H7  1  0.46754582  0.50892087  0.21486689  1  0.092369  -0.000701  0.916776  -0.001  0.107404  -0.000653  0.976994  -0.001  0.108311  -0.000534  0.976032  -0.001  0.109681  0.106682  -0.000838  0.977721  -0.001
H  H8  1  0.53245289  0.49104862  0.78511440  1  0.092523  0.00087  0.916602  0.001  0.107513  0.000785  0.976856  0.001  0.108426  0.000635  0.97589  0.001  0.109717  0.106779  0.00099  0.97758  0.001
H  H9  1  0.57528869  0.57674580  0.07266739  1  0.109216  -0.000803  0.899173  -0.001  0.1255  -0.000658  0.953868  -0.001  0.127547  -0.000575  0.951683  -0.001  0.11897  0.123875  -0.000714  0.955728  -0.001
H  H10  1  0.42464489  0.42328231  0.92733233  1  0.109282  0.000968  0.899291  0.001  0.125654  0.000769  0.95387  0.001  0.127708  0.000664  0.951683  0.001  0.118998  0.123997  0.000831  0.955765  0.001
H  H11  1  0.90716724  0.20798031  0.33271469  1  0.090769  -0.001397  0.942738  -0.002  0.104749  -0.001069  1.006206  -0.001  0.105266  -0.000865  1.006283  -0.001  0.109334  0.104384  -0.001222  1.006166  -0.001
H  H12  1  0.09272551  0.79203959  0.66722489  1  0.090702  0.001365  0.942852  0.002  0.10469  0.0009  1.006407  0.001  0.105232  0.000754  1.00644  0.001  0.109357  0.10426  0.000971  1.006485  0.001
H  H13  1  0.99311826  0.28173808  0.18480598  1  0.126433  -0.000965  0.934919  -0.002  0.142796  -0.000507  0.988198  -0.001  0.144044  -0.000412  0.98751  -0.001  0.122142  0.141884  -0.000598  0.98872  -0.001
H  H14  1  0.00678438  0.71823740  0.81515711  1  0.126267  0.001099  0.935134  0.002  0.142762  0.000521  0.988281  0.001  0.144013  0.000455  0.987594  0.001  0.122148  0.141833  0.000568  0.988822  0.001
H  H15  1  0.15372627  0.32753518  0.34914993  1  0.083058  -0.008319  0.890943  -0.011  0.097878  -0.00612  0.945942  -0.007  0.09912  -0.00471  0.941991  -0.006  0.12444  0.09629  -0.007118  0.949648  -0.008
H  H16  1  0.84646789  0.67244126  0.65091911  1  0.083378  0.010033  0.890918  0.011  0.098307  0.007158  0.945749  0.007  0.099581  0.005461  0.941767  0.006  0.124537  0.096632  0.008313  0.949542  0.008
H  H17  1  0.33137906  0.41726090  0.42955432  1  0.086856  -0.000476  0.950394  0.0  0.09886  -0.00046  1.013081  0.0  0.102036  -0.00035  1.010075  0.0  0.102908  0.096154  -0.000569  1.016043  0.0
H  H18  1  0.66870439  0.58268501  0.57045666  1  0.086928  0.000567  0.950369  0.0  0.098732  0.000536  1.013273  0.0  0.101907  0.000403  1.010278  0.0  0.102821  0.096002  0.000661  1.016279  0.0
H  H19  1  0.44649510  0.62543930  0.49581183  1  0.091269  -3e-06  0.967317  0.0  0.104169  -4e-06  1.027227  0.0  0.10607  0.0  1.028114  0.0  0.099111  0.10243  2e-06  1.027458  0.0
H  H20  1  0.55365930  0.37440630  0.50422432  1  0.091267  7e-06  0.96727  0.0  0.104275  1.3e-05  1.02707  0.0  0.106125  6e-06  1.028031  0.0  0.098936  0.102509  6e-06  1.027341  0.0
H  H21  1  0.31320468  0.89386565  0.48319092  1  0.091056  -0.000361  0.920966  -0.001  0.107746  -0.00019  0.967753  0.0  0.110727  -0.000124  0.965375  0.0  0.108927  0.105458  -0.000246  0.969762  0.0
H  H22  1  0.68703415  0.10606279  0.51685443  1  0.090972  0.00043  0.920913  0.001  0.107581  0.000199  0.967815  0.0  0.110569  0.000132  0.965418  0.0  0.108968  0.105285  0.000247  0.969832  0.0
H  H23  1  0.06569751  0.95185650  0.40785261  1  0.107203  0.000108  0.950731  0.0  0.11867  -8.6e-05  1.010118  0.0  0.122372  -5.2e-05  1.008443  0.0  0.102904  0.115944  -0.000127  1.011544  0.0
H  H24  1  0.93449754  0.04808829  0.59218281  1  0.107471  -8.3e-05  0.950156  0.0  0.118947  7.2e-05  1.009618  0.0  0.122675  4.6e-05  1.00789  0.0  0.102965  0.116143  0.000102  1.011159  0.0
H  H25  1  0.36290934  0.79875824  0.10454579  1  0.307521  -0.000937  0.877746  -0.001  0.294953  -0.000865  0.928088  -0.001  0.302984  -0.00062  0.922507  -0.001  0.322978  0.289162  -0.001099  0.932105  -0.001
H  H26  1  0.63690088  0.20125320  0.89524058  1  0.308267  0.000316  0.877532  0.001  0.295642  0.000452  0.927956  0.001  0.303714  0.000394  0.922298  0.001  0.323125  0.289799  0.000482  0.932049  0.001
H  H27  1  0.18907677  0.90618922  0.82292422  1  0.422833  0.000505  0.883366  0.0  0.396099  0.000106  0.941117  0.0  0.408192  4.2e-05  0.923997  0.0  0.288409  0.387314  0.000181  0.953521  0.0
H  H28  1  0.81096819  0.09379002  0.17714658  1  0.422751  -0.00047  0.883396  0.0  0.396023  -0.000722  0.941119  -0.001  0.408082  -0.000427  0.92405  0.0  0.288395  0.387329  -0.001012  0.953376  -0.001
H  H29  1  0.10323361  0.07242152  0.76247877  1  0.412993  -0.000609  0.896425  -0.001  0.385027  -0.000725  0.957267  -0.001  0.396086  -0.000572  0.941166  -0.001  0.287488  0.377061  -0.000843  0.968794  -0.001
H  H30  1  0.89685010  0.92758242  0.23757843  1  0.413115  -0.000449  0.896236  0.0  0.385092  -0.000758  0.957158  -0.001  0.396094  -0.000478  0.941152  -0.001  0.287453  0.377138  -0.001027  0.968674  -0.001
H  H31  1  0.01188737  0.30585247  0.88829377  1  0.383366  -0.001032  0.88736  0.0  0.351283  -0.001426  0.979255  -0.001  0.36239  -0.001168  0.964408  0.0  0.288038  0.342715  -0.001637  0.990268  -0.001
H  H32  1  0.98803609  0.69409875  0.11174013  1  0.383293  0.001158  0.887658  0.001  0.351249  0.000374  0.979453  0.0  0.36234  0.000589  0.964631  0.0  0.288003  0.34264  0.000104  0.990518  0.0
H  H33  1  0.09831574  0.25493466  0.00414561  1  0.406922  0.000352  0.907878  0.001  0.373684  -9.6e-05  0.978559  0.0  0.386244  3.4e-05  0.960602  0.0  0.282933  0.364743  -0.000245  0.991243  0.0
H  H34  1  0.90165833  0.74501433  0.99587680  1  0.407002  0.000431  0.907799  0.001  0.373772  -2.7e-05  0.978392  0.0  0.386332  0.000111  0.960433  0.0  0.282956  0.364836  -0.000184  0.991062  0.0
C  C35  1  0.27371286  0.06956294  0.09068161  1  0.666924  0.003327  3.861671  0.005  0.624361  0.000151  4.171973  0.001  0.658935  0.000262  4.165707  0.001  0.211315  0.600043  0.000191  4.175519  0.001
C  C36  1  0.72616473  0.93051452  0.90925081  1  0.66799  0.003345  3.860897  0.005  0.625658  0.00024  4.170673  0.001  0.660231  0.000315  4.164411  0.001  0.211817  0.601342  0.000322  4.174179  0.001
C  C37  1  0.40761896  0.00091595  0.15682592  1  -0.095733  -0.005716  3.639934  -0.007  -0.159167  -0.003332  3.902401  -0.004  -0.158357  -0.002365  3.908803  -0.003  -0.057833  -0.159363  -0.004297  3.898087  -0.005
C  C38  1  0.59221997  0.99903380  0.84308151  1  -0.095748  -0.005355  3.639234  -0.007  -0.159161  -0.002628  3.901232  -0.003  -0.158374  -0.001867  3.907674  -0.003  -0.058016  -0.15939  -0.003416  3.896956  -0.004
C  C39  1  0.54784568  0.73943334  0.19288225  1  0.563405  -0.000242  3.755885  0.0  0.517638  -0.002328  4.051007  -0.002  0.546758  -0.001625  4.05486  -0.002  0.24953  0.498403  -0.002771  4.047007  -0.002
C  C40  1  0.45191319  0.26059549  0.80709474  1  0.56153  0.001305  3.758647  0.0  0.516708  0.003137  4.052403  0.002  0.545777  0.002251  4.056314  0.002  0.249432  0.497482  0.00365  4.048408  0.003
C  C41  1  0.56766046  0.57180392  0.17020448  1  -0.08265  -0.003507  3.733361  -0.001  -0.137413  -0.003841  3.997128  -0.002  -0.133781  -0.002864  4.008135  -0.001  -0.058413  -0.139651  -0.004484  3.989834  -0.002
C  C42  1  0.43229146  0.42825364  0.82979242  1  -0.082862  0.004885  3.73356  0.001  -0.137924  0.00477  3.997151  0.002  -0.13428  0.003599  4.008151  0.001  -0.058753  -0.140156  0.005473  3.989872  0.002
C  C43  1  0.75588957  0.35093591  0.21758230  1  0.548388  0.005885  3.853206  0.006  0.514578  0.000234  4.142463  0.001  0.545096  0.000948  4.14647  0.002  0.219296  0.493824  -0.000357  4.13919  0.0
C  C44  1  0.24412041  0.64923570  0.78243780  1  0.548637  -0.003804  3.852353  -0.005  0.514868  0.000536  4.141707  -0.001  0.545396  -0.000264  4.14569  -0.002  0.219421  0.494054  0.001107  4.138486  0.0
C  C45  1  0.91065931  0.31250173  0.25960404  1  -0.131  -0.001804  3.681999  0.0  -0.183144  -0.0025  3.931183  -0.001  -0.182158  -0.001625  3.942468  0.0  -0.069476  -0.183348  -0.003199  3.923503  -0.002
C  C46  1  0.08933738  0.68757887  0.74038480  1  -0.13026  0.002048  3.681882  0.0  -0.182849  0.002524  3.931467  0.001  -0.181858  0.001757  3.942675  0.0  -0.069379  -0.183087  0.002991  3.923958  0.001
C  C47  1  0.08062601  0.43830426  0.34248059  1  0.172776  0.018965  3.688786  0.019  0.128664  0.005636  3.94934  0.007  0.149852  0.007541  3.960194  0.009  0.082169  0.114972  0.004031  3.942949  0.005
C  C48  1  0.91951237  0.56166694  0.65752905  1  0.172617  -0.014972  3.689469  -0.019  0.12835  -0.004242  3.949788  -0.007  0.149511  -0.006089  3.960608  -0.009  0.082047  0.114618  -0.002794  3.94351  -0.005
C  C49  1  0.13442250  0.56519089  0.38176897  1  -0.119972  -0.005605  3.81304  -0.008  -0.101954  -0.003056  4.057664  -0.005  -0.117212  -0.002624  4.086877  -0.005  -0.03736  -0.09253  -0.0034  4.037834  -0.006
C  C50  1  0.86572032  0.43479709  0.61822342  1  -0.119963  0.006869  3.81345  0.008  -0.102017  0.003671  4.057895  0.005  -0.117269  0.003154  4.087092  0.005  -0.03743  -0.092574  0.004025  4.038088  0.005
C  C51  1  0.27437152  0.53546804  0.42568531  1  -0.094218  0.00497  3.811579  0.005  -0.127199  0.001416  4.089793  0.002  -0.124278  0.001638  4.110567  0.002  -0.090478  -0.128549  0.001157  4.075186  0.002
C  C52  1  0.72577435  0.46449916  0.57430138  1  -0.09427  -0.003896  3.811783  -0.005  -0.127123  -0.001075  4.090081  -0.002  -0.124217  -0.00129  4.110866  -0.002  -0.090273  -0.128544  -0.000853  4.07559  -0.002
C  C53  1  0.33875084  0.65060449  0.46247223  1  -0.114081  -0.00146  3.809528  -0.002  -0.13661  -0.00026  4.083728  0.0  -0.143946  -0.000528  4.108166  -0.001  -0.111455  -0.131283  -0.000136  4.066711  0.0
C  C54  1  0.66142571  0.34932231  0.53753139  1  -0.114344  0.001789  3.809921  0.002  -0.136988  0.000386  4.084111  0.0  -0.144298  0.000678  4.108567  0.001  -0.111626  -0.1317  0.000256  4.067212  0.0
C  C55  1  0.26324144  0.80184079  0.45501178  1  -0.00982  0.005056  3.76892  0.004  -0.027144  0.001554  4.024424  0.001  -0.021646  0.001908  4.041416  0.002  -0.080045  -0.030947  0.001253  4.012374  0.001
C  C56  1  0.73698705  0.19811074  0.54499978  1  -0.009529  -0.004064  3.769098  -0.004  -0.026745  -0.001282  4.024576  -0.001  -0.021231  -0.001633  4.041525  -0.002  -0.080098  -0.030597  -0.000978  4.012605  -0.001
C  C57  1  0.12502777  0.83480926  0.41397093  1  -0.202993  -0.007663  3.709465  -0.01  -0.220555  -0.00428  3.962707  -0.006  -0.229427  -0.003543  3.980895  -0.005  -0.107848  -0.214248  -0.004914  3.950065  -0.007
C  C58  1  0.87520051  0.16515393  0.58603648  1  -0.203767  0.009026  3.709427  0.009  -0.221538  0.004912  3.96274  0.006  -0.230411  0.004066  3.980873  0.005  -0.108215  -0.215237  0.00559  3.950246  0.006
C  C59  1  0.05464343  0.71826893  0.37833264  1  0.349814  0.005237  3.812832  0.007  0.338187  0.000939  4.066359  0.002  0.357372  0.001575  4.083162  0.003  0.093773  0.325296  0.000341  4.054562  0.002
C  C60  1  0.94551782  0.28171850  0.62169982  1  0.350657  -0.003564  3.813501  -0.007  0.339237  -0.000292  4.066677  -0.003  0.358444  -0.000995  4.08343  -0.003  0.094248  0.326325  0.000309  4.054948  -0.002
N  N61  1  0.43744358  0.83572334  0.14902748  1  -0.388322  -0.000238  3.370615  0.0  -0.329218  -0.00103  3.617344  -0.001  -0.351127  -0.000536  3.628985  0.0  -0.407974  -0.314255  -0.001379  3.608516  -0.001
N  N62  1  0.56234269  0.16424518  0.85081855  1  -0.388067  8.4e-05  3.371502  0.0  -0.329265  0.000579  3.617629  0.0  -0.351142  0.000302  3.629185  0.0  -0.40791  -0.314347  0.000729  3.608922  0.0
N  N63  1  0.70389171  0.50035680  0.21537952  1  -0.511279  -0.100424  3.333323  -0.142  -0.473936  -0.068216  3.665159  -0.098  -0.518318  -0.058223  3.68492  -0.087  -0.448552  -0.447022  -0.072747  3.653686  -0.102
N  N64  1  0.29610546  0.49983304  0.78465002  1  -0.511109  0.121401  3.333812  0.141  -0.473768  0.079754  3.665702  0.098  -0.518051  0.06782  3.685433  0.087  -0.448397  -0.446806  0.0846  3.654252  0.101
N  N65  1  0.95604960  0.44585891  0.29925018  1  -0.307174  -0.101322  3.360936  -0.145  -0.251774  -0.071371  3.666702  -0.106  -0.285548  -0.062762  3.686479  -0.096  -0.380742  -0.232105  -0.075167  3.655239  -0.108
N  N66  1  0.04406782  0.55416303  0.70075984  1  -0.308016  0.12278  3.36363  0.144  -0.252194  0.083539  3.669363  0.105  -0.285826  0.073115  3.689021  0.096  -0.381612  -0.232615  0.087565  3.658017  0.107
O  O67  1  0.09373998  0.97881048  0.82830156  1  -0.843753  -0.03817  1.991434  -0.058  -0.816002  -0.026552  2.201023  -0.04  -0.846  -0.021323  2.167536  -0.033  -0.585205  -0.791572  -0.030871  2.224653  -0.045
O  O68  1  0.90620476  0.02109191  0.17168358  1  -0.843986  -0.042229  1.991285  -0.064  -0.815896  -0.029145  2.200882  -0.044  -0.845665  -0.022582  2.167426  -0.035  -0.585525  -0.791883  -0.035118  2.224513  -0.051
O  O69  1  0.00020376  0.25075715  0.97214860  1  -0.778259  -0.042004  1.922021  -0.062  -0.747788  -0.030356  2.134273  -0.045  -0.773175  -0.023513  2.100839  -0.036  -0.56574  -0.726699  -0.036749  2.157962  -0.052
O  O70  1  0.99974388  0.74918911  0.02788445  1  -0.778162  -0.040952  1.921994  -0.06  -0.747622  -0.029003  2.133932  -0.043  -0.772973  -0.022118  2.100524  -0.034  -0.565655  -0.726523  -0.035514  2.157657  -0.051
O  O71  1  0.20894674  0.96860248  0.05515881  1  -0.619377  -0.047235  2.061657  -0.073  -0.58939  -0.029404  2.324208  -0.046  -0.623773  -0.022681  2.313491  -0.037  -0.313832  -0.562583  -0.035579  2.331011  -0.055
O  O72  1  0.79089892  0.03154999  0.94472609  1  -0.619893  -0.046222  2.06183  -0.072  -0.590049  -0.028559  2.324272  -0.045  -0.624533  -0.022209  2.313571  -0.036  -0.313621  -0.563067  -0.034191  2.331002  -0.053
O  O73  1  0.23879593  0.21636737  0.07755764  1  -0.617911  0.000852  1.91996  0.001  -0.570843  0.000489  2.133733  0.0  -0.595669  0.000651  2.12346  0.001  -0.326754  -0.553479  0.000269  2.140822  0.0
O  O74  1  0.76113645  0.78372450  0.92240102  1  -0.618085  0.000904  1.920052  0.001  -0.571268  0.000541  2.133763  0.0  -0.596125  0.000664  2.123508  0.001  -0.326869  -0.553853  0.000432  2.140807  0.0
O  O75  1  0.63652734  0.78594050  0.25115302  1  -0.536806  -0.047435  2.013815  -0.071  -0.493098  -0.039717  2.274579  -0.063  -0.525836  -0.033651  2.263545  -0.055  -0.309181  -0.472401  -0.044004  2.282765  -0.067
O  O76  1  0.36305145  0.21414175  0.74895752  1  -0.535296  0.057764  2.016901  0.071  -0.492357  0.046731  2.277905  0.062  -0.52501  0.039513  2.26686  0.055  -0.30944  -0.471709  0.05134  2.286195  0.066
O  O77  1  0.69064477  0.24762160  0.18781984  1  -0.568511  -0.018616  1.900726  -0.027  -0.528493  -0.008427  2.107127  -0.013  -0.554024  -0.004128  2.099532  -0.007  -0.319582  -0.510013  -0.013276  2.111618  -0.02
O  O78  1  0.30935776  0.75255255  0.81222002  1  -0.568692  0.019715  1.900474  0.023  -0.528708  0.008766  2.106994  0.011  -0.554267  0.004358  2.099354  0.006  -0.319744  -0.510106  0.013569  2.111545  0.017
O  O79  1  0.91999261  0.75693653  0.34520569  1  -0.592552  -0.056493  2.164145  -0.086  -0.540985  -0.04023  2.435719  -0.064  -0.579811  -0.032877  2.426404  -0.055  -0.34982  -0.51549  -0.045245  2.442533  -0.07
O  O80  1  0.08009557  0.24307616  0.65493792  1  -0.592522  0.068451  2.165425  0.085  -0.541031  0.047053  2.436854  0.064  -0.579802  0.038463  2.427491  0.054  -0.34999  -0.515649  0.052324  2.443809  0.069
