# generated using pymatgen
data_Zr3H23C45Br5O16
_symmetry_space_group_name_H-M   'P 1'
_cell_length_a   19.19539337
_cell_length_b   19.15705396
_cell_length_c   19.18643612
_cell_angle_alpha   59.49887338
_cell_angle_beta   59.88317969
_cell_angle_gamma   60.03427530
_symmetry_Int_Tables_number   1
_chemical_formula_structural   Zr3H23C45Br5O16
_chemical_formula_sum   'Zr6 H46 C90 Br10 O32'
_cell_volume   4966.63816991
_cell_formula_units_Z   2
loop_
 _symmetry_equiv_pos_site_id
 _symmetry_equiv_pos_as_xyz
  1  'x, y, z'
loop_
 _atom_site_type_symbol
 _atom_site_label
 _atom_site_symmetry_multiplicity
 _atom_site_fract_x
 _atom_site_fract_y
 _atom_site_fract_z
 _atom_site_occupancy
 _atom_site_pbe_bader_charge
 _atom_site_pbe_bader_spin_density
 _atom_site_pbe_cm5_charge
 _atom_site_pbe_ddec_charge
 _atom_site_pbe_ddec_spin_density
 _atom_site_pbe_ddec_sum_bond_order
 _atom_site_pbe_magmom
Zr  Zr0  1  0.90665106  0.40825220  0.59179652  1  2.632516  0  1.625974  2.381001  0  2.755715  0
Zr  Zr1  1  0.09330549  0.59116861  0.40888519  1  2.638211  0  1.625687  2.380013  0  2.758384  0
Zr  Zr2  1  0.09063987  0.40506487  0.59492123  1  2.633426  0  1.620495  2.377815  0  2.739189  0
Zr  Zr3  1  0.90941915  0.59427961  0.40567071  1  2.633978  0  1.620609  2.378151  0  2.739938  0
Zr  Zr4  1  0.90818718  0.59150358  0.59210678  1  2.634902  0  1.626588  2.380569  0  2.76159  0
Zr  Zr5  1  0.09181440  0.40786775  0.40850231  1  2.635353  0  1.626027  2.37956  0  2.760037  0
H  H6  1  0.92573124  0.42564170  0.71895712  1  0.600912  0  0.332019  0.424521  0  0.853916  0
H  H7  1  0.92969220  0.71835415  0.42619515  1  0.637881  0  0.332084  0.424729  0  0.854883  0
H  H8  1  0.21725805  0.42575400  0.42946689  1  0.62184  0  0.331561  0.423736  0  0.856156  0
H  H9  1  0.92754031  0.42882125  0.42638313  1  0.611451  0  0.331236  0.424048  0  0.854841  0
H  H10  1  0.45471000  0.61339196  0.04572959  1  0.064512  0  0.10084  0.108481  0  1.034172  0
H  H11  1  0.54597965  0.38545216  0.95534258  1  0.100162  0  0.100766  0.108135  0  1.033302  0
H  H12  1  0.68105110  0.60705597  0.81492371  1  0.132782  0  0.103622  0.106509  0  1.028308  0
H  H13  1  0.55493037  0.61199601  0.94456034  1  0.047617  0  0.10527  0.108943  0  1.00629  0
H  H14  1  0.31490791  0.39654647  0.18163777  1  0.125853  0  0.103676  0.106748  0  1.028807  0
H  H15  1  0.44396400  0.38854700  0.05495679  1  0.051381  0  0.105356  0.10902  0  1.005821  0
H  H16  1  0.11298523  0.95506209  0.38549203  1  0.072658  0  0.100812  0.108437  0  1.033403  0
H  H17  1  0.88591965  0.04546192  0.61343613  1  0.064311  0  0.100996  0.108346  0  1.033996  0
H  H18  1  0.10681739  0.18122048  0.39687153  1  0.08926  0  0.1039  0.106832  0  1.028413  0
H  H19  1  0.11232994  0.05470422  0.38865014  1  0.015536  0  0.10535  0.108846  0  1.006  0
H  H20  1  0.89683608  0.81456778  0.60735998  1  0.12509  0  0.10349  0.106582  0  1.028267  0
H  H21  1  0.88828583  0.94435361  0.61207158  1  0.080756  0  0.105469  0.109436  0  1.006052  0
H  H22  1  0.45369572  0.04707136  0.38634013  1  0.069467  0  0.100406  0.107766  0  1.033955  0
H  H23  1  0.54778385  0.95383245  0.61285893  1  0.07788  0  0.100582  0.107876  0  1.033681  0
H  H24  1  0.67891414  0.81528814  0.39824670  1  0.094174  0  0.107161  0.112063  0  1.011146  0
H  H25  1  0.55274828  0.94466863  0.38977649  1  0.0488  0  0.105204  0.108392  0  1.006441  0
H  H26  1  0.31707365  0.18026911  0.60635396  1  0.094748  0  0.107777  0.11237  0  1.008948  0
H  H27  1  0.44694590  0.05468000  0.61110290  1  0.036417  0  0.105133  0.108156  0  1.006543  0
H  H28  1  0.88572719  0.61280050  0.95402694  1  0.050332  0  0.100228  0.107671  0  1.034054  0
H  H29  1  0.11307720  0.38627854  0.04724557  1  0.084645  0  0.100536  0.107799  0  1.034334  0
H  H30  1  0.89640216  0.60604930  0.18074363  1  0.138004  0  0.107809  0.112407  0  1.009093  0
H  H31  1  0.88747071  0.61106059  0.05495839  1  0.052864  0  0.105237  0.108429  0  1.005898  0
H  H32  1  0.10766939  0.39799126  0.81572449  1  0.140828  0  0.107405  0.112358  0  1.011343  0
H  H33  1  0.11301979  0.38973671  0.94494839  1  0.052389  0  0.105147  0.107704  0  1.007127  0
H  H34  1  0.11429717  0.82150246  0.17578645  1  0.080436  0  0.098086  0.103331  0  1.036956  0
H  H35  1  0.17630651  0.93472898  0.06543872  1  0.038599  0  0.099853  0.106285  0  0.999793  0
H  H36  1  0.89176135  0.81730999  0.17912820  1  0.077147  0  0.102646  0.107331  0  1.0353  0
H  H37  1  0.88844574  0.17523023  0.82203848  1  0.092849  0  0.098287  0.103192  0  1.036026  0
H  H38  1  0.82353844  0.06486783  0.93529395  1  0.057364  0  0.099877  0.106394  0  0.999005  0
H  H39  1  0.11178246  0.17859592  0.81790873  1  0.094887  0  0.102429  0.107594  0  1.034676  0
H  H40  1  0.45512618  0.38428398  0.61475641  1  0.085265  0  0.100574  0.108382  0  1.032521  0
H  H41  1  0.54587403  0.61438050  0.38468321  1  0.090136  0  0.100614  0.108374  0  1.032531  0
H  H42  1  0.68120441  0.39830348  0.60565217  1  0.113749  0  0.104502  0.108133  0  1.025931  0
H  H43  1  0.55517658  0.38833414  0.61255377  1  0.077345  0  0.105548  0.10925  0  1.005144  0
H  H44  1  0.31475167  0.60515567  0.39882471  1  0.10972  0  0.104374  0.108184  0  1.026059  0
H  H45  1  0.44381275  0.61217852  0.38877402  1  0.056753  0  0.105491  0.109284  0  1.005339  0
H  H46  1  0.19772469  0.08931416  0.97600181  1  0.051278  0  0.094477  0.130413  0  0.988912  0
H  H47  1  0.19686502  0.13012362  0.87037180  1  0.051877  0  0.091241  0.126091  0  1.023055  0
H  H48  1  0.26321832  0.02464057  0.91053211  1  0.062542  0  0.094747  0.130715  0  0.988738  0
H  H49  1  0.73696301  0.97551207  0.08980788  1  0.057822  0  0.094628  0.130331  0  0.98928  0
H  H50  1  0.80257868  0.86986993  0.13068505  1  0.042773  0  0.091213  0.125997  0  1.023581  0
H  H51  1  0.80162437  0.91000617  0.02517522  1  0.053588  0  0.094765  0.130777  0  0.9887  0
C  C52  1  0.76262161  0.49952497  0.73163755  1  1.550748  0  0.233293  0.647681  0  4.101646  0
C  C53  1  0.00617117  0.73110483  0.50000297  1  1.562088  0  0.234114  0.648684  0  4.099963  0
C  C54  1  0.23287565  0.50466004  0.26435926  1  1.572088  0  0.23357  0.648183  0  4.099501  0
C  C55  1  0.99814682  0.26373957  0.50518337  1  1.565533  0  0.233992  0.648356  0  4.098558  0
C  C56  1  0.00068987  0.26119834  0.73477829  1  1.530051  0  0.235764  0.645299  0  4.080292  0
C  C57  1  0.76353204  0.50803180  0.49631266  1  1.577759  0  0.234821  0.65009  0  4.093856  0
C  C58  1  0.00339528  0.73414458  0.26176777  1  1.524443  0  0.235722  0.645852  0  4.081402  0
C  C59  1  0.23211229  0.49573260  0.50862224  1  1.569182  0  0.234224  0.649786  0  4.092932  0
C  C60  1  0.99838402  0.50417167  0.73341914  1  1.579124  0  0.233467  0.648696  0  4.099996  0
C  C61  1  0.23088346  0.26143313  0.50101995  1  1.551167  0  0.232939  0.646876  0  4.10084  0
C  C62  1  0.00669910  0.50047171  0.26200795  1  1.569785  0  0.233227  0.646921  0  4.103276  0
C  C63  1  0.76409501  0.73285590  0.50466094  1  1.574323  0  0.233737  0.648318  0  4.10107  0
C  C64  1  0.31078781  0.50767931  0.18641058  1  0.054079  0  -0.019286  -0.090668  0  3.922048  0
C  C65  1  0.68556758  0.49558443  0.81042779  1  0.020387  0  -0.019215  -0.090926  0  3.922861  0
C  C66  1  0.35230809  0.56859094  0.14598968  1  -0.125956  0  -0.002601  0.11733  0  3.912466  0
C  C67  1  0.42558620  0.56466525  0.07403516  1  0.072877  0  -0.095797  -0.190798  0  3.968144  0
C  C68  1  0.64560428  0.43311948  0.85231284  1  -0.05781  0  -0.003212  0.116038  0  3.914337  0
C  C69  1  0.57392729  0.43535988  0.92589883  1  0.028435  0  -0.095264  -0.189249  0  3.968122  0
C  C70  1  0.65008675  0.55891436  0.84685187  1  -0.069806  0  -0.077679  -0.066583  0  3.977036  0
C  C71  1  0.57885589  0.56114100  0.92000497  1  -0.033973  0  -0.088588  -0.132281  0  3.966581  0
C  C72  1  0.34682631  0.44372174  0.15062589  1  -0.064629  0  -0.077433  -0.066415  0  3.976938  0
C  C73  1  0.41968857  0.43980053  0.07910304  1  0.019107  0  -0.089259  -0.133466  0  3.966641  0
C  C74  1  0.46110241  0.50073174  0.03866758  1  -0.062401  0  0.002568  0.096595  0  3.970545  0
C  C75  1  0.53844649  0.49920838  0.96135735  1  -0.04176  0  0.002362  0.095706  0  3.971785  0
C  C76  1  0.00829291  0.81001267  0.49589691  1  0.023752  0  -0.019681  -0.092167  0  3.922714  0
C  C77  1  0.99504883  0.18592571  0.50803603  1  -0.036691  0  -0.018937  -0.090134  0  3.922568  0
C  C78  1  0.06877556  0.85194841  0.43331999  1  -0.119266  0  -0.002837  0.117426  0  3.912976  0
C  C79  1  0.06458973  0.92561732  0.43544029  1  -0.010717  0  -0.09584  -0.19077  0  3.96731  0
C  C80  1  0.93295282  0.14558847  0.56883642  1  -0.057202  0  -0.003033  0.116298  0  3.915304  0
C  C81  1  0.93550392  0.07373450  0.56477089  1  -0.001844  0  -0.096062  -0.190883  0  3.970111  0
C  C82  1  0.05871606  0.15021592  0.44400584  1  0.05369  0  -0.077566  -0.06682  0  3.97852  0
C  C83  1  0.06122594  0.07881041  0.43994961  1  -0.016107  0  -0.089246  -0.133046  0  3.967573  0
C  C84  1  0.94398346  0.84651654  0.55915435  1  0.009344  0  -0.07736  -0.065685  0  3.976742  0
C  C85  1  0.93978389  0.91975712  0.56124599  1  -0.081387  0  -0.089301  -0.133748  0  3.967939  0
C  C86  1  0.00076869  0.96111135  0.49927656  1  0.051209  0  0.003054  0.096547  0  3.969702  0
C  C87  1  0.99929318  0.03840549  0.50081878  1  0.001677  0  0.002605  0.097156  0  3.969865  0
C  C88  1  0.31021869  0.18513627  0.49623458  1  0.024105  0  -0.018573  -0.090917  0  3.92217  0
C  C89  1  0.68609454  0.81056507  0.50812026  1  0.054201  0  -0.018877  -0.090455  0  3.922373  0
C  C90  1  0.35133951  0.14595515  0.43387919  1  -0.140796  0  -0.00341  0.116001  0  3.912754  0
C  C91  1  0.42506770  0.07457782  0.43595496  1  0.05467  0  -0.094939  -0.189945  0  3.967789  0
C  C92  1  0.64682653  0.85160701  0.56861711  1  -0.135154  0  -0.002125  0.117275  0  3.911938  0
C  C93  1  0.57509171  0.92503712  0.56454314  1  0.069314  0  -0.096474  -0.191417  0  3.968544  0
C  C94  1  0.64906265  0.84714530  0.44474968  1  -0.061591  0  -0.077348  -0.067224  0  3.979468  0
C  C95  1  0.57776558  0.92010833  0.44066241  1  -0.035155  0  -0.08906  -0.133747  0  3.970795  0
C  C96  1  0.34807292  0.14950705  0.55872831  1  0.00544  0  -0.077093  -0.066352  0  3.97866  0
C  C97  1  0.42142065  0.07866502  0.56076089  1  -0.015161  0  -0.088539  -0.133542  0  3.969519  0
C  C98  1  0.46161165  0.03862933  0.49935959  1  -0.01307  0  0.002341  0.096416  0  3.968964  0
C  C99  1  0.53868634  0.96119023  0.50098505  1  0.029348  0  0.002852  0.09639  0  3.96999  0
C  C100  1  0.99529104  0.50781453  0.81098964  1  0.04171  0  -0.018653  -0.090447  0  3.922677  0
C  C101  1  0.00850627  0.49590433  0.18556073  1  0.017955  0  -0.0195  -0.092298  0  3.922265  0
C  C102  1  0.93305462  0.56840048  0.85193062  1  -0.143987  0  -0.002395  0.116812  0  3.913023  0
C  C103  1  0.93548703  0.56443035  0.92528915  1  0.018809  0  -0.095155  -0.190528  0  3.968647  0
C  C104  1  0.06896554  0.43364632  0.14626015  1  -0.129791  0  -0.002496  0.118026  0  3.911048  0
C  C105  1  0.06456827  0.43585076  0.07480635  1  0.020951  0  -0.095722  -0.190949  0  3.968648  0
C  C106  1  0.94381730  0.55848956  0.14989911  1  0.011966  0  -0.0769  -0.065823  0  3.976992  0
C  C107  1  0.93933093  0.56066581  0.07895538  1  -0.071408  0  -0.089003  -0.134409  0  3.968612  0
C  C108  1  0.05916535  0.44453456  0.84753143  1  -0.02202  0  -0.077496  -0.067719  0  3.980247  0
C  C109  1  0.06164724  0.44056633  0.92039790  1  -0.073311  0  -0.088872  -0.132698  0  3.971137  0
C  C110  1  0.99931446  0.50091885  0.96143997  1  0.042197  0  0.00248  0.096744  0  3.970596  0
C  C111  1  0.00057876  0.49929775  0.03886454  1  0.022207  0  0.002743  0.096419  0  3.970031  0
C  C112  1  0.06516403  0.85045504  0.14712304  1  -0.008998  0  -0.082351  -0.13987  0  3.932172  0
C  C113  1  0.06472155  0.92469806  0.07405574  1  -0.037795  0  -0.008346  0.083634  0  4.063313  0
C  C114  1  0.12795677  0.96425138  0.03535998  1  -0.020378  0  -0.095432  -0.20623  0  3.969864  0
C  C115  1  0.93878259  0.84913339  0.14806849  1  0.027246  0  -0.084701  -0.137769  0  3.939597  0
C  C116  1  0.93534047  0.92354818  0.07504645  1  5.2e-05  0  -0.006412  0.019539  0  3.987182  0
C  C117  1  0.87007445  0.96274947  0.03674815  1  -0.013652  0  -0.005789  0.13007  0  3.963205  0
C  C118  1  0.93728850  0.14655809  0.85100602  1  -0.023622  0  -0.08283  -0.139692  0  3.932714  0
C  C119  1  0.93655497  0.07348621  0.92524167  1  -0.038406  0  -0.007728  0.084409  0  4.065317  0
C  C120  1  0.87246486  0.03478555  0.96479552  1  -0.041253  0  -0.09593  -0.207195  0  3.970752  0
C  C121  1  0.06404291  0.14749231  0.84971776  1  -0.035144  0  -0.085065  -0.139597  0  3.938656  0
C  C122  1  0.06609419  0.07446023  0.92411453  1  0.043956  0  -0.006379  0.020734  0  3.985886  0
C  C123  1  0.13045533  0.03618973  0.96330079  1  0.006409  0  -0.005776  0.129715  0  3.962295  0
C  C124  1  0.00273967  0.81288880  0.18365013  1  -0.047763  0  -0.024131  -0.043817  0  4.014162  0
C  C125  1  0.99994113  0.96187244  0.03704027  1  0.000734  0  0.003456  0.0026  0  3.925683  0
C  C126  1  0.00073119  0.18308795  0.81348713  1  -0.019303  0  -0.023822  -0.043035  0  4.015079  0
C  C127  1  0.00116918  0.03647319  0.96241863  1  -0.077803  0  0.003345  0.001842  0  3.927059  0
C  C128  1  0.31049897  0.49274600  0.51077336  1  -0.001905  0  -0.019588  -0.091547  0  3.918401  0
C  C129  1  0.68595395  0.51028759  0.49326876  1  0.008643  0  -0.020042  -0.092486  0  3.919761  0
C  C130  1  0.35241831  0.43066830  0.57122152  1  -0.101659  0  -0.002818  0.118109  0  3.913412  0
C  C131  1  0.42578096  0.43398487  0.56624928  1  -0.019274  0  -0.096711  -0.191679  0  3.964488  0
C  C132  1  0.64570302  0.57078114  0.43115527  1  -0.112528  0  -0.002762  0.118498  0  3.913862  0
C  C133  1  0.57399229  0.56586205  0.43440588  1  -0.00193  0  -0.096507  -0.191826  0  3.964398  0
C  C134  1  0.65026513  0.44538757  0.55758037  1  -0.027393  0  -0.076927  -0.06618  0  3.974102  0
C  C135  1  0.57903103  0.44039530  0.56087730  1  -0.040306  0  -0.088907  -0.132505  0  3.963932  0
C  C136  1  0.34671384  0.55709482  0.44588440  1  -0.012423  0  -0.076676  -0.066505  0  3.973776  0
C  C137  1  0.41963366  0.56046537  0.44083791  1  -0.00988  0  -0.089063  -0.132196  0  3.964597  0
C  C138  1  0.46122527  0.49867250  0.50156643  1  0.045859  0  0.003468  0.096257  0  3.966174  0
C  C139  1  0.53853122  0.50117128  0.49906338  1  0.011953  0  0.002937  0.096811  0  3.965322  0
C  C140  1  0.20027983  0.07254062  0.92759660  1  -0.115901  0  -0.235445  -0.405478  0  3.977798  0
C  C141  1  0.79958190  0.92708064  0.07307581  1  -0.107518  0  -0.235745  -0.405487  0  3.979789  0
Br  Br142  1  0.31628520  0.66147426  0.18182561  1  -0.046975  0  0.023818  -0.063106  0  1.43961  0
Br  Br143  1  0.68210544  0.33995081  0.81667418  1  -0.050924  0  0.023941  -0.063152  0  1.439986  0
Br  Br144  1  0.16103497  0.81629945  0.34012736  1  -0.050315  0  0.024021  -0.06329  0  1.440191  0
Br  Br145  1  0.84028047  0.18140082  0.66173355  1  -0.048542  0  0.024024  -0.062687  0  1.439651  0
Br  Br146  1  0.31426706  0.18273381  0.34135170  1  -0.051458  0  0.023451  -0.063249  0  1.440963  0
Br  Br147  1  0.68413340  0.81495187  0.66094648  1  -0.052463  0  0.023286  -0.063485  0  1.441514  0
Br  Br148  1  0.84009530  0.66070228  0.81522737  1  -0.053261  0  0.023007  -0.063664  0  1.442279  0
Br  Br149  1  0.16180015  0.34107081  0.18299813  1  -0.048514  0  0.0233  -0.063733  0  1.440587  0
Br  Br150  1  0.31653548  0.33674299  0.66482744  1  -0.054441  0  0.02099  -0.07001  0  1.410137  0
Br  Br151  1  0.68199405  0.66435121  0.33721375  1  -0.059004  0  0.021106  -0.06986  0  1.409727  0
O  O152  1  0.79384513  0.44284118  0.69802491  1  -1.179307  0  -0.366185  -0.623244  0  2.391314  0
O  O153  1  0.06530552  0.69739875  0.44341042  1  -1.179392  0  -0.365851  -0.622665  0  2.391951  0
O  O154  1  0.20114199  0.56199004  0.29731557  1  -1.17889  0  -0.365769  -0.622909  0  2.391826  0
O  O155  1  0.93970724  0.29657544  0.56263532  1  -1.181007  0  -0.366166  -0.623404  0  2.390925  0
O  O156  1  0.06004740  0.29241273  0.70394534  1  -1.179583  0  -0.367626  -0.630982  0  2.284836  0
O  O157  1  0.79657190  0.56638811  0.43798998  1  -1.192162  0  -0.365643  -0.626811  0  2.380851  0
O  O158  1  0.94366486  0.70330670  0.29297140  1  -1.181645  0  -0.367671  -0.631174  0  2.286138  0
O  O159  1  0.19905532  0.43741092  0.56702870  1  -1.182954  0  -0.365288  -0.626368  0  2.380186  0
O  O160  1  0.94102331  0.56251881  0.69992713  1  -1.187763  0  -0.366608  -0.623462  0  2.392991  0
O  O161  1  0.19820282  0.29465379  0.44285620  1  -1.176081  0  -0.366207  -0.621947  0  2.391193  0
O  O162  1  0.06428486  0.44223892  0.29525092  1  -1.17761  0  -0.365459  -0.621202  0  2.392387  0
O  O163  1  0.79651970  0.69933527  0.56307462  1  -1.177576  0  -0.366259  -0.62287  0  2.394766  0
O  O164  1  0.20202271  0.28891007  0.56185451  1  -1.172352  0  -0.344312  -0.61185  0  2.260267  0
O  O165  1  0.94720781  0.56123916  0.28957304  1  -1.181505  0  -0.344804  -0.612004  0  2.261616  0
O  O166  1  0.79367814  0.70618622  0.44306801  1  -1.175844  0  -0.344684  -0.611384  0  2.26091  0
O  O167  1  0.05704139  0.44252574  0.70682164  1  -1.176346  0  -0.344396  -0.611408  0  2.260591  0
O  O168  1  0.94153875  0.29263538  0.70403991  1  -1.173947  0  -0.348805  -0.613633  0  2.283147  0
O  O169  1  0.20442992  0.55588018  0.44748557  1  -1.175621  0  -0.345564  -0.610175  0  2.276792  0
O  O170  1  0.06184190  0.70341595  0.29320386  1  -1.177529  0  -0.348672  -0.613894  0  2.283897  0
O  O171  1  0.79216635  0.44688302  0.55648215  1  -1.179158  0  -0.345546  -0.609889  0  2.276934  0
O  O172  1  0.05811996  0.29298950  0.44471798  1  -1.17688  0  -0.346863  -0.611322  0  2.279141  0
O  O173  1  0.79276246  0.55850768  0.70394194  1  -1.173207  0  -0.346294  -0.610317  0  2.28096  0
O  O174  1  0.94476118  0.70340441  0.55902887  1  -1.174177  0  -0.347189  -0.61139  0  2.280469  0
O  O175  1  0.20411388  0.44420831  0.29358315  1  -1.173818  0  -0.346434  -0.611217  0  2.279251  0
O  O176  1  0.94811728  0.44950999  0.44691680  1  -1.237289  0  -0.69474  -1.067054  0  2.363121  0
O  O177  1  0.15545858  0.44625627  0.45018527  1  -1.249947  0  -0.694939  -1.066448  0  2.364584  0
O  O178  1  0.94941098  0.65619477  0.44754089  1  -1.267283  0  -0.69542  -1.068023  0  2.365017  0
O  O179  1  0.94685085  0.44694827  0.65679742  1  -1.227355  0  -0.695339  -1.067506  0  2.362569  0
O  O180  1  0.03840153  0.53643235  0.53965787  1  -1.198835  0  -0.791495  -1.148051  0  2.127808  0
O  O181  1  0.88552692  0.53901544  0.53705282  1  -1.196357  0  -0.791621  -1.148163  0  2.127533  0
O  O182  1  0.03913459  0.53883563  0.38484924  1  -1.195843  0  -0.791672  -1.147556  0  2.128703  0
O  O183  1  0.03717745  0.38426330  0.53946301  1  -1.194647  0  -0.7916  -1.147876  0  2.12861  0
