# generated using pymatgen
data_PrH8(CO)9
_symmetry_space_group_name_H-M   'P 1'
_cell_length_a   7.84560319
_cell_length_b   8.56473711
_cell_length_c   9.69801907
_cell_angle_alpha   68.36671656
_cell_angle_beta   76.80013801
_cell_angle_gamma   76.16167566
_symmetry_Int_Tables_number   1
_chemical_formula_structural   PrH8(CO)9
_chemical_formula_sum   'Pr2 H16 C18 O18'
_cell_volume   581.04331955
_cell_formula_units_Z   2
loop_
 _symmetry_equiv_pos_site_id
 _symmetry_equiv_pos_as_xyz
  1  'x, y, z'
loop_
 _atom_site_type_symbol
 _atom_site_label
 _atom_site_symmetry_multiplicity
 _atom_site_fract_x
 _atom_site_fract_y
 _atom_site_fract_z
 _atom_site_occupancy
 _atom_site_hle17_bader_spin_density
 _atom_site_hle17_ddec_charge
 _atom_site_hle17_ddec_spin_density
 _atom_site_hle17_ddec_sum_bond_order
 _atom_site_hle17_magmom
 _atom_site_hse06_10hf_bader_spin_density
 _atom_site_hse06_10hf_ddec_charge
 _atom_site_hse06_10hf_ddec_spin_density
 _atom_site_hse06_10hf_ddec_sum_bond_order
 _atom_site_hse06_10hf_magmom
 _atom_site_hse06_bader_spin_density
 _atom_site_hse06_ddec_charge
 _atom_site_hse06_ddec_spin_density
 _atom_site_hse06_ddec_sum_bond_order
 _atom_site_hse06_magmom
 _atom_site_pbe_bader_spin_density
 _atom_site_pbe_cm5_charge
 _atom_site_pbe_ddec_charge
 _atom_site_pbe_ddec_spin_density
 _atom_site_pbe_ddec_sum_bond_order
 _atom_site_pbe_magmom
Pr  Pr0  1  0.25104473  0.27465628  0.45247119  1  0  2.339228  0  1.616249  0  0  2.224937  0  1.995618  0  0  2.262031  0  1.951488  0  0  1.486642  2.150324  0  2.114373  0
Pr  Pr1  1  0.74895275  0.72534802  0.54753017  1  0  2.339285  0  1.61622  0  0  2.225001  0  1.995582  0  0  2.262094  0  1.951454  0  0  1.486635  2.150346  0  2.114412  0
H  H2  1  0.00980204  0.31325795  0.23031835  1  0  0.425788  0  0.873769  0  0  0.393584  0  0.938738  0  0  0.404265  0  0.922976  0  0  0.305496  0.386325  0  0.949195  0
H  H3  1  0.99020285  0.68674126  0.76968208  1  0  0.425831  0  0.873711  0  0  0.39359  0  0.938733  0  0  0.404272  0  0.922968  0  0  0.305482  0.386331  0  0.949189  0
H  H4  1  0.88417582  0.38789206  0.35725685  1  0  0.437521  0  0.862332  0  0  0.404571  0  0.929024  0  0  0.41665  0  0.911241  0  0  0.30319  0.39599  0  0.941455  0
H  H5  1  0.11582978  0.61211094  0.64274428  1  0  0.437607  0  0.862214  0  0  0.404663  0  0.928894  0  0  0.416746  0  0.911104  0  0  0.303187  0.396083  0  0.941324  0
H  H6  1  0.83881923  0.60149986  0.01948886  1  0  0.407658  0  0.792776  0  0  0.394312  0  0.840017  0  0  0.401903  0  0.83214  0  0  0.352648  0.388864  0  0.845874  0
H  H7  1  0.16118140  0.39849303  0.98051034  1  0  0.40759  0  0.792775  0  0  0.394243  0  0.840024  0  0  0.401831  0  0.832148  0  0  0.352607  0.388795  0  0.84588  0
H  H8  1  0.68568899  0.74453404  0.18937847  1  0  0.122677  0  0.967124  0  0  0.128313  0  1.035517  0  0  0.132453  0  1.03237  0  0  0.113004  0.125406  0  1.037491  0
H  H9  1  0.31430966  0.25546268  0.81061991  1  0  0.122772  0  0.967068  0  0  0.128377  0  1.035483  0  0  0.132515  0  1.032336  0  0  0.113018  0.12547  0  1.037457  0
H  H10  1  0.98730128  0.97759689  0.75920764  1  0  0.123924  0  0.956659  0  0  0.134149  0  1.019514  0  0  0.137738  0  1.016797  0  0  0.119789  0.131706  0  1.021014  0
H  H11  1  0.01269655  0.02239727  0.24079277  1  0  0.123915  0  0.956657  0  0  0.134149  0  1.019497  0  0  0.137739  0  1.016772  0  0  0.119805  0.131709  0  1.020988  0
H  H12  1  0.63762371  0.29172317  0.00249870  1  0  0.121872  0  0.9268  0  0  0.129959  0  0.988558  0  0  0.134933  0  0.983837  0  0  0.113401  0.126165  0  0.992492  0
H  H13  1  0.36237251  0.70827230  0.99749956  1  0  0.121886  0  0.926811  0  0  0.129995  0  0.98853  0  0  0.134969  0  0.98381  0  0  0.113423  0.126191  0  0.992475  0
H  H14  1  0.32652912  0.91514865  0.48044925  1  0  0.427058  0  0.879121  0  0  0.395222  0  0.945184  0  0  0.406411  0  0.928762  0  0  0.298929  0.387669  0  0.955937  0
H  H15  1  0.67347424  0.08485065  0.51954528  1  0  0.427038  0  0.879161  0  0  0.395148  0  0.945297  0  0  0.406337  0  0.928875  0  0  0.298895  0.387595  0  0.956051  0
H  H16  1  0.13244867  0.88507129  0.57014071  1  0  0.451063  0  0.838052  0  0  0.42543  0  0.891507  0  0  0.435678  0  0.876556  0  0  0.30301  0.417773  0  0.902631  0
H  H17  1  0.86755247  0.11493311  0.42985264  1  0  0.451087  0  0.838015  0  0  0.42545  0  0.891477  0  0  0.435699  0  0.876522  0  0  0.303045  0.417793  0  0.9026  0
C  C18  1  0.52927204  0.03251559  0.25052604  1  0  0.715922  0  3.849984  0  0  0.666787  0  4.143608  0  0  0.701942  0  4.132351  0  0  0.239157  0.642984  0  4.146464  0
C  C19  1  0.47073326  0.96748872  0.74947267  1  0  0.716009  0  3.849932  0  0  0.666858  0  4.143586  0  0  0.702017  0  4.13232  0  0  0.239181  0.643054  0  4.146443  0
C  C20  1  0.64989328  0.01956424  0.11016074  1  0  -0.054029  0  3.770119  0  0  -0.027004  0  4.006356  0  0  -0.035516  0  4.030602  0  0  -0.011536  -0.021839  0  3.990529  0
C  C21  1  0.35009920  0.98042996  0.88983766  1  0  -0.053938  0  3.770037  0  0  -0.026923  0  4.006277  0  0  -0.035438  0  4.030521  0  0  -0.011532  -0.021753  0  3.990448  0
C  C22  1  0.72143322  0.85788639  0.09817576  1  0  -0.18621  0  3.706424  0  0  -0.223461  0  3.964611  0  0  -0.224908  0  3.983145  0  0  -0.086499  -0.221995  0  3.952051  0
C  C23  1  0.27856124  0.14211162  0.90182204  1  0  -0.186451  0  3.706411  0  0  -0.223664  0  3.964602  0  0  -0.225109  0  3.983134  0  0  -0.08655  -0.222199  0  3.952042  0
C  C24  1  0.83956109  0.84358148  0.97084979  1  0  0.321977  0  3.797585  0  0  0.314248  0  4.068365  0  0  0.321404  0  4.085758  0  0  0.082353  0.308758  0  4.057327  0
C  C25  1  0.16043471  0.15641652  0.02914877  1  0  0.322034  0  3.79748  0  0  0.314311  0  4.068227  0  0  0.321459  0  4.085626  0  0  0.082414  0.308822  0  4.057189  0
C  C26  1  0.89168843  0.98785172  0.85741065  1  0  -0.151357  0  3.661607  0  0  -0.187599  0  3.910332  0  0  -0.188591  0  3.930022  0  0  -0.079643  -0.186841  0  3.897731  0
C  C27  1  0.10830891  0.01214501  0.14258801  1  0  -0.151363  0  3.661484  0  0  -0.187545  0  3.910272  0  0  -0.188537  0  3.929968  0  0  -0.07962  -0.186786  0  3.89767  0
C  C28  1  0.81887509  0.14929662  0.86898351  1  0  -0.057514  0  3.752314  0  0  -0.029315  0  3.983034  0  0  -0.038142  0  4.007558  0  0  -0.013191  -0.024223  0  3.968163  0
C  C29  1  0.18112214  0.85070133  0.13101787  1  0  -0.057272  0  3.752018  0  0  -0.029272  0  3.983065  0  0  -0.038097  0  4.00759  0  0  -0.013174  -0.024178  0  3.968192  0
C  C30  1  0.69515309  0.16598678  0.99419150  1  0  -0.071793  0  3.678521  0  0  -0.114962  0  3.930999  0  0  -0.113015  0  3.949524  0  0  -0.078222  -0.116329  0  3.91978  0
C  C31  1  0.30484133  0.83401125  0.00580527  1  0  -0.071938  0  3.678453  0  0  -0.115041  0  3.930986  0  0  -0.113093  0  3.94951  0  0  -0.078254  -0.116401  0  3.919773  0
C  C32  1  0.87370730  0.30368290  0.74432860  1  0  0.725715  0  3.86057  0  0  0.677941  0  4.154123  0  0  0.713248  0  4.142464  0  0  0.235464  0.65383  0  4.158285  0
C  C33  1  0.12629659  0.69631501  0.25567452  1  0  0.725514  0  3.860619  0  0  0.677685  0  4.154381  0  0  0.712989  0  4.14273  0  0  0.235384  0.653572  0  4.158542  0
C  C34  1  0.42556229  0.52772181  0.55871633  1  0  0.566989  0  3.89102  0  0  0.523682  0  4.188905  0  0  0.553196  0  4.179691  0  0  0.224192  0.503788  0  4.190753  0
C  C35  1  0.57442584  0.47228257  0.44128177  1  0  0.566732  0  3.891362  0  0  0.523355  0  4.189352  0  0  0.552868  0  4.180139  0  0  0.224003  0.503462  0  4.191198  0
O  O36  1  0.42482697  0.17115711  0.24745507  1  0  -0.698656  0  1.967008  0  0  -0.654548  0  2.212384  0  0  -0.676807  0  2.199275  0  0  -0.38387  -0.633047  0  2.222384  0
O  O37  1  0.57519007  0.82884957  0.75255181  1  0  -0.698725  0  1.967017  0  0  -0.654623  0  2.212478  0  0  -0.676885  0  2.199369  0  0  -0.383877  -0.633115  0  2.222476  0
O  O38  1  0.20974002  0.97276221  0.51906513  1  0  -0.933782  0  1.836629  0  0  -0.889733  0  2.027285  0  0  -0.906948  0  1.99365  0  0  -0.652232  -0.871595  0  2.053572  0
O  O39  1  0.79026407  0.02723968  0.48092532  1  0  -0.933747  0  1.836563  0  0  -0.889648  0  2.027321  0  0  -0.906865  0  1.993696  0  0  -0.652213  -0.871502  0  2.0536  0
O  O40  1  0.53831541  0.89972624  0.36949478  1  0  -0.784323  0  2.078256  0  0  -0.727185  0  2.325234  0  0  -0.752585  0  2.31268  0  0  -0.391105  -0.702303  0  2.332499  0
O  O41  1  0.46168716  0.10027048  0.63050280  1  0  -0.784385  0  2.078217  0  0  -0.72724  0  2.325234  0  0  -0.752639  0  2.312676  0  0  -0.391153  -0.702365  0  2.332497  0
O  O42  1  0.97930339  0.29170088  0.33985086  1  0  -0.902021  0  1.916851  0  0  -0.849988  0  2.104551  0  0  -0.869263  0  2.070433  0  0  -0.615574  -0.830881  0  2.130042  0
O  O43  1  0.02069832  0.70830211  0.66015211  1  0  -0.902125  0  1.916777  0  0  -0.850047  0  2.104522  0  0  -0.869328  0  2.070401  0  0  -0.615541  -0.830936  0  2.130015  0
O  O44  1  0.91267219  0.68570731  0.95446823  1  0  -0.53105  0  2.116491  0  0  -0.47513  0  2.318164  0  0  -0.491611  0  2.307564  0  0  -0.338178  -0.463477  0  2.325275  0
O  O45  1  0.08732519  0.31428940  0.04553146  1  0  -0.530975  0  2.116456  0  0  -0.475056  0  2.318105  0  0  -0.491519  0  2.307497  0  0  -0.338171  -0.463406  0  2.325214  0
O  O46  1  0.99768199  0.28024434  0.63940338  1  0  -0.768271  0  2.046196  0  0  -0.723671  0  2.318468  0  0  -0.746809  0  2.303037  0  0  -0.421911  -0.699052  0  2.328141  0
O  O47  1  0.00232347  0.71975347  0.36060666  1  0  -0.76822  0  2.046162  0  0  -0.723575  0  2.318453  0  0  -0.746712  0  2.303023  0  0  -0.421869  -0.698956  0  2.328148  0
O  O48  1  0.79281134  0.44966749  0.74827134  1  0  -0.733142  0  1.996013  0  0  -0.689399  0  2.24406  0  0  -0.711996  0  2.230019  0  0  -0.396397  -0.667463  0  2.254454  0
O  O49  1  0.20719572  0.55033426  0.25172783  1  0  -0.733062  0  1.996041  0  0  -0.689259  0  2.244089  0  0  -0.711858  0  2.230055  0  0  -0.39638  -0.667331  0  2.254482  0
O  O50  1  0.27743941  0.47810463  0.57972060  1  0  -0.688841  0  2.112682  0  0  -0.636999  0  2.352458  0  0  -0.660827  0  2.341347  0  0  -0.353114  -0.615239  0  2.359855  0
O  O51  1  0.72255534  0.52190091  0.42028402  1  0  -0.68876  0  2.112529  0  0  -0.636907  0  2.352339  0  0  -0.660737  0  2.341232  0  0  -0.353073  -0.615141  0  2.359737  0
O  O52  1  0.45810653  0.61615949  0.62467769  1  0  -0.626465  0  2.032429  0  0  -0.584192  0  2.26557  0  0  -0.604887  0  2.25584  0  0  -0.355794  -0.565336  0  2.273244  0
O  O53  1  0.54189298  0.38384216  0.37533132  1  0  -0.626274  0  2.032887  0  0  -0.583971  0  2.26604  0  0  -0.604664  0  2.256313  0  0  -0.355684  -0.565119  0  2.273706  0
