# generated using pymatgen
data_CuH8C11SN3
_symmetry_space_group_name_H-M   'P 1'
_cell_length_a   7.67938501
_cell_length_b   11.56018986
_cell_length_c   12.24987622
_cell_angle_alpha   90.00018211
_cell_angle_beta   90.00009615
_cell_angle_gamma   90.00001720
_symmetry_Int_Tables_number   1
_chemical_formula_structural   CuH8C11SN3
_chemical_formula_sum   'Cu4 H32 C44 S4 N12'
_cell_volume   1087.48458358
_cell_formula_units_Z   4
loop_
 _symmetry_equiv_pos_site_id
 _symmetry_equiv_pos_as_xyz
  1  'x, y, z'
loop_
 _atom_site_type_symbol
 _atom_site_label
 _atom_site_symmetry_multiplicity
 _atom_site_fract_x
 _atom_site_fract_y
 _atom_site_fract_z
 _atom_site_occupancy
 _atom_site_hle17_bader_spin_density
 _atom_site_hle17_ddec_charge
 _atom_site_hle17_ddec_spin_density
 _atom_site_hle17_ddec_sum_bond_order
 _atom_site_hle17_magmom
 _atom_site_hse06_10hf_bader_spin_density
 _atom_site_hse06_10hf_ddec_charge
 _atom_site_hse06_10hf_ddec_spin_density
 _atom_site_hse06_10hf_ddec_sum_bond_order
 _atom_site_hse06_10hf_magmom
 _atom_site_hse06_bader_spin_density
 _atom_site_hse06_ddec_charge
 _atom_site_hse06_ddec_spin_density
 _atom_site_hse06_ddec_sum_bond_order
 _atom_site_hse06_magmom
 _atom_site_pbe_bader_spin_density
 _atom_site_pbe_cm5_charge
 _atom_site_pbe_ddec_charge
 _atom_site_pbe_ddec_spin_density
 _atom_site_pbe_ddec_sum_bond_order
 _atom_site_pbe_magmom
Cu  Cu0  1  0.75709114  0.94136911  0.25000025  1  0  0.442318  0  2.217138  0  0  0.336554  0  2.742044  0  0  0.32779  0  2.701702  0  0  0.538249  0.345988  0  2.765915  0
Cu  Cu1  1  0.74290695  0.44136952  0.75000047  1  0  0.442272  0  2.217107  0  0  0.336539  0  2.74202  0  0  0.327773  0  2.7017  0  0  0.538238  0.345934  0  2.765937  0
Cu  Cu2  1  0.24290458  0.05863008  0.75000045  1  0  0.442304  0  2.217142  0  0  0.336562  0  2.74205  0  0  0.327794  0  2.701731  0  0  0.538263  0.345969  0  2.765971  0
Cu  Cu3  1  0.25709658  0.55862449  0.24999942  1  0  0.442269  0  2.217299  0  0  0.336491  0  2.742214  0  0  0.327727  0  2.701892  0  0  0.538243  0.345925  0  2.766137  0
H  H4  1  0.73751700  0.98108947  0.50188121  1  0  0.074459  0  0.936875  0  0  0.082603  0  1.00261  0  0  0.085506  0  1.000382  0  0  0.11101  0.080395  0  1.004386  0
H  H5  1  0.76248111  0.48108644  0.49812207  1  0  0.074423  0  0.936947  0  0  0.082611  0  1.002636  0  0  0.085525  0  1.000383  0  0  0.111035  0.080391  0  1.004431  0
H  H6  1  0.26248196  0.01891494  0.00187855  1  0  0.074415  0  0.936953  0  0  0.082606  0  1.002641  0  0  0.085521  0  1.000386  0  0  0.111025  0.080384  0  1.00444  0
H  H7  1  0.23752178  0.51890841  0.99812038  1  0  0.074412  0  0.936948  0  0  0.082618  0  1.002618  0  0  0.085523  0  1.000377  0  0  0.111011  0.080416  0  1.004397  0
H  H8  1  0.26247872  0.01891491  0.49812193  1  0  0.074426  0  0.936971  0  0  0.082607  0  1.002668  0  0  0.085521  0  1.000414  0  0  0.111022  0.080388  0  1.004448  0
H  H9  1  0.23752372  0.51890930  0.50187944  1  0  0.074438  0  0.936899  0  0  0.082602  0  1.002611  0  0  0.085511  0  1.000364  0  0  0.111005  0.0804  0  1.004385  0
H  H10  1  0.73751636  0.98108772  0.99811970  1  0  0.074406  0  0.936891  0  0  0.082574  0  1.002607  0  0  0.085482  0  1.000358  0  0  0.111004  0.080356  0  1.004396  0
H  H11  1  0.76248175  0.48108733  0.00187869  1  0  0.074412  0  0.936862  0  0  0.082585  0  1.002578  0  0  0.085493  0  1.000331  0  0  0.111008  0.080371  0  1.004365  0
H  H12  1  0.50480397  0.33488611  0.33440333  1  0  0.104002  0  0.980393  0  0  0.114391  0  1.043667  0  0  0.117359  0  1.042785  0  0  0.098494  0.112178  0  1.04449  0
H  H13  1  0.99519406  0.83488629  0.66559299  1  0  0.103937  0  0.980463  0  0  0.114353  0  1.043718  0  0  0.11732  0  1.042837  0  0  0.098473  0.112137  0  1.044541  0
H  H14  1  0.49519978  0.66511942  0.83440397  1  0  0.103946  0  0.980484  0  0  0.114369  0  1.043722  0  0  0.117346  0  1.042829  0  0  0.09847  0.112154  0  1.044548  0
H  H15  1  0.00480012  0.16511176  0.16559539  1  0  0.103951  0  0.980411  0  0  0.11433  0  1.043705  0  0  0.117309  0  1.04281  0  0  0.098471  0.112115  0  1.044531  0
H  H16  1  0.49519956  0.66511914  0.66559574  1  0  0.103952  0  0.980465  0  0  0.114374  0  1.04371  0  0  0.117353  0  1.042814  0  0  0.098468  0.112157  0  1.044537  0
H  H17  1  0.00479905  0.16511377  0.33440444  1  0  0.103966  0  0.980425  0  0  0.114341  0  1.043714  0  0  0.117326  0  1.042813  0  0  0.098466  0.112125  0  1.04454  0
H  H18  1  0.50480375  0.33488410  0.16559509  1  0  0.103946  0  0.980463  0  0  0.114359  0  1.043721  0  0  0.117334  0  1.04283  0  0  0.098472  0.112143  0  1.044549  0
H  H19  1  0.99519689  0.83488571  0.83440531  1  0  0.103991  0  0.98041  0  0  0.114399  0  1.043664  0  0  0.11738  0  1.042767  0  0  0.09849  0.112185  0  1.04449  0
H  H20  1  0.62861500  0.13921855  0.62299214  1  0  0.109254  0  0.966023  0  0  0.11811  0  1.026655  0  0  0.120527  0  1.02712  0  0  0.104498  0.116336  0  1.026488  0
H  H21  1  0.87138033  0.63921167  0.37700604  1  0  0.109215  0  0.966037  0  0  0.118067  0  1.026676  0  0  0.120483  0  1.027142  0  0  0.104472  0.116292  0  1.026512  0
H  H22  1  0.37138298  0.86078801  0.12299293  1  0  0.109214  0  0.966053  0  0  0.118033  0  1.026726  0  0  0.120449  0  1.02719  0  0  0.104466  0.116258  0  1.026559  0
H  H23  1  0.12862093  0.36078017  0.87700620  1  0  0.109259  0  0.965992  0  0  0.118125  0  1.026609  0  0  0.120542  0  1.027074  0  0  0.104503  0.116352  0  1.026443  0
H  H24  1  0.37138201  0.86079017  0.37700774  1  0  0.109161  0  0.966032  0  0  0.117994  0  1.026706  0  0  0.12041  0  1.027173  0  0  0.104439  0.116216  0  1.026538  0
H  H25  1  0.12861929  0.36078320  0.62299303  1  0  0.109242  0  0.966017  0  0  0.11809  0  1.02665  0  0  0.120507  0  1.027116  0  0  0.104472  0.116316  0  1.026484  0
H  H26  1  0.62861534  0.13921551  0.87700695  1  0  0.109245  0  0.966013  0  0  0.118103  0  1.026628  0  0  0.120519  0  1.027096  0  0  0.104478  0.116328  0  1.026463  0
H  H27  1  0.87137999  0.63921470  0.12299368  1  0  0.109229  0  0.966026  0  0  0.118085  0  1.026653  0  0  0.120502  0  1.027119  0  0  0.104474  0.116313  0  1.02649  0
H  H28  1  0.51323460  0.32074396  0.53714495  1  0  0.088456  0  0.968906  0  0  0.09594  0  1.037163  0  0  0.098788  0  1.034898  0  0  0.099998  0.093737  0  1.038966  0
H  H29  1  0.98676473  0.82073999  0.46285051  1  0  0.088387  0  0.96894  0  0  0.095875  0  1.037176  0  0  0.098736  0  1.034903  0  0  0.099971  0.093673  0  1.038979  0
H  H30  1  0.48677096  0.67926231  0.03714614  1  0  0.088372  0  0.96898  0  0  0.095922  0  1.037131  0  0  0.098796  0  1.034839  0  0  0.100002  0.093721  0  1.038943  0
H  H31  1  0.01323546  0.17925474  0.96285327  1  0  0.08843  0  0.968927  0  0  0.095912  0  1.037192  0  0  0.098753  0  1.034943  0  0  0.099984  0.093712  0  1.038993  0
H  H32  1  0.48677153  0.67926476  0.46285330  1  0  0.088368  0  0.969014  0  0  0.095925  0  1.037168  0  0  0.098794  0  1.034881  0  0  0.099983  0.093724  0  1.038974  0
H  H33  1  0.01323229  0.17925748  0.53714693  1  0  0.088436  0  0.968881  0  0  0.09592  0  1.037137  0  0  0.098779  0  1.034859  0  0  0.099992  0.093719  0  1.038939  0
H  H34  1  0.51323256  0.32074121  0.96285375  1  0  0.088395  0  0.968932  0  0  0.095913  0  1.037148  0  0  0.09876  0  1.034882  0  0  0.099989  0.093713  0  1.038951  0
H  H35  1  0.98676416  0.82074186  0.03714825  1  0  0.088444  0  0.968921  0  0  0.095929  0  1.037168  0  0  0.098771  0  1.034916  0  0  0.099997  0.09373  0  1.038974  0
C  C36  1  0.68390697  0.06058636  0.46761661  1  0  0.119568  0  3.72443  0  0  0.09227  0  3.976915  0  0  0.097577  0  3.99301  0  0  0.042857  0.088931  0  3.966339  0
C  C37  1  0.81608963  0.56058087  0.53238461  1  0  0.119633  0  3.724291  0  0  0.09229  0  3.976818  0  0  0.097593  0  3.992917  0  0  0.042806  0.088966  0  3.966242  0
C  C38  1  0.31609324  0.93942049  0.96761706  1  0  0.119613  0  3.724367  0  0  0.09226  0  3.97689  0  0  0.097565  0  3.992987  0  0  0.042795  0.088937  0  3.966312  0
C  C39  1  0.18391071  0.43941068  0.03238312  1  0  0.119584  0  3.724315  0  0  0.092223  0  3.976815  0  0  0.097533  0  3.992908  0  0  0.042801  0.088887  0  3.96625  0
C  C40  1  0.31608875  0.93941976  0.53238328  1  0  0.119551  0  3.72445  0  0  0.092206  0  3.976942  0  0  0.097512  0  3.993038  0  0  0.042773  0.088891  0  3.966359  0
C  C41  1  0.18391259  0.43941314  0.46761609  1  0  0.119557  0  3.724308  0  0  0.092244  0  3.976805  0  0  0.097552  0  3.992902  0  0  0.042783  0.088907  0  3.966234  0
C  C42  1  0.68390899  0.06058390  0.03238282  1  0  0.119617  0  3.724344  0  0  0.092305  0  3.976832  0  0  0.097617  0  3.992927  0  0  0.042838  0.088974  0  3.966262  0
C  C43  1  0.81609282  0.56058333  0.96761594  1  0  0.119614  0  3.724326  0  0  0.092291  0  3.976841  0  0  0.097601  0  3.99294  0  0  0.042834  0.088964  0  3.966269  0
C  C44  1  0.11133887  0.80413947  0.24999971  1  0  0.284885  0  3.99171  0  0  0.279449  0  4.276414  0  0  0.294782  0  4.293224  0  0  0.143158  0.269145  0  4.264695  0
C  C45  1  0.38865459  0.30414510  0.75000171  1  0  0.284825  0  3.992021  0  0  0.279395  0  4.276717  0  0  0.294733  0  4.293522  0  0  0.143152  0.269088  0  4.264988  0
C  C46  1  0.88865815  0.19586318  0.75000181  1  0  0.284867  0  3.992349  0  0  0.279429  0  4.27703  0  0  0.294758  0  4.293843  0  0  0.143124  0.269124  0  4.265303  0
C  C47  1  0.61133722  0.69586448  0.24999981  1  0  0.285069  0  3.992235  0  0  0.27964  0  4.2769  0  0  0.294967  0  4.293716  0  0  0.143272  0.269329  0  4.265186  0
C  C48  1  0.61420198  0.16386813  0.31041105  1  0  0.16474  0  3.752247  0  0  0.163595  0  3.987925  0  0  0.169609  0  4.006377  0  0  0.108823  0.159614  0  3.975613  0
C  C49  1  0.88579988  0.66386664  0.68959047  1  0  0.164799  0  3.752133  0  0  0.163621  0  3.987862  0  0  0.169637  0  4.006313  0  0  0.108815  0.159646  0  3.975551  0
C  C50  1  0.38580171  0.83613559  0.81040883  1  0  0.164803  0  3.752311  0  0  0.16362  0  3.988038  0  0  0.169634  0  4.006489  0  0  0.108799  0.159644  0  3.975728  0
C  C51  1  0.11420219  0.33612889  0.18958860  1  0  0.164753  0  3.752128  0  0  0.163582  0  3.987842  0  0  0.169598  0  4.006297  0  0  0.108836  0.159612  0  3.975533  0
C  C52  1  0.38580025  0.83613453  0.68959128  1  0  0.164799  0  3.752334  0  0  0.163604  0  3.988065  0  0  0.169619  0  4.006514  0  0  0.108786  0.159626  0  3.975758  0
C  C53  1  0.11420105  0.33612996  0.31041023  1  0  0.164757  0  3.752048  0  0  0.163576  0  3.987793  0  0  0.169593  0  4.006246  0  0  0.108789  0.159603  0  3.975484  0
C  C54  1  0.61420182  0.16386620  0.18958861  1  0  0.164766  0  3.752236  0  0  0.1636  0  3.987944  0  0  0.169614  0  4.0064  0  0  0.108846  0.159624  0  3.975632  0
C  C55  1  0.88580004  0.66386944  0.81041047  1  0  0.164759  0  3.752257  0  0  0.163593  0  3.987978  0  0  0.169608  0  4.006432  0  0  0.108819  0.159617  0  3.975667  0
C  C56  1  0.55439521  0.25698175  0.37327465  1  0  -0.140683  0  3.70807  0  0  -0.158399  0  3.948499  0  0  -0.165522  0  3.970857  0  0  -0.084585  -0.153825  0  3.933679  0
C  C57  1  0.94560539  0.75698179  0.62672143  1  0  -0.140618  0  3.708089  0  0  -0.158334  0  3.94849  0  0  -0.165457  0  3.970851  0  0  -0.084503  -0.15376  0  3.933672  0
C  C58  1  0.44561255  0.74302132  0.87327711  1  0  -0.14072  0  3.708186  0  0  -0.158448  0  3.948597  0  0  -0.16558  0  3.970959  0  0  -0.084536  -0.15387  0  3.933785  0
C  C59  1  0.05439260  0.24301699  0.12672494  1  0  -0.140549  0  3.70805  0  0  -0.158235  0  3.948457  0  0  -0.165369  0  3.97081  0  0  -0.084508  -0.15366  0  3.933639  0
C  C60  1  0.44560962  0.74302263  0.62672278  1  0  -0.140722  0  3.708235  0  0  -0.158457  0  3.948659  0  0  -0.165589  0  3.971016  0  0  -0.084525  -0.153877  0  3.933844  0
C  C61  1  0.05439293  0.24301654  0.37327600  1  0  -0.140685  0  3.70805  0  0  -0.158371  0  3.948477  0  0  -0.165511  0  3.970832  0  0  -0.084518  -0.153794  0  3.933656  0
C  C62  1  0.55439358  0.25698047  0.12672359  1  0  -0.140664  0  3.70817  0  0  -0.158395  0  3.948589  0  0  -0.165526  0  3.970945  0  0  -0.08455  -0.15382  0  3.933776  0
C  C63  1  0.94560571  0.75698048  0.87327658  1  0  -0.140797  0  3.708259  0  0  -0.15851  0  3.948658  0  0  -0.165644  0  3.971004  0  0  -0.084594  -0.153932  0  3.933842  0
C  C64  1  0.62439580  0.14904782  0.53484922  1  0  -0.108052  0  3.729314  0  0  -0.121348  0  3.976035  0  0  -0.127804  0  3.998761  0  0  -0.082462  -0.117442  0  3.961088  0
C  C65  1  0.87560084  0.64904297  0.46514899  1  0  -0.10805  0  3.729268  0  0  -0.121349  0  3.976019  0  0  -0.127804  0  3.998751  0  0  -0.082445  -0.117437  0  3.961067  0
C  C66  1  0.37560455  0.85095844  0.03484999  1  0  -0.108074  0  3.729339  0  0  -0.121351  0  3.97611  0  0  -0.127807  0  3.998843  0  0  -0.082452  -0.117439  0  3.961156  0
C  C67  1  0.12439935  0.35095176  0.96515075  1  0  -0.108074  0  3.72925  0  0  -0.121379  0  3.976001  0  0  -0.127832  0  3.998724  0  0  -0.082464  -0.117469  0  3.961054  0
C  C68  1  0.37560122  0.85096003  0.46515066  1  0  -0.107993  0  3.729202  0  0  -0.121289  0  3.975955  0  0  -0.127746  0  3.998688  0  0  -0.082437  -0.117376  0  3.960994  0
C  C69  1  0.12439878  0.35095276  0.53485008  1  0  -0.108094  0  3.729261  0  0  -0.121393  0  3.975998  0  0  -0.127847  0  3.998728  0  0  -0.082444  -0.117482  0  3.96105  0
C  C70  1  0.62439637  0.14904595  0.96514908  1  0  -0.108079  0  3.729386  0  0  -0.121377  0  3.976125  0  0  -0.127834  0  3.998848  0  0  -0.082436  -0.117467  0  3.961173  0
C  C71  1  0.87560027  0.64904398  0.03485077  1  0  -0.108092  0  3.729232  0  0  -0.121399  0  3.975973  0  0  -0.127853  0  3.998695  0  0  -0.082473  -0.117491  0  3.961032  0
C  C72  1  0.55930982  0.24945179  0.48662681  1  0  -0.005762  0  3.720576  0  0  -0.021927  0  3.966653  0  0  -0.018258  0  3.98513  0  0  -0.070348  -0.024187  0  3.954368  0
C  C73  1  0.94068817  0.74944712  0.51337170  1  0  -0.005676  0  3.720788  0  0  -0.021828  0  3.966862  0  0  -0.018172  0  3.985329  0  0  -0.070317  -0.02408  0  3.954555  0
C  C74  1  0.44069043  0.75055339  0.98662684  1  0  -0.005589  0  3.720727  0  0  -0.021769  0  3.966721  0  0  -0.018126  0  3.985203  0  0  -0.070307  -0.024024  0  3.954423  0
C  C75  1  0.05931082  0.25054609  0.01337197  1  0  -0.005783  0  3.720579  0  0  -0.021963  0  3.966668  0  0  -0.018292  0  3.985145  0  0  -0.070356  -0.024219  0  3.954375  0
C  C76  1  0.44068980  0.75055346  0.51337307  1  0  -0.005599  0  3.720728  0  0  -0.021786  0  3.966708  0  0  -0.018139  0  3.985192  0  0  -0.070293  -0.024042  0  3.954407  0
C  C77  1  0.05931015  0.25054948  0.48662736  1  0  -0.005676  0  3.72054  0  0  -0.021824  0  3.966585  0  0  -0.018164  0  3.985063  0  0  -0.070326  -0.024079  0  3.954285  0
C  C78  1  0.55930919  0.24944753  0.01337142  1  0  -0.00567  0  3.720737  0  0  -0.021848  0  3.966781  0  0  -0.018179  0  3.985269  0  0  -0.070339  -0.024101  0  3.954477  0
C  C79  1  0.94069011  0.74944965  0.98662791  1  0  -0.005639  0  3.720627  0  0  -0.021796  0  3.966688  0  0  -0.018122  0  3.985164  0  0  -0.070305  -0.024051  0  3.954393  0
S  S80  1  0.05538911  0.94079466  0.24999988  1  0  -0.386906  0  2.403336  0  0  -0.364968  0  2.786711  0  0  -0.374357  0  2.772159  0  0  -0.192152  -0.358082  0  2.795334  0
S  S81  1  0.44460963  0.44080203  0.75000357  1  0  -0.386834  0  2.403233  0  0  -0.364918  0  2.78662  0  0  -0.37431  0  2.772073  0  0  -0.192111  -0.358022  0  2.795244  0
S  S82  1  0.94460791  0.05919934  0.75000245  1  0  -0.386901  0  2.403136  0  0  -0.364986  0  2.786524  0  0  -0.37438  0  2.771976  0  0  -0.192111  -0.358087  0  2.795149  0
S  S83  1  0.55539260  0.55919890  0.24999794  1  0  -0.387012  0  2.403187  0  0  -0.365085  0  2.786562  0  0  -0.374483  0  2.772019  0  0  -0.192149  -0.358191  0  2.795202  0
N  N84  1  0.67878532  0.06678504  0.35805877  1  0  -0.324461  0  3.332614  0  0  -0.26295  0  3.621161  0  0  -0.270139  0  3.627142  0  0  -0.352356  -0.258814  0  3.616965  0
N  N85  1  0.82121649  0.56678510  0.64194246  1  0  -0.324504  0  3.332498  0  0  -0.263  0  3.621107  0  0  -0.270192  0  3.627099  0  0  -0.352364  -0.258864  0  3.616904  0
N  N86  1  0.32121850  0.93321798  0.85805758  1  0  -0.324504  0  3.332529  0  0  -0.262987  0  3.621106  0  0  -0.270176  0  3.627097  0  0  -0.352343  -0.258847  0  3.616906  0
N  N87  1  0.17878805  0.43321200  0.14194177  1  0  -0.324455  0  3.332313  0  0  -0.262916  0  3.620864  0  0  -0.270106  0  3.626845  0  0  -0.35235  -0.258797  0  3.616696  0
N  N88  1  0.32121430  0.93321762  0.64194275  1  0  -0.32447  0  3.332579  0  0  -0.26293  0  3.621129  0  0  -0.270119  0  3.627119  0  0  -0.352328  -0.258806  0  3.616941  0
N  N89  1  0.17878834  0.43321150  0.35805742  1  0  -0.324481  0  3.332414  0  0  -0.262967  0  3.62099  0  0  -0.270157  0  3.62697  0  0  -0.352355  -0.258844  0  3.616818  0
N  N90  1  0.67878503  0.06678554  0.14194148  1  0  -0.324481  0  3.332543  0  0  -0.262988  0  3.62113  0  0  -0.270179  0  3.627111  0  0  -0.352396  -0.258854  0  3.616935  0
N  N91  1  0.82121678  0.56678374  0.85805730  1  0  -0.324449  0  3.332442  0  0  -0.262958  0  3.621043  0  0  -0.270148  0  3.627031  0  0  -0.352356  -0.258818  0  3.61684  0
N  N92  1  0.15777095  0.70657188  0.24999959  1  0  -0.503231  0  3.160145  0  0  -0.455499  0  3.501639  0  0  -0.463403  0  3.498474  0  0  -0.441065  -0.450819  0  3.503117  0
N  N93  1  0.34221726  0.20658095  0.75000154  1  0  -0.503279  0  3.160494  0  0  -0.45555  0  3.501942  0  0  -0.463456  0  3.498786  0  0  -0.441128  -0.45086  0  3.503397  0
N  N94  1  0.84222737  0.29341694  0.75000193  1  0  -0.503247  0  3.16095  0  0  -0.455503  0  3.502381  0  0  -0.463406  0  3.499218  0  0  -0.441074  -0.450812  0  3.503834  0
N  N95  1  0.65776544  0.79341825  0.24999998  1  0  -0.503356  0  3.160895  0  0  -0.455625  0  3.502359  0  0  -0.463525  0  3.499178  0  0  -0.441183  -0.450937  0  3.503823  0
