# generated using pymatgen
data_ZnH15C28NO11
_symmetry_space_group_name_H-M   'P 1'
_cell_length_a   15.83978809
_cell_length_b   16.47208639
_cell_length_c   17.62838860
_cell_angle_alpha   89.07023148
_cell_angle_beta   89.44117563
_cell_angle_gamma   63.58033048
_symmetry_Int_Tables_number   1
_chemical_formula_structural   ZnH15C28NO11
_chemical_formula_sum   'Zn2 H30 C56 N2 O22'
_cell_volume   4118.56482455
_cell_formula_units_Z   2
loop_
 _symmetry_equiv_pos_site_id
 _symmetry_equiv_pos_as_xyz
  1  'x, y, z'
loop_
 _atom_site_type_symbol
 _atom_site_label
 _atom_site_symmetry_multiplicity
 _atom_site_fract_x
 _atom_site_fract_y
 _atom_site_fract_z
 _atom_site_occupancy
 _atom_site_pbe_bader_charge
 _atom_site_pbe_bader_spin_density
 _atom_site_pbe_cm5_charge
 _atom_site_pbe_ddec_charge
 _atom_site_pbe_ddec_spin_density
 _atom_site_pbe_ddec_sum_bond_order
 _atom_site_pbe_magmom
Zn  Zn0  1  0.51807694  0.40825073  0.50515657  1  1.298509  0  0.682316  0.830396  0  2.406884  0
Zn  Zn1  1  0.48687506  0.59147921  0.48810096  1  1.293869  0  0.676414  0.823018  0  2.406429  0
H  H2  1  0.09543454  0.31429931  0.37103416  1  0.080869  0  0.101394  0.102356  0  0.993554  0
H  H3  1  0.91858326  0.67462025  0.64446375  1  0.057697  0  0.102019  0.103579  0  0.991604  0
H  H4  1  0.47066373  0.14566037  0.62574985  1  0.091491  0  0.123537  0.13464  0  0.96891  0
H  H5  1  0.39639051  0.91849564  0.40230310  1  0.097016  0  0.119489  0.130521  0  0.975823  0
H  H6  1  0.48079235  0.29342334  0.62273234  1  0.160118  0  0.132118  0.114948  0  0.973711  0
H  H7  1  0.39650496  0.76583707  0.39971030  1  0.130444  0  0.13425  0.110893  0  0.957547  0
H  H8  1  0.54413885  0.27163202  0.39331554  1  0.15784  0  0.129733  0.110031  0  0.991975  0
H  H9  1  0.60140109  0.66259326  0.56598497  1  0.170419  0  0.124798  0.105466  0  1.012004  0
H  H10  1  0.53960545  0.12102435  0.38624066  1  0.110118  0  0.119047  0.127907  0  0.976721  0
H  H11  1  0.60921156  0.81118724  0.57739342  1  0.085432  0  0.120083  0.13043  0  0.972604  0
H  H12  1  0.96035844  0.28113201  0.36064434  1  0.076401  0  0.110055  0.124763  0  0.987885  0
H  H13  1  0.05492648  0.70726970  0.65357420  1  0.083341  0  0.110455  0.126014  0  0.986571  0
H  H14  1  0.16926250  0.40379001  0.42149781  1  0.064318  0  0.103345  0.104173  0  1.036673  0
H  H15  1  0.84341469  0.58629737  0.59403070  1  0.049232  0  0.098939  0.096663  0  1.038471  0
H  H16  1  0.40874634  0.40904568  0.27584740  1  0.138961  0  0.112407  0.129643  0  1.011555  0
H  H17  1  0.36729838  0.66550861  0.72123609  1  0.139876  0  0.114338  0.126741  0  1.008366  0
H  H18  1  0.50484585  0.59376174  0.10253786  1  0.102926  0  0.114717  0.124048  0  0.979056  0
H  H19  1  0.52708472  0.39484701  0.88841697  1  0.112341  0  0.117929  0.129008  0  0.973088  0
H  H20  1  0.16203003  0.53667920  0.30112164  1  0.611036  0  0.343164  0.381003  0  0.855218  0
H  H21  1  0.70921731  0.52463225  0.67718947  1  0.612759  0  0.344616  0.383433  0  0.847804  0
H  H22  1  0.23725602  0.77078490  0.53453574  1  0.08153  0  0.091891  0.0985  0  1.029943  0
H  H23  1  0.25206789  0.79633784  0.63075169  1  0.044234  0  0.102801  0.111152  0  0.981699  0
H  H24  1  0.13587207  0.82480111  0.59585092  1  0.045161  0  0.089213  0.081716  0  1.000291  0
H  H25  1  0.77090313  0.18635238  0.38675279  1  0.045298  0  0.10212  0.106882  0  0.978563  0
H  H26  1  0.77641999  0.22363523  0.48083534  1  0.088631  0  0.090683  0.096323  0  1.026949  0
H  H27  1  0.88287234  0.16733251  0.42548885  1  0.03525  0  0.087853  0.078621  0  1.003717  0
H  H28  1  0.29175208  0.33827707  0.15739510  1  0.612938  0  0.343298  0.379788  0  0.858692  0
H  H29  1  0.22880535  0.82086854  0.84429474  1  0.621982  0  0.345199  0.380676  0  0.856531  0
H  H30  1  0.58137935  0.69315559  0.24840980  1  0.601735  0  0.343081  0.377901  0  0.857434  0
H  H31  1  0.71182227  0.31514347  0.70007323  1  0.616907  0  0.348532  0.391338  0  0.838892  0
C  C32  1  0.48714902  0.51784096  0.64392962  1  1.586089  0  0.215187  0.592845  0  4.182299  0
C  C33  1  0.49892718  0.49036221  0.34948770  1  1.616435  0  0.223392  0.605291  0  4.163968  0
C  C34  1  0.09769220  0.41953006  0.43897072  1  0.004532  0  -0.096261  -0.132597  0  4.036092  0
C  C35  1  0.91366224  0.57235677  0.57414830  1  -0.00251  0  -0.093724  -0.121861  0  4.027533  0
C  C36  1  0.05772735  0.36749415  0.41195696  1  -0.077755  0  -0.093719  -0.134139  0  4.025939  0
C  C37  1  0.95443499  0.62365055  0.60138851  1  -0.061291  0  -0.092953  -0.135104  0  4.018501  0
C  C38  1  0.40746168  0.45495311  0.16002294  1  -0.002551  0  -0.010821  -0.089294  0  3.937775  0
C  C39  1  0.38080904  0.61338866  0.83613539  1  -0.065567  0  -0.008088  -0.086147  0  3.926835  0
C  C40  1  0.43192919  0.44720891  0.23702441  1  -0.058656  0  -0.070332  -0.099832  0  3.925492  0
C  C41  1  0.40342525  0.60725369  0.75871938  1  -0.018056  0  -0.066936  -0.086682  0  3.925078  0
C  C42  1  0.48256589  0.49060552  0.26585287  1  0.026745  0  -0.00153  -0.036361  0  3.921365  0
C  C43  1  0.47010606  0.52670057  0.72774690  1  0.02435  0  -0.009399  -0.052572  0  3.939748  0
C  C44  1  0.50931084  0.54348966  0.21673139  1  0.039865  0  0.005962  -0.015143  0  3.941308  0
C  C45  1  0.51537954  0.44988747  0.77525484  1  -0.020348  0  0.003935  -0.017357  0  3.947825  0
C  C46  1  0.48447640  0.55273823  0.14060817  1  -0.029063  0  -0.069038  -0.140579  0  3.891693  0
C  C47  1  0.49258178  0.45437616  0.85178339  1  0.049429  0  -0.067381  -0.1408  0  3.892052  0
C  C48  1  0.43427709  0.50819147  0.11040905  1  0.089928  0  0.020173  0.136662  0  4.068292  0
C  C49  1  0.42604323  0.53599167  0.88405964  1  0.077997  0  0.022059  0.139799  0  4.061331  0
C  C50  1  0.41717783  0.51834409  0.03149754  1  -0.069526  0  -0.020925  -0.056981  0  4.040008  0
C  C51  1  0.41322633  0.53487641  0.96341608  1  -0.113848  0  -0.022051  -0.060131  0  4.04071  0
C  C52  1  0.48763457  0.17084176  0.57319175  1  0.107841  0  -0.065528  -0.164214  0  3.893473  0
C  C53  1  0.44229777  0.86372892  0.43974591  1  0.002915  0  -0.072472  -0.177099  0  3.919409  0
C  C54  1  0.68561334  0.42879720  0.50025640  1  1.631997  0  0.218384  0.61498  0  4.175006  0
C  C55  1  0.31923392  0.57252567  0.49943446  1  1.620584  0  0.216366  0.612385  0  4.18011  0
C  C56  1  0.49262597  0.25294309  0.57180661  1  0.447102  0  0.068597  0.113485  0  3.894468  0
C  C57  1  0.44191967  0.77971044  0.43817853  1  0.478488  0  0.062971  0.101222  0  3.936201  0
C  C58  1  0.52924816  0.23984634  0.44302783  1  0.456153  0  0.062083  0.104501  0  3.920232  0
C  C59  1  0.55666361  0.72186918  0.53192947  1  0.473043  0  0.063227  0.112846  0  3.902679  0
C  C60  1  0.52591005  0.15739118  0.43947685  1  -0.030015  0  -0.070392  -0.170403  0  3.919252  0
C  C61  1  0.56100479  0.80382480  0.53759252  1  0.010238  0  -0.068526  -0.167472  0  3.899061  0
C  C62  1  0.50494977  0.12111496  0.50584954  1  0.036099  0  0.023124  0.172385  0  4.113925  0
C  C63  1  0.50186414  0.87745794  0.49144065  1  0.064204  0  0.022546  0.177348  0  4.111411  0
C  C64  1  0.50248426  0.03634527  0.50322154  1  -0.193581  0  -0.023179  -0.080598  0  4.071551  0
C  C65  1  0.50211650  0.96292955  0.49714727  1  -0.08893  0  -0.027334  -0.092426  0  4.077969  0
C  C66  1  0.78845723  0.40402745  0.48748487  1  0.034952  0  -0.006676  -0.126225  0  3.875726  0
C  C67  1  0.21818863  0.59414505  0.51769627  1  -0.017424  0  -0.005211  -0.122354  0  3.89103  0
C  C68  1  0.92443094  0.32939229  0.40552091  1  -0.040526  0  -0.091758  -0.239713  0  3.970969  0
C  C69  1  0.08797150  0.66220427  0.60608408  1  -0.019943  0  -0.092314  -0.239623  0  3.970988  0
C  C70  1  0.83530504  0.34327581  0.42765404  1  0.506038  0  0.088769  0.243579  0  4.045848  0
C  C71  1  0.17571389  0.64985162  0.58108888  1  0.480934  0  0.082788  0.230596  0  4.060529  0
C  C72  1  0.83595667  0.44482327  0.52663933  1  -0.020186  0  -0.00522  -0.075803  0  3.890435  0
C  C73  1  0.17069195  0.55214424  0.48061410  1  0.000723  0  -0.003821  -0.07059  0  3.890764  0
C  C74  1  0.92180031  0.44174075  0.49724088  1  0.015802  0  0.0038  0.013407  0  3.897197  0
C  C75  1  0.08715912  0.55285285  0.51260337  1  0.020341  0  0.002387  0.010989  0  3.897118  0
C  C76  1  0.96719091  0.37994255  0.43720932  1  0.007868  0  -0.005917  0.097473  0  4.049889  0
C  C77  1  0.04365915  0.61312134  0.57403641  1  0.051426  0  -0.006459  0.095908  0  4.047269  0
C  C78  1  0.96134879  0.50131419  0.52143276  1  -0.022554  0  -0.000513  0.038066  0  3.939374  0
C  C79  1  0.04826733  0.49220263  0.48990014  1  -0.034724  0  -0.002721  0.040085  0  3.938774  0
C  C80  1  0.20499773  0.51738177  0.40240955  1  1.514013  0  0.231638  0.574075  0  4.122508  0
C  C81  1  0.80916469  0.46770932  0.60821412  1  1.498829  0  0.227121  0.566538  0  4.14524  0
C  C82  1  0.21088795  0.77542778  0.59300725  1  0.370508  0  -0.14304  -0.171217  0  3.921945  0
C  C83  1  0.80692576  0.21411362  0.42346003  1  0.369811  0  -0.141733  -0.167583  0  3.934042  0
C  C84  1  0.35385746  0.40857562  0.12939252  1  1.470537  0  0.223433  0.566456  0  4.132453  0
C  C85  1  0.31037589  0.69951183  0.86884590  1  1.489556  0  0.225863  0.570269  0  4.130945  0
C  C86  1  0.57198929  0.58348606  0.24354332  1  1.55938  0  0.233348  0.588697  0  4.125217  0
C  C87  1  0.59026589  0.36250933  0.74538333  1  1.547655  0  0.233948  0.597989  0  4.126509  0
N  N88  1  0.51329903  0.28646900  0.50798443  1  -1.238496  0  -0.315299  -0.194356  0  3.510469  0
N  N89  1  0.49712640  0.71067820  0.48396435  1  -1.241452  0  -0.318315  -0.196115  0  3.518044  0
O  O90  1  0.51133228  0.43860731  0.61891179  1  -1.155848  0  -0.303846  -0.535198  0  2.375912  0
O  O91  1  0.49079099  0.56528328  0.37484448  1  -1.150482  0  -0.307706  -0.535358  0  2.351274  0
O  O92  1  0.47497307  0.58809679  0.60535618  1  -1.170059  0  -0.314016  -0.544323  0  2.309288  0
O  O93  1  0.51625959  0.41870432  0.38778812  1  -1.167624  0  -0.305347  -0.537532  0  2.32247  0
O  O94  1  0.66082606  0.36670181  0.51480844  1  -1.157588  0  -0.312099  -0.539886  0  2.323666  0
O  O95  1  0.34127185  0.63491984  0.47910076  1  -1.154591  0  -0.312536  -0.538039  0  2.285581  0
O  O96  1  0.63106003  0.51215110  0.48961377  1  -1.167358  0  -0.306861  -0.54058  0  2.358316  0
O  O97  1  0.37543809  0.49004923  0.51166159  1  -1.158334  0  -0.306471  -0.539337  0  2.375582  0
O  O98  1  0.28370714  0.46187645  0.38330173  1  -1.137102  0  -0.281122  -0.46969  0  2.127701  0
O  O99  1  0.13503084  0.56175364  0.35064652  1  -1.098933  0  -0.340316  -0.487486  0  2.205245  0
O  O100  1  0.86436640  0.42843695  0.65952142  1  -1.117139  0  -0.295556  -0.479568  0  2.045993  0
O  O101  1  0.71823734  0.52866190  0.62230013  1  -1.110543  0  -0.327448  -0.472828  0  2.286442  0
O  O102  1  0.22394882  0.68780095  0.62051534  1  -1.073867  0  -0.209995  -0.196843  0  2.522832  0
O  O103  1  0.79162256  0.29978108  0.38989110  1  -1.064227  0  -0.212014  -0.193827  0  2.500093  0
O  O104  1  0.33590566  0.40586755  0.06244955  1  -1.107495  0  -0.286814  -0.47478  0  2.07855  0
O  O105  1  0.32463132  0.36701239  0.18476417  1  -1.117055  0  -0.347326  -0.498103  0  2.21184  0
O  O106  1  0.28574935  0.71072744  0.93537396  1  -1.125301  0  -0.288891  -0.479386  0  2.077618  0
O  O107  1  0.27399516  0.76854512  0.81619004  1  -1.114279  0  -0.342836  -0.491627  0  2.213871  0
O  O108  1  0.65119593  0.53917732  0.26825210  1  -1.121436  0  -0.286781  -0.46841  0  2.044693  0
O  O109  1  0.53318070  0.67511790  0.23214951  1  -1.115212  0  -0.34374  -0.493221  0  2.195562  0
O  O110  1  0.58637771  0.29018462  0.74631909  1  -1.132179  0  -0.301136  -0.498978  0  2.052064  0
O  O111  1  0.66734244  0.37272300  0.72225026  1  -1.117432  0  -0.338494  -0.494073  0  2.229038  0
