# generated using pymatgen
data_CuH14C20(NO)4
_symmetry_space_group_name_H-M   'P 1'
_cell_length_a   8.62632041
_cell_length_b   8.62717657
_cell_length_c   13.42182531
_cell_angle_alpha   95.72576340
_cell_angle_beta   108.36486932
_cell_angle_gamma   110.77020018
_symmetry_Int_Tables_number   1
_chemical_formula_structural   CuH14C20(NO)4
_chemical_formula_sum   'Cu2 H28 C40 N8 O8'
_cell_volume   860.83752509
_cell_formula_units_Z   2
loop_
 _symmetry_equiv_pos_site_id
 _symmetry_equiv_pos_as_xyz
  1  'x, y, z'
loop_
 _atom_site_type_symbol
 _atom_site_label
 _atom_site_symmetry_multiplicity
 _atom_site_fract_x
 _atom_site_fract_y
 _atom_site_fract_z
 _atom_site_occupancy
 _atom_site_hle17_ddec_charge
 _atom_site_hle17_ddec_spin_density
 _atom_site_hle17_ddec_sum_bond_order
 _atom_site_hle17_magmom
 _atom_site_hse06_10hf_bader_charge
 _atom_site_hse06_10hf_bader_spin_density
 _atom_site_hse06_10hf_ddec_charge
 _atom_site_hse06_10hf_ddec_spin_density
 _atom_site_hse06_10hf_ddec_sum_bond_order
 _atom_site_hse06_10hf_magmom
 _atom_site_hse06_ddec_charge
 _atom_site_hse06_ddec_spin_density
 _atom_site_hse06_ddec_sum_bond_order
 _atom_site_hse06_magmom
 _atom_site_pbe_cm5_charge
 _atom_site_pbe_ddec_charge
 _atom_site_pbe_ddec_spin_density
 _atom_site_pbe_ddec_sum_bond_order
 _atom_site_pbe_magmom
Cu  Cu0  1  0.49999895  0.00000059  0.50000012  1  0.846274  0.710923  1.725842  0.497  1.103881  0.615183  0.824909  0.799721  2.101834  0.614  0.919326  0.874866  2.033848  0.698  0.72593  0.764584  0.74695  2.152156  0.562
Cu  Cu1  1  0.99999994  0.00000039  0.00000058  1  0.847518  -0.711618  1.726629  -0.497  1.10882  -0.615511  0.825349  -0.800056  2.103501  -0.615  0.919766  -0.875148  2.035547  -0.698  0.726616  0.765597  -0.747293  2.15331  -0.562
H  H2  1  0.35735682  0.94833209  0.24106384  1  0.115896  6.3e-05  0.997696  0.0  0.230659  0.000437  0.121177  9e-05  1.06641  0.0  0.124353  7.2e-05  1.062658  0.0  0.135857  0.118705  0.000103  1.069208  0.0
H  H3  1  0.20717356  0.11631054  0.25905081  1  0.11586  -6.1e-05  0.996584  0.0  0.229117  -0.000424  0.120541  -8.3e-05  1.066246  0.0  0.123737  -6.7e-05  1.062501  0.0  0.135215  0.11805  -9.5e-05  1.069051  0.0
H  H4  1  0.64264228  0.05166677  0.75893535  1  0.115827  6e-05  0.997707  0.0  0.230681  0.000437  0.121115  9e-05  1.06642  0.0  0.124292  7.2e-05  1.062667  0.0  0.135836  0.118645  0.000103  1.069221  0.0
H  H5  1  0.79282966  0.88369211  0.74094798  1  0.115898  -6e-05  0.99656  0.0  0.229065  -0.000424  0.120603  -8.3e-05  1.066163  0.0  0.123806  -6.7e-05  1.062419  0.0  0.13522  0.118114  -9.5e-05  1.068973  0.0
H  H6  1  0.87111495  0.05030666  0.46844478  1  0.110925  0.000136  0.963317  0.0  0.128788  0.000677  0.123234  0.000282  1.016804  0.001  0.125366  0.00021  1.016246  0.0  0.119875  0.121579  0.000341  1.017388  0.001
H  H7  1  0.08226813  0.40267377  0.03157423  1  0.111744  -0.000128  0.963572  0.0  0.143862  -0.000667  0.124174  -0.000277  1.016791  -0.001  0.12629  -0.000207  1.016254  0.0  0.120344  0.122525  -0.000334  1.017376  -0.001
H  H8  1  0.12888460  0.94969605  0.53155549  1  0.110916  0.000136  0.963287  0.0  0.128638  0.000677  0.123272  0.000282  1.016722  0.001  0.125409  0.00021  1.016159  0.0  0.119868  0.121617  0.000341  1.017307  0.001
H  H9  1  0.91772600  0.59732773  0.96842558  1  0.111758  -0.00013  0.963561  0.0  0.143878  -0.000667  0.124206  -0.000277  1.016762  -0.001  0.126323  -0.000207  1.016223  0.0  0.120353  0.122557  -0.000334  1.017346  -0.001
H  H10  1  0.88647356  0.04491881  0.26418310  1  0.12723  0.000499  0.965589  0.001  0.169768  0.000782  0.132393  0.000379  1.033746  0.001  0.136187  0.000301  1.030345  0.0  0.12347  0.129624  0.000435  1.036249  0.001
H  H11  1  0.28096647  0.62225857  0.23582179  1  0.126779  -0.000516  0.966007  -0.001  0.168069  -0.000804  0.131687  -0.000386  1.034295  -0.001  0.135429  -0.000306  1.031002  0.0  0.123195  0.128907  -0.000444  1.036809  -0.001
H  H12  1  0.11352552  0.95508006  0.73581758  1  0.127225  0.000504  0.965573  0.001  0.169762  0.000782  0.132408  0.000379  1.033685  0.001  0.136203  0.000301  1.030283  0.0  0.123474  0.129639  0.000435  1.036191  0.001
H  H13  1  0.71902887  0.37774292  0.76417902  1  0.126835  -0.000515  0.966  -0.001  0.168101  -0.000804  0.131738  -0.000386  1.034277  -0.001  0.135483  -0.000306  1.030978  0.0  0.123219  0.128957  -0.000444  1.036791  -0.001
H  H14  1  0.79561510  0.21367762  0.13067455  1  0.107715  1.4e-05  0.948006  0.0  0.115995  3.2e-05  0.118221  1.9e-05  1.007277  0.0  0.120398  1.7e-05  1.007665  0.0  0.108486  0.116687  2e-05  1.007091  0.0
H  H15  1  0.58307232  0.66494068  0.36937029  1  0.107532  -7e-06  0.948784  0.0  0.069735  -2.3e-05  0.118173  -1.3e-05  1.008047  0.0  0.120334  -1.3e-05  1.00848  0.0  0.108585  0.116659  -1.2e-05  1.007814  0.0
H  H16  1  0.20438286  0.78631869  0.86932501  1  0.107711  1.5e-05  0.947996  0.0  0.116046  3.2e-05  0.118184  1.9e-05  1.007305  0.0  0.120383  1.7e-05  1.007667  0.0  0.108493  0.116653  2e-05  1.00712  0.0
H  H17  1  0.41692913  0.33506070  0.63062806  1  0.107504  -5e-06  0.948854  0.0  0.069772  -2.3e-05  0.118131  -1.3e-05  1.008131  0.0  0.120289  -1.3e-05  1.008563  0.0  0.108559  0.116617  -1.2e-05  1.007897  0.0
H  H18  1  0.29952723  0.78247979  0.06337626  1  0.11928  2.3e-05  0.958845  0.0  0.121247  7.6e-05  0.130775  2.7e-05  1.016857  0.0  0.133766  2e-05  1.015658  0.0  0.109794  0.128647  3.2e-05  1.017805  0.0
H  H19  1  0.21900746  0.23616000  0.43655026  1  0.120217  1e-06  0.959035  0.0  0.108767  -2.7e-05  0.132432  -3e-06  1.016034  0.0  0.135442  -3e-06  1.014799  0.0  0.110794  0.130269  -1e-06  1.017017  0.0
H  H20  1  0.70047261  0.21751522  0.93662361  1  0.119333  2.4e-05  0.958847  0.0  0.1212  7.6e-05  0.130826  2.7e-05  1.016855  0.0  0.133807  2e-05  1.015686  0.0  0.109808  0.128702  3.2e-05  1.017791  0.0
H  H21  1  0.78099464  0.76384010  0.56344889  1  0.120196  1e-06  0.95902  0.0  0.108747  -2.7e-05  0.132406  -3e-06  1.016029  0.0  0.135416  -3e-06  1.014793  0.0  0.110786  0.130241  -1e-06  1.017011  0.0
H  H22  1  0.99462544  0.53998063  0.42844239  1  0.096301  -5.7e-05  0.95812  0.0  0.09201  1.5e-05  0.107663  4.1e-05  1.018171  0.0  0.110793  2.9e-05  1.016293  0.0  0.101515  0.105437  5.1e-05  1.019554  0.0
H  H23  1  0.61148184  0.56619118  0.07159695  1  0.096145  5e-05  0.958455  0.0  0.091502  -1.6e-05  0.107748  -4.5e-05  1.018037  0.0  0.110839  -3.1e-05  1.016212  0.0  0.101793  0.105527  -5.7e-05  1.019439  0.0
H  H24  1  0.00537418  0.46001953  0.57155998  1  0.096271  -5.5e-05  0.958205  0.0  0.092084  1.5e-05  0.107657  4.1e-05  1.018219  0.0  0.110786  2.9e-05  1.016341  0.0  0.101499  0.105427  5.1e-05  1.019607  0.0
H  H25  1  0.38852214  0.43380760  0.92840102  1  0.096183  5.1e-05  0.958471  0.0  0.09152  -1.6e-05  0.107783  -4.5e-05  1.018056  0.0  0.110874  -3.1e-05  1.016229  0.0  0.101817  0.105561  -5.7e-05  1.019457  0.0
H  H26  1  0.67814582  0.32566726  0.34020791  1  0.09235  1.4e-05  0.960201  0.0  0.055907  9e-06  0.100856  -1.8e-05  1.023388  0.0  0.102909  -2.5e-05  1.023742  0.0  0.098843  0.099374  -1.1e-05  1.023235  0.0
H  H27  1  0.48543915  0.33798462  0.15982504  1  0.092435  -1.2e-05  0.959853  0.0  0.089376  -1e-05  0.101185  1.9e-05  1.022742  0.0  0.103248  2.6e-05  1.023112  0.0  0.099118  0.099681  1.2e-05  1.022628  0.0
H  H28  1  0.32185204  0.67433163  0.65979327  1  0.092364  1.7e-05  0.960235  0.0  0.05577  9e-06  0.100865  -1.8e-05  1.023418  0.0  0.102923  -2.5e-05  1.023762  0.0  0.098843  0.099385  -1.1e-05  1.023266  0.0
H  H29  1  0.51456117  0.66201422  0.84017367  1  0.092426  -1.4e-05  0.959875  0.0  0.089373  -1.1e-05  0.101178  1.9e-05  1.022761  0.0  0.103241  2.6e-05  1.02313  0.0  0.099116  0.099678  1.2e-05  1.022647  0.0
C  C30  1  0.49942420  0.97842455  0.27799421  1  0.151062  -0.004938  3.608292  -0.005  0.930754  -0.002312  0.095111  -0.000981  3.876306  -0.001  0.110779  -0.001757  3.888074  -0.002  0.140329  0.085205  -0.000387  3.868317  0.0
C  C31  1  0.20038152  0.22140857  0.22209536  1  0.153084  0.005198  3.606382  0.005  0.93142  0.002358  0.097692  0.001072  3.874017  0.001  0.113404  0.001815  3.885738  0.002  0.142511  0.087721  0.000517  3.866137  0.0
C  C32  1  0.50057256  0.02157177  0.72200361  1  0.151089  -0.004905  3.608247  -0.005  0.930569  -0.002311  0.095106  -0.000981  3.876306  -0.001  0.110775  -0.001757  3.888072  -0.002  0.140337  0.085197  -0.000387  3.868325  0.0
C  C33  1  0.79962048  0.77859410  0.77790467  1  0.152996  0.005198  3.606452  0.005  0.931402  0.002357  0.097623  0.001071  3.874028  0.001  0.113324  0.001815  3.885756  0.002  0.142525  0.087648  0.000517  3.866161  0.0
C  C34  1  0.76813641  0.03228137  0.39156669  1  -0.005573  -1.6e-05  3.728152  0.0  0.384858  0.000524  -0.034018  0.000967  3.99091  0.001  -0.031174  0.000304  4.011282  0.0  -0.004023  -0.035729  0.001432  3.977393  0.001
C  C35  1  0.14099033  0.37649613  0.10843087  1  -0.006505  0.000101  3.728974  0.0  0.34618  -0.000537  -0.035075  -0.000933  3.992001  -0.001  -0.032214  -0.000281  4.012265  0.0  -0.00438  -0.036766  -0.001389  3.978505  -0.001
C  C36  1  0.23186258  0.96772006  0.60843338  1  -0.00559  2.2e-05  3.728142  0.0  0.384973  0.000523  -0.034068  0.000967  3.990878  0.001  -0.031228  0.000305  4.011255  0.0  -0.004013  -0.035776  0.001432  3.97736  0.001
C  C37  1  0.85900380  0.62350537  0.89156894  1  -0.00648  0.000118  3.729005  0.0  0.346221  -0.000537  -0.035085  -0.000933  3.992038  -0.001  -0.032224  -0.000281  4.012302  0.0  -0.00435  -0.036772  -0.001388  3.97854  -0.001
C  C38  1  0.77816137  0.03185049  0.29158449  1  -0.04635  0.003676  3.648629  0.004  0.320946  0.002985  -0.085668  0.001964  3.906268  0.002  -0.082425  0.001785  3.92152  0.002  0.007248  -0.087775  0.002074  3.896034  0.002
C  C39  1  0.24055673  0.48657042  0.20841000  1  -0.045598  -0.003698  3.648941  -0.004  0.345021  -0.002995  -0.08454  -0.001992  3.9067  -0.002  -0.081296  -0.001803  3.921991  -0.002  0.006914  -0.086588  -0.002113  3.896412  -0.002
C  C40  1  0.22183762  0.96815094  0.70841559  1  -0.046395  0.003627  3.648633  0.004  0.320922  0.002986  -0.085725  0.001964  3.906307  0.002  -0.082482  0.001784  3.921558  0.002  0.007214  -0.087832  0.002074  3.896076  0.002
C  C41  1  0.75943983  0.51343104  0.79158958  1  -0.045745  -0.003706  3.648969  -0.004  0.345011  -0.002996  -0.084653  -0.001992  3.906726  -0.002  -0.08141  -0.001804  3.922014  -0.002  0.006885  -0.0867  -0.002113  3.896438  -0.002
C  C42  1  0.55399580  0.99671423  0.10826335  1  0.180361  0.000826  3.756644  0.001  0.304305  0.000598  0.173358  0.000426  4.000403  0.001  0.178517  0.000338  4.021986  0.001  0.098142  0.169928  0.000502  3.985795  0.001
C  C43  1  0.38842546  0.44582215  0.39175647  1  0.178921  -0.000649  3.760224  -0.001  0.283088  -0.000637  0.172352  -0.000453  4.00352  -0.001  0.177582  -0.00037  4.025019  -0.001  0.096625  0.168839  -0.000515  3.989029  -0.001
C  C44  1  0.44600151  0.00328337  0.89173541  1  0.180187  0.000842  3.756701  0.001  0.304332  0.000596  0.173232  0.000425  4.000386  0.001  0.178392  0.000339  4.021974  0.001  0.098094  0.169801  0.000502  3.985785  0.001
C  C45  1  0.61157776  0.55418050  0.60824232  1  0.178897  -0.000641  3.76022  -0.001  0.28305  -0.000637  0.172378  -0.000452  4.00345  -0.001  0.177612  -0.000371  4.024943  -0.001  0.096661  0.168853  -0.000515  3.988979  -0.001
C  C46  1  0.66707231  0.11919400  0.07316866  1  -0.109181  0.000656  3.735622  0.0  -0.026667  0.000492  -0.131166  0.00039  3.991878  0.0  -0.133417  0.000288  4.012094  0.0  -0.082478  -0.12969  0.000476  3.978443  0.0
C  C47  1  0.54607155  0.59400102  0.42689911  1  -0.107716  -0.000602  3.739286  0.0  0.025867  -0.000429  -0.129938  -0.000346  3.995363  0.0  -0.132164  -0.00026  4.015575  0.0  -0.082277  -0.128499  -0.000421  3.98196  0.0
C  C48  1  0.33292509  0.88080103  0.92683070  1  -0.109101  0.000639  3.735468  0.0  -0.026769  0.000493  -0.13107  0.000391  3.991718  0.0  -0.133339  0.000287  4.011924  0.0  -0.082445  -0.129598  0.000476  3.978291  0.0
C  C49  1  0.45392989  0.40600037  0.57309998  1  -0.107709  -0.000622  3.739322  0.0  0.025915  -0.000429  -0.129919  -0.000346  3.995356  0.0  -0.13214  -0.00026  4.015559  0.0  -0.082278  -0.128476  -0.000421  3.981956  0.0
C  C50  1  0.38716758  0.87721703  0.03542409  1  -0.126992  0.000106  3.715781  0.0  0.023562  0.000138  -0.150746  0.000133  3.970219  0.0  -0.15427  0.000131  3.989917  0.0  -0.083656  -0.148542  0.000124  3.957289  0.0
C  C51  1  0.34171595  0.35172924  0.46454148  1  -0.128574  7.2e-05  3.71853  0.0  0.048962  -0.000105  -0.152832  -0.000103  3.972615  0.0  -0.156372  -0.000119  3.99226  0.0  -0.083919  -0.15064  -7.5e-05  3.959779  0.0
C  C52  1  0.61282982  0.12277800  0.96457528  1  -0.126979  8.7e-05  3.715855  0.0  0.023623  0.00014  -0.150741  0.000134  3.970269  0.0  -0.154267  0.00013  3.989952  0.0  -0.083643  -0.148533  0.000124  3.957334  0.0
C  C53  1  0.65828615  0.64827086  0.53545767  1  -0.12855  6.1e-05  3.718576  0.0  0.048948  -0.000105  -0.152816  -0.000103  3.972665  0.0  -0.156354  -0.000119  3.992304  0.0  -0.083934  -0.150619  -7.5e-05  3.959834  0.0
C  C54  1  0.15922480  0.81483220  0.36220760  1  0.62465  -0.005306  3.92809  -0.009  1.595104  -0.002551  0.581147  -0.001021  4.231465  -0.004  0.618509  -0.001439  4.223858  -0.004  0.195365  0.555886  -0.000573  4.235691  -0.004
C  C55  1  0.95276475  0.79704344  0.13780188  1  0.626954  0.005338  3.925728  0.009  1.597606  0.002588  0.581849  0.001034  4.231495  0.004  0.619202  0.001445  4.223919  0.004  0.195391  0.556584  0.000587  4.235737  0.004
C  C56  1  0.84077671  0.18516664  0.63779359  1  0.624636  -0.005303  3.928096  -0.009  1.595088  -0.002551  0.581165  -0.001021  4.231434  -0.004  0.618526  -0.001439  4.223825  -0.004  0.195365  0.555907  -0.000573  4.235656  -0.004
C  C57  1  0.04723852  0.20295667  0.86220124  1  0.627012  0.005339  3.925749  0.009  1.597578  0.002589  0.581929  0.001034  4.231485  0.004  0.619281  0.001445  4.223911  0.004  0.195457  0.556665  0.000587  4.235734  0.004
C  C58  1  0.97873581  0.67216025  0.30108095  1  -0.060927  0.008862  3.739047  0.009  -0.02118  0.006371  -0.04575  0.004653  3.966433  0.005  -0.051509  0.003302  3.987488  0.004  -0.012657  -0.041962  0.005615  3.95226  0.006
C  C59  1  0.87116037  0.67765446  0.19892079  1  -0.06167  -0.008978  3.737129  -0.009  -0.093454  -0.006457  -0.045977  -0.004685  3.965116  -0.005  -0.051678  -0.003316  3.986081  -0.004  -0.011342  -0.042217  -0.005668  3.950987  -0.006
C  C60  1  0.02126689  0.32783858  0.69892198  1  -0.060986  0.008868  3.739174  0.009  -0.021272  0.006373  -0.045831  0.004654  3.966576  0.005  -0.051587  0.0033  3.987628  0.004  -0.012676  -0.042042  0.005615  3.952401  0.006
C  C61  1  0.12884302  0.32234307  0.80107996  1  -0.061702  -0.008978  3.737111  -0.009  -0.093536  -0.006458  -0.046007  -0.004686  3.965083  -0.005  -0.051709  -0.003315  3.986047  -0.004  -0.011397  -0.042246  -0.005669  3.950955  -0.006
C  C62  1  0.90882838  0.54334377  0.34999493  1  -0.080265  0.000182  3.733122  0.0  -0.100187  0.000152  -0.103247  0.000146  3.981224  0.0  -0.103872  1e-05  4.000742  0.0  -0.08868  -0.102729  0.000281  3.967957  0.0
C  C63  1  0.69336693  0.55887073  0.15003487  1  -0.081129  -0.000153  3.734734  0.0  0.021232  -0.000138  -0.104561  -0.000137  3.983473  0.0  -0.105114  -3e-06  4.002847  0.0  -0.089119  -0.104091  -0.000266  3.97028  0.0
C  C64  1  0.09117134  0.45665381  0.65000656  1  -0.08019  0.000173  3.733216  0.0  -0.10018  0.000151  -0.103186  0.000145  3.981303  0.0  -0.10381  1.1e-05  4.000819  0.0  -0.088632  -0.102667  0.00028  3.968034  0.0
C  C65  1  0.30663647  0.44112679  0.84996514  1  -0.081156  -0.000155  3.734708  0.0  0.021292  -0.000138  -0.104596  -0.000137  3.983453  0.0  -0.105149  -5e-06  4.002826  0.0  -0.089176  -0.104122  -0.000265  3.970259  0.0
C  C66  1  0.73151755  0.42341033  0.29994918  1  -0.067143  -0.001913  3.767129  -0.002  0.042298  -0.000842  -0.085978  -0.000557  4.031013  -0.001  -0.087675  -0.000266  4.052449  0.0  -0.092986  -0.084769  -0.000839  4.016409  -0.001
C  C67  1  0.62343717  0.43165666  0.20008000  1  -0.065206  0.001933  3.767533  0.002  -0.096051  0.000898  -0.084029  0.000591  4.031294  0.001  -0.085729  0.000288  4.052715  0.0  -0.092229  -0.082835  0.000885  4.016703  0.001
C  C68  1  0.26848152  0.57658855  0.70005225  1  -0.067153  -0.00192  3.767194  -0.002  0.042503  -0.000842  -0.08598  -0.000556  4.031071  -0.001  -0.087682  -0.000267  4.052515  0.0  -0.092969  -0.084773  -0.000838  4.016474  -0.001
C  C69  1  0.37656302  0.56834476  0.79992182  1  -0.065195  0.001938  3.76757  0.002  -0.096081  0.000898  -0.084014  0.000591  4.031318  0.001  -0.085715  0.000289  4.052742  0.0  -0.092207  -0.082822  0.000885  4.016735  0.001
N  N70  1  0.59401289  0.99947338  0.38208426  1  -0.352757  0.065818  3.34  0.08  -1.224164  0.069827  -0.308246  0.047978  3.654642  0.062  -0.338882  0.040611  3.673662  0.055  -0.373966  -0.289374  0.051571  3.643626  0.064
N  N71  1  0.11733076  0.21182091  0.11797499  1  -0.35466  -0.065609  3.339536  -0.08  -1.221907  -0.069518  -0.309997  -0.047862  3.654401  -0.062  -0.340582  -0.040518  3.673235  -0.055  -0.374968  -0.291308  -0.051441  3.643543  -0.064
N  N72  1  0.40598491  0.00052806  0.61791407  1  -0.352678  0.065796  3.339937  0.08  -1.223983  0.069825  -0.308161  0.047978  3.654588  0.062  -0.338798  0.04061  3.67361  0.055  -0.373947  -0.289288  0.051568  3.643576  0.064
N  N73  1  0.88266824  0.78818052  0.88202434  1  -0.354648  -0.06561  3.339622  -0.08  -1.221934  -0.069515  -0.309972  -0.04786  3.654465  -0.062  -0.340558  -0.040517  3.673308  -0.055  -0.374972  -0.291282  -0.051438  3.643611  -0.064
N  N74  1  0.60731531  0.99738613  0.22032274  1  -0.085874  0.001245  3.590006  0.002  -1.307967  0.001794  0.005683  0.001112  3.795786  0.002  -0.008764  0.000801  3.819904  0.001  -0.222476  0.015215  0.001319  3.779226  0.002
N  N75  1  0.27722596  0.38699678  0.27970487  1  -0.086283  -0.001307  3.593841  -0.002  -1.311142  -0.001873  0.005106  -0.001163  3.799337  -0.002  -0.009397  -0.000847  3.823474  -0.001  -0.222391  0.014685  -0.001378  3.782758  -0.002
N  N76  1  0.39268500  0.00261271  0.77967671  1  -0.085781  0.001243  3.59004  0.002  -1.307942  0.001794  0.005775  0.001112  3.795804  0.002  -0.00867  0.000801  3.819922  0.001  -0.222445  0.01531  0.001319  3.779249  0.002
N  N77  1  0.72277426  0.61300463  0.72029472  1  -0.086146  -0.001307  3.593787  -0.002  -1.311132  -0.001873  0.005173  -0.001163  3.799302  -0.002  -0.009329  -0.000847  3.823439  -0.001  -0.222428  0.014757  -0.001378  3.782731  -0.002
O  O78  1  0.28717869  0.77571780  0.41549169  1  -0.578068  0.109172  2.017314  0.141  -1.142443  0.106687  -0.55641  0.070191  2.293461  0.099  -0.600765  0.054506  2.29032  0.082  -0.318581  -0.526615  0.079716  2.29579  0.108
O  O79  1  0.86026327  0.87163337  0.08448282  1  -0.578602  -0.109681  2.017312  -0.141  -1.142017  -0.106926  -0.556217  -0.070305  2.293801  -0.099  -0.600728  -0.054535  2.290822  -0.082  -0.31794  -0.526389  -0.079924  2.29594  -0.109
O  O80  1  0.71282515  0.22428358  0.58451014  1  -0.578053  0.109168  2.017303  0.141  -1.142394  0.106684  -0.556394  0.070189  2.293404  0.099  -0.600757  0.054504  2.290285  0.082  -0.318575  -0.526599  0.079714  2.29573  0.108
O  O81  1  0.13974291  0.12837055  0.91552038  1  -0.578631  -0.109685  2.017323  -0.141  -1.14213  -0.106928  -0.556256  -0.070306  2.293777  -0.099  -0.600774  -0.054536  2.290819  -0.082  -0.317961  -0.526426  -0.079924  2.295915  -0.109
O  O82  1  0.17552375  0.96615711  0.36328773  1  -0.635975  -0.000376  1.979491  0.001  -1.220429  0.000115  -0.601338  -8.6e-05  2.227997  0.001  -0.628944  -0.000904  2.218749  0.0  -0.322896  -0.581784  0.000649  2.233572  0.002
O  O83  1  0.10302915  0.81237556  0.13670489  1  -0.637301  0.00039  1.979628  -0.001  -1.214717  -9.7e-05  -0.602008  0.000101  2.228476  -0.001  -0.629708  0.000913  2.219504  0.0  -0.324746  -0.58259  -0.000628  2.234234  -0.002
O  O84  1  0.82447478  0.03384048  0.63671127  1  -0.635985  -0.000378  1.979531  0.001  -1.220432  0.000116  -0.60136  -8.5e-05  2.228001  0.001  -0.628968  -0.000904  2.218757  0.0  -0.322898  -0.581802  0.000649  2.233564  0.002
O  O85  1  0.89697478  0.18762325  0.86329680  1  -0.637297  0.000389  1.97971  -0.001  -1.214666  -9.7e-05  -0.601993  0.0001  2.228508  -0.001  -0.629692  0.000913  2.219541  0.0  -0.324726  -0.582578  -0.000628  2.23427  -0.002
