# generated using pymatgen
data_Zn4H17(C9O5)3
_symmetry_space_group_name_H-M   'P 1'
_cell_length_a   18.25750155
_cell_length_b   18.45782492
_cell_length_c   18.45779424
_cell_angle_alpha   60.57740936
_cell_angle_beta   60.35784885
_cell_angle_gamma   60.35771974
_symmetry_Int_Tables_number   1
_chemical_formula_structural   Zn4H17(C9O5)3
_chemical_formula_sum   'Zn8 H34 C54 O30'
_cell_volume   4441.13604170
_cell_formula_units_Z   2
loop_
 _symmetry_equiv_pos_site_id
 _symmetry_equiv_pos_as_xyz
  1  'x, y, z'
loop_
 _atom_site_type_symbol
 _atom_site_label
 _atom_site_symmetry_multiplicity
 _atom_site_fract_x
 _atom_site_fract_y
 _atom_site_fract_z
 _atom_site_occupancy
 _atom_site_pbe_bader_charge
 _atom_site_pbe_bader_spin_density
 _atom_site_pbe_cm5_charge
 _atom_site_pbe_ddec_charge
 _atom_site_pbe_ddec_spin_density
 _atom_site_pbe_ddec_sum_bond_order
 _atom_site_pbe_magmom
Zn  Zn0  1  0.70830614  0.20155730  0.38182485  1  1.319619  0  0.670713  0.96518  0  2.363089  0
Zn  Zn1  1  0.11829903  0.79390856  0.79419075  1  1.30694  0  0.67342  0.961027  0  2.381271  0
Zn  Zn2  1  0.88170217  0.20580874  0.20609040  1  1.306962  0  0.67344  0.961089  0  2.381104  0
Zn  Zn3  1  0.29360823  0.79392477  0.79418840  1  1.318024  0  0.67337  0.961015  0  2.38122  0
Zn  Zn4  1  0.70584389  0.37587092  0.21242913  1  1.299925  0  0.671138  0.956662  0  2.400429  0
Zn  Zn5  1  0.29415031  0.78757210  0.62413122  1  1.30004  0  0.671063  0.956578  0  2.400647  0
Zn  Zn6  1  0.29169405  0.61817442  0.79844252  1  1.3196  0  0.670722  0.96518  0  2.363061  0
Zn  Zn7  1  0.70639387  0.20581229  0.20607549  1  1.318164  0  0.673337  0.960928  0  2.381322  0
H  H8  1  0.54762523  0.33101167  0.57371631  1  0.117953  0  0.106537  0.113385  0  0.994124  0
H  H9  1  0.49963422  0.61379966  0.28952118  1  0.046523  0  0.098142  0.108466  0  0.979639  0
H  H10  1  0.50038681  0.71047280  0.38620574  1  0.046446  0  0.098054  0.108265  0  0.979567  0
H  H11  1  0.59705915  0.61378658  0.28951600  1  0.043559  0  0.098077  0.108372  0  0.979596  0
H  H12  1  0.16796763  0.92724719  0.43727456  1  0.12312  0  0.114246  0.135088  0  0.990383  0
H  H13  1  0.53249834  0.56272662  0.07273781  1  0.100032  0  0.114207  0.135024  0  0.990253  0
H  H14  1  0.46751261  0.92724820  0.43727140  1  0.099914  0  0.114208  0.135058  0  0.99039  0
H  H15  1  0.83202412  0.56273427  0.07274896  1  0.123015  0  0.114258  0.135107  0  0.990297  0
H  H16  1  0.45236728  0.42628586  0.66898959  1  0.11798  0  0.106511  0.113413  0  0.994103  0
H  H17  1  0.93092584  0.97093558  0.66045805  1  0.115036  0  0.109988  0.118034  0  0.990478  0
H  H18  1  0.56231797  0.33953746  0.02906500  1  0.077271  0  0.110052  0.118119  0  0.990549  0
H  H19  1  0.43768525  0.97092967  0.66045627  1  0.077484  0  0.110025  0.118109  0  0.990511  0
H  H20  1  0.06906456  0.33954742  0.02907416  1  0.114617  0  0.109962  0.118024  0  0.990446  0
H  H21  1  0.84043418  0.06424916  0.55907976  1  0.116523  0  0.110096  0.117434  0  0.991689  0
H  H22  1  0.46375765  0.44091655  0.93575186  1  0.093732  0  0.110115  0.117462  0  0.991733  0
H  H23  1  0.53624998  0.06423892  0.55907641  1  0.093482  0  0.110129  0.117443  0  0.991757  0
H  H24  1  0.15956298  0.44092086  0.93576111  1  0.116724  0  0.110142  0.117466  0  0.991756  0
H  H25  1  0.06933621  0.04549207  0.05088560  1  0.084658  0  0.108324  0.112775  0  0.997063  0
H  H26  1  0.16571845  0.94910556  0.95449520  1  0.078877  0  0.108297  0.112772  0  0.997007  0
H  H27  1  0.83427687  0.04550906  0.05088951  1  0.079113  0  0.108289  0.112751  0  0.99702  0
H  H28  1  0.93066003  0.94911794  0.95450256  1  0.084189  0  0.108312  0.112742  0  0.997049  0
H  H29  1  0.02086932  0.97343756  0.29895803  1  0.050601  0  0.092812  0.090979  0  1.009809  0
H  H30  1  0.12283143  0.89280008  0.32034488  1  0.040857  0  0.091373  0.082067  0  0.995905  0
H  H31  1  0.12642129  0.98111394  0.21699526  1  0.043072  0  0.107496  0.11432  0  0.970241  0
H  H32  1  0.33597758  0.67965468  0.10719508  1  0.034894  0  0.09138  0.082126  0  0.995884  0
H  H33  1  0.29326205  0.70105135  0.02655225  1  0.052636  0  0.09282  0.091  0  1.009719  0
H  H34  1  0.40296184  0.71048786  0.38620941  1  0.043882  0  0.098129  0.108435  0  0.979552  0
H  H35  1  0.32453614  0.78300628  0.01887638  1  0.07095  0  0.107481  0.114401  0  0.97033  0
H  H36  1  0.66404926  0.89279715  0.32034376  1  0.03523  0  0.091391  0.08214  0  0.995912  0
H  H37  1  0.70674933  0.97344834  0.29894918  1  0.052684  0  0.092885  0.091182  0  1.01  0
H  H38  1  0.67549018  0.98111293  0.21699066  1  0.07087  0  0.107486  0.114421  0  0.970401  0
H  H39  1  0.97912815  0.70105292  0.02655699  1  0.050522  0  0.092846  0.091056  0  1.009862  0
H  H40  1  0.87716658  0.67966629  0.10719937  1  0.03903  0  0.091402  0.082121  0  0.995879  0
H  H41  1  0.87357973  0.78301125  0.01888349  1  0.043427  0  0.107474  0.114277  0  0.970351  0
C  C42  1  0.61152919  0.38610540  0.11338771  1  1.55995  0  0.230146  0.605237  0  4.159879  0
C  C43  1  0.51740912  0.53537051  0.04318615  1  0.046252  0  -0.087455  -0.204794  0  3.945541  0
C  C44  1  0.95405693  0.59219540  0.99225826  1  0.490149  0  0.095427  0.250387  0  4.01268  0
C  C45  1  0.08987963  0.96282793  0.28802247  1  0.416641  0  -0.136478  -0.15871  0  3.934755  0
C  C46  1  0.34073261  0.71197892  0.03716460  1  0.394031  0  -0.136456  -0.158954  0  3.934925  0
C  C47  1  0.65929296  0.96282879  0.28801656  1  0.393433  0  -0.136596  -0.159178  0  3.935263  0
C  C48  1  0.91012147  0.71198508  0.03716869  1  0.418178  0  -0.13655  -0.158823  0  3.934881  0
C  C49  1  0.48259296  0.95681075  0.46462216  1  0.046305  0  -0.087524  -0.20494  0  3.945715  0
C  C50  1  0.90401949  0.53537573  0.04320340  1  0.039756  0  -0.087548  -0.205021  0  3.945649  0
C  C51  1  0.09597418  0.95679901  0.46463233  1  0.039342  0  -0.087531  -0.204921  0  3.945681  0
C  C52  1  0.05515718  0.94333023  0.55511616  1  -0.017492  0  -0.0121  -0.00814  0  3.988996  0
C  C53  1  0.55360268  0.44488457  0.05666150  1  -0.073629  0  -0.012162  -0.008271  0  3.989172  0
C  C54  1  0.44639830  0.94333733  0.55510928  1  -0.073855  0  -0.012119  -0.008262  0  3.989107  0
C  C55  1  0.11102590  0.88659597  0.61389726  1  1.564818  0  0.230125  0.605127  0  4.160004  0
C  C56  1  0.94483477  0.44489436  0.05666967  1  -0.017837  0  -0.012112  -0.00804  0  3.988904  0
C  C57  1  0.96244247  0.98181504  0.58983822  1  -0.105925  0  -0.08606  -0.108737  0  3.984558  0
C  C58  1  0.53409975  0.41015615  0.01817836  1  -0.077473  0  -0.086271  -0.108929  0  3.984834  0
C  C59  1  0.46590465  0.98181838  0.58983670  1  -0.078128  0  -0.086124  -0.108802  0  3.984732  0
C  C60  1  0.03755132  0.41016877  0.01818941  1  -0.105892  0  -0.086043  -0.108713  0  3.984423  0
C  C61  1  0.88896256  0.38611054  0.11340399  1  1.564952  0  0.230023  0.604921  0  4.160075  0
C  C62  1  0.91244641  0.03326344  0.53353372  1  -0.000804  0  -0.079536  -0.073589  0  3.985285  0
C  C63  1  0.47925043  0.46646272  0.96672828  1  0.047126  0  -0.079476  -0.073573  0  3.985306  0
C  C64  1  0.52076065  0.03326094  0.53353133  1  0.048243  0  -0.079623  -0.073692  0  3.98553  0
C  C65  1  0.08754905  0.46646951  0.96674526  1  -0.000555  0  -0.079615  -0.073714  0  3.985588  0
C  C66  1  0.38847088  0.88660766  0.61389428  1  1.560229  0  0.230184  0.605359  0  4.159584  0
C  C67  1  0.95223739  0.04767559  0.44214049  1  -0.039819  0  -0.018104  -0.137246  0  3.918518  0
C  C68  1  0.44205087  0.55785631  0.95232423  1  0.017396  0  -0.018114  -0.137208  0  3.918484  0
C  C69  1  0.55795918  0.04766320  0.44213912  1  0.016977  0  -0.018115  -0.13718  0  3.918672  0
C  C70  1  0.04775644  0.55786244  0.95233470  1  -0.039758  0  -0.018159  -0.137319  0  3.918679  0
C  C71  1  0.03989983  0.02357443  0.02962802  1  0.040927  0  -0.080096  -0.092106  0  3.972986  0
C  C72  1  0.09309864  0.97037082  0.97642317  1  -0.055577  0  -0.080131  -0.092201  0  3.973112  0
C  C73  1  0.90689394  0.02358160  0.02962363  1  -0.062732  0  -0.080109  -0.092209  0  3.973187  0
C  C74  1  0.96009617  0.97037536  0.97642110  1  0.048961  0  -0.080091  -0.092054  0  3.973144  0
C  C75  1  0.05345272  0.94359130  0.94949530  1  -0.029318  0  -0.014011  -0.031166  0  3.969535  0
C  C76  1  0.94654108  0.05050462  0.05640895  1  -0.009373  0  -0.014042  -0.031114  0  3.969315  0
C  C77  1  0.89305029  0.10664806  0.38653306  1  1.598705  0  0.22802  0.615058  0  4.16582  0
C  C78  1  0.38623092  0.61346125  0.89335166  1  1.535069  0  0.228056  0.615082  0  4.165628  0
C  C79  1  0.61377447  0.10663967  0.38653386  1  1.536489  0  0.227953  0.615015  0  4.165612  0
C  C80  1  0.10694814  0.61347004  0.89335823  1  1.598752  0  0.227936  0.614863  0  4.166001  0
C  C81  1  0.88933905  0.10832982  0.11298404  1  1.498091  0  0.228376  0.602083  0  4.174151  0
C  C82  1  0.11065407  0.88701743  0.89166989  1  1.518616  0  0.228396  0.602149  0  4.174068  0
C  C83  1  0.61197575  0.38177818  0.39423863  1  1.561861  0  0.227622  0.608523  0  4.176478  0
C  C84  1  0.38802178  0.60576429  0.61821939  1  1.562446  0  0.227664  0.608643  0  4.176108  0
C  C85  1  0.52673026  0.53057850  0.41595913  1  -0.086066  0  -0.002174  0.063953  0  3.879846  0
C  C86  1  0.47327368  0.58404473  0.46942128  1  0.030438  0  -0.00212  0.06417  0  3.880108  0
C  C87  1  0.55504647  0.43875341  0.45113472  1  -0.050446  0  -0.013745  -0.079394  0  3.979218  0
C  C88  1  0.44495811  0.54887068  0.56123936  1  -0.050224  0  -0.013864  -0.079571  0  3.97954  0
C  C89  1  0.52667364  0.40256202  0.54407590  1  0.042274  0  -0.083362  -0.09908  0  3.981457  0
C  C90  1  0.47332169  0.45592498  0.59743617  1  -0.112194  0  -0.083314  -0.099137  0  3.981365  0
C  C91  1  0.46975506  0.66884620  0.39167470  1  -0.039779  0  -0.150793  -0.19911  0  3.884616  0
C  C92  1  0.53026638  0.60832447  0.33115267  1  0.038501  0  -0.150845  -0.199307  0  3.884888  0
C  C93  1  0.04593850  0.00774493  0.40781196  1  0.490565  0  0.095343  0.250201  0  4.012606  0
C  C94  1  0.46149631  0.59219142  0.99224388  1  0.528963  0  0.095383  0.250206  0  4.012572  0
C  C95  1  0.53851251  0.00774819  0.40780437  1  0.528851  0  0.095412  0.250328  0  4.012835  0
O  O96  1  0.75063553  0.24661054  0.25209995  1  -1.2102  0  -0.572168  -1.028704  0  2.541187  0
O  O97  1  0.19539256  0.85875549  0.57621093  1  -1.171487  0  -0.314254  -0.54467  0  2.345408  0
O  O98  1  0.80459543  0.42379963  0.14124339  1  -1.171794  0  -0.314129  -0.544539  0  2.345438  0
O  O99  1  0.36961526  0.85878687  0.57620262  1  -1.16662  0  -0.314217  -0.544681  0  2.345317  0
O  O100  1  0.80884702  0.12858534  0.42776674  1  -1.183369  0  -0.316772  -0.550163  0  2.33419  0
O  O101  1  0.36519975  0.57222620  0.87141279  1  -1.17581  0  -0.316834  -0.5502  0  2.334162  0
O  O102  1  0.63481021  0.12857638  0.42776649  1  -1.17647  0  -0.316733  -0.550171  0  2.33424  0
O  O103  1  0.19115051  0.57223377  0.87141971  1  -1.183258  0  -0.316741  -0.550075  0  2.33431  0
O  O104  1  0.24936159  0.74790207  0.75339284  1  -1.21023  0  -0.572104  -1.028653  0  2.541187  0
O  O105  1  0.63531249  0.13132528  0.30308916  1  -1.162339  0  -0.308801  -0.538269  0  2.388168  0
O  O106  1  0.06972151  0.69691522  0.86869454  1  -1.174114  0  -0.308788  -0.538237  0  2.388493  0
O  O107  1  0.93027677  0.13130849  0.30308842  1  -1.173982  0  -0.308833  -0.53834  0  2.388406  0
O  O108  1  0.36468470  0.69690895  0.86867504  1  -1.16195  0  -0.308819  -0.538308  0  2.388245  0
O  O109  1  0.93014339  0.30318768  0.12975762  1  -1.173214  0  -0.312395  -0.54056  0  2.332002  0
O  O110  1  0.36308500  0.87025644  0.69681864  1  -1.174659  0  -0.31235  -0.540625  0  2.331796  0
O  O111  1  0.63691304  0.30318065  0.12974322  1  -1.174658  0  -0.312396  -0.540621  0  2.331799  0
O  O112  1  0.06984746  0.87024285  0.69682080  1  -1.173189  0  -0.312388  -0.540603  0  2.332009  0
O  O113  1  0.80492664  0.13057907  0.13480541  1  -1.152381  0  -0.314325  -0.547037  0  2.343947  0
O  O114  1  0.07032600  0.86518417  0.86941964  1  -1.168054  0  -0.314312  -0.547018  0  2.343893  0
O  O115  1  0.92967163  0.13058171  0.13481369  1  -1.168026  0  -0.314357  -0.547104  0  2.343778  0
O  O116  1  0.19506617  0.86519736  0.86942184  1  -1.152604  0  -0.314398  -0.54715  0  2.343662  0
O  O117  1  0.63329981  0.42225309  0.31108591  1  -1.16408  0  -0.311712  -0.539776  0  2.339078  0
O  O118  1  0.36668491  0.68891896  0.57773879  1  -1.164256  0  -0.311712  -0.539816  0  2.338777  0
O  O119  1  0.63477951  0.29829537  0.43213664  1  -1.160446  0  -0.315722  -0.548065  0  2.327621  0
O  O120  1  0.63038312  0.42379321  0.14120769  1  -1.166266  0  -0.314107  -0.544558  0  2.345429  0
O  O121  1  0.36522337  0.56786804  0.70169988  1  -1.160859  0  -0.315729  -0.548104  0  2.327544  0
O  O122  1  0.09272338  0.01813722  0.31976275  1  -1.07402  0  -0.213165  -0.198419  0  2.531993  0
O  O123  1  0.43062005  0.68023840  0.98185258  1  -1.07147  0  -0.213185  -0.198358  0  2.53218  0
O  O124  1  0.56938802  0.01813265  0.31976128  1  -1.071254  0  -0.21309  -0.198374  0  2.532234  0
O  O125  1  0.90727518  0.68023980  0.98186205  1  -1.073523  0  -0.213109  -0.198396  0  2.532041  0
