# generated using pymatgen
data_Zn4H12C25I4O13
_symmetry_space_group_name_H-M   'P 1'
_cell_length_a   18.34581306
_cell_length_b   18.34571292
_cell_length_c   18.31608477
_cell_angle_alpha   119.59692235
_cell_angle_beta   119.73317925
_cell_angle_gamma   90.67332533
_symmetry_Int_Tables_number   1
_chemical_formula_structural   Zn4H12C25I4O13
_chemical_formula_sum   'Zn8 H24 C50 I8 O26'
_cell_volume   4377.26894668
_cell_formula_units_Z   2
loop_
 _symmetry_equiv_pos_site_id
 _symmetry_equiv_pos_as_xyz
  1  'x, y, z'
loop_
 _atom_site_type_symbol
 _atom_site_label
 _atom_site_symmetry_multiplicity
 _atom_site_fract_x
 _atom_site_fract_y
 _atom_site_fract_z
 _atom_site_occupancy
 _atom_site_pbe_bader_charge
 _atom_site_pbe_bader_spin_density
 _atom_site_pbe_cm5_charge
 _atom_site_pbe_ddec_charge
 _atom_site_pbe_ddec_spin_density
 _atom_site_pbe_ddec_sum_bond_order
 _atom_site_pbe_magmom
Zn  Zn0  1  0.20629156  0.29343989  0.91083831  1  1.32096  0  0.672692  0.972847  0  2.35784  0
Zn  Zn1  1  0.79298107  0.70423686  0.91256802  1  1.30568  0  0.672162  0.972501  0  2.355943  0
Zn  Zn2  1  0.20832920  0.11957858  0.91256467  1  1.297999  0  0.672181  0.972578  0  2.355929  0
Zn  Zn3  1  0.20746416  0.29481305  0.08593777  1  1.325479  0  0.671896  0.973279  0  2.359163  0
Zn  Zn4  1  0.79112692  0.87847789  0.08594084  1  1.325888  0  0.671927  0.973326  0  2.359116  0
Zn  Zn5  1  0.38255665  0.29262696  0.08634110  1  1.317  0  0.67273  0.972687  0  2.358298  0
Zn  Zn6  1  0.79371631  0.70378452  0.08634106  1  1.320367  0  0.672749  0.972668  0  2.358249  0
Zn  Zn7  1  0.61739912  0.70454489  0.91083432  1  1.318548  0  0.672681  0.972838  0  2.357981  0
H  H8  1  0.57224981  0.47048683  0.12938764  1  0.111149  0  0.104027  0.109061  0  0.973375  0
H  H9  1  0.40628880  0.36173439  0.85849880  1  0.031569  0  0.103166  0.10903  0  0.963498  0
H  H10  1  0.49676834  0.45220970  0.85850133  1  0.035822  0  0.103173  0.108999  0  0.963449  0
H  H11  1  0.59292392  0.45212651  0.95458962  1  0.040258  0  0.103111  0.109065  0  0.963651  0
H  H12  1  0.50245711  0.36166200  0.95458446  1  0.046173  0  0.103131  0.109146  0  0.96369  0
H  H13  1  0.04787504  0.44811774  0.11330351  1  0.102032  0  0.110289  0.11679  0  0.990196  0
H  H14  1  0.33500960  0.44272972  0.40163680  1  0.125111  0  0.109159  0.115624  0  0.992569  0
H  H15  1  0.95886141  0.06663464  0.40163960  1  0.106014  0  0.109212  0.115769  0  0.992245  0
H  H16  1  0.34139717  0.47106389  0.89909786  1  0.101407  0  0.103683  0.108476  0  0.974252  0
H  H17  1  0.66518523  0.06542937  0.11329947  1  0.06509  0  0.110276  0.116808  0  0.990216  0
H  H18  1  0.94953534  0.54218300  0.11290973  1  0.074383  0  0.108832  0.114488  0  0.99252  0
H  H19  1  0.43134207  0.54101743  0.59484392  1  0.089558  0  0.109126  0.11551  0  0.992186  0
H  H20  1  0.05377922  0.16350775  0.59484894  1  0.09059  0  0.109141  0.115526  0  0.992084  0
H  H21  1  0.57072602  0.16337481  0.11291064  1  0.067619  0  0.108831  0.114478  0  0.992543  0
H  H22  1  0.42803086  0.55769189  0.89909281  1  0.089538  0  0.103628  0.10845  0  0.974215  0
H  H23  1  0.95560727  0.55291203  0.88684873  1  0.096377  0  0.110933  0.11798  0  0.987358  0
H  H24  1  0.66559428  0.55833505  0.59581758  1  0.062555  0  0.109559  0.116966  0  0.989473  0
H  H25  1  0.03753611  0.93022168  0.59581975  1  0.095888  0  0.109645  0.117072  0  0.98957  0
H  H26  1  0.33393746  0.93123720  0.88685292  1  0.086945  0  0.110907  0.117919  0  0.987394  0
H  H27  1  0.65890237  0.55714411  0.12939406  1  0.122468  0  0.104054  0.109118  0  0.973389  0
H  H28  1  0.05445705  0.45930106  0.88771194  1  0.083391  0  0.107875  0.11421  0  0.996699  0
H  H29  1  0.56922434  0.46055000  0.40259145  1  0.088583  0  0.107828  0.114746  0  0.997308  0
H  H30  1  0.94209604  0.83336508  0.40259266  1  0.142363  0  0.107836  0.114801  0  0.997272  0
H  H31  1  0.42841417  0.83325169  0.88771466  1  0.089663  0  0.10791  0.114287  0  0.996659  0
C  C32  1  0.39062240  0.11089186  0.99838487  1  1.592318  0  0.228709  0.604674  0  4.165442  0
C  C33  1  0.55388366  0.55491441  0.60618989  1  -0.057795  0  -0.01406  -0.032551  0  3.969166  0
C  C34  1  0.54032248  0.09106511  0.06381163  1  0.044798  0  -0.079867  -0.09193  0  3.972663  0
C  C35  1  0.05127630  0.05230640  0.60619070  1  0.005726  0  -0.014106  -0.032784  0  3.969513  0
C  C36  1  0.44696344  0.05279337  0.99944568  1  -0.070692  0  -0.012522  -0.030732  0  3.968076  0
C  C37  1  0.94664715  0.55247942  0.99944220  1  -0.039744  0  -0.012519  -0.030682  0  3.967983  0
C  C38  1  0.97613694  0.52944999  0.93593897  1  0.010263  0  -0.077827  -0.088698  0  3.96011  0
C  C39  1  0.59319073  0.53261426  0.55249156  1  -0.025535  0  -0.079373  -0.089332  0  3.960372  0
C  C40  1  0.01990946  0.95929943  0.55249189  1  -0.000321  0  -0.079392  -0.089355  0  3.960777  0
C  C41  1  0.10873478  0.11014778  0.72111102  1  1.552328  0  0.227826  0.603872  0  4.167976  0
C  C42  1  0.40648884  0.95980167  0.93594335  1  0.036683  0  -0.07778  -0.088529  0  3.960055  0
C  C43  1  0.03080187  0.47754535  0.93634360  1  -0.063817  0  -0.078807  -0.088964  0  3.96231  0
C  C44  1  0.53987028  0.47830477  0.44554263  1  0.04155  0  -0.079254  -0.088299  0  3.958822  0
C  C45  1  0.96727544  0.90567058  0.44554460  1  -0.124207  0  -0.079426  -0.088464  0  3.959048  0
C  C46  1  0.45880059  0.90553941  0.93634533  1  -0.027741  0  -0.078864  -0.089136  0  3.962449  0
C  C47  1  0.61096330  0.61237759  0.72110845  1  1.546352  0  0.22783  0.603713  0  4.167917  0
C  C48  1  0.05639199  0.44811926  0.00024881  1  0.005562  0  -0.011985  -0.027562  0  3.959768  0
C  C49  1  0.44677217  0.44563910  0.39134074  1  -0.016774  0  -0.013083  -0.029503  0  3.960163  0
C  C50  1  0.94570933  0.94457478  0.39134352  1  -0.054356  0  -0.012893  -0.029351  0  3.96041  0
C  C51  1  0.55212613  0.94385524  0.00024568  1  -0.046995  0  -0.012  -0.027571  0  3.959884  0
C  C52  1  0.88748530  0.60775560  0.99837996  1  1.563985  0  0.22863  0.604521  0  4.165512  0
C  C53  1  0.08906260  0.05089236  0.08551207  1  -0.090922  0  -0.050345  0.009608  0  3.87454  0
C  C54  1  0.03462020  0.99645136  0.08551343  1  -0.18464  0  -0.050368  0.009477  0  3.874633  0
C  C55  1  0.94570968  0.94578730  0.99987958  1  0.010836  0  -0.020002  -0.058162  0  3.937795  0
C  C56  1  0.05409081  0.05416731  0.99987617  1  0.0144  0  -0.020002  -0.058236  0  3.937764  0
C  C57  1  0.91077570  0.94899162  0.91421585  1  -0.093431  0  -0.050289  0.008995  0  3.876942  0
C  C58  1  0.96522327  0.00343770  0.91421365  1  -0.194403  0  -0.050311  0.008988  0  3.876962  0
C  C59  1  0.11424792  0.39148017  0.00025562  1  1.540117  0  0.228705  0.603693  0  4.164722  0
C  C60  1  0.38946438  0.38674086  0.27643763  1  1.514164  0  0.22787  0.603812  0  4.163956  0
C  C61  1  0.88970186  0.88697491  0.27644104  1  1.537154  0  0.227745  0.603573  0  4.164166  0
C  C62  1  0.60877999  0.88601090  0.00025653  1  1.535847  0  0.228839  0.603866  0  4.164511  0
C  C63  1  0.11268886  0.11261171  0.99978032  1  1.601486  0  0.209835  0.600484  0  4.242154  0
C  C64  1  0.88716970  0.88709358  0.99978332  1  1.604976  0  0.209818  0.600436  0  4.242083  0
C  C65  1  0.39013100  0.39364002  0.00363491  1  1.589055  0  0.224442  0.596326  0  4.139346  0
C  C66  1  0.60999777  0.61350607  0.00364081  1  1.602736  0  0.224504  0.596348  0  4.139237  0
C  C67  1  0.54091087  0.51823820  0.11954076  1  -0.194848  0  -0.101148  -0.042611  0  3.633194  0
C  C68  1  0.39937122  0.51858230  0.97834216  1  -0.143884  0  -0.101088  -0.04194  0  3.632973  0
C  C69  1  0.45975840  0.57896878  0.97833934  1  -0.145666  0  -0.100962  -0.04181  0  3.632926  0
C  C70  1  0.60130116  0.57863214  0.11954304  1  -0.127148  0  -0.101199  -0.042817  0  3.633326  0
C  C71  1  0.46992964  0.40506485  0.93457492  1  -0.046828  0  -0.150251  -0.170982  0  3.833664  0
C  C72  1  0.52951124  0.46464571  0.93457683  1  0.021688  0  -0.150223  -0.170802  0  3.83341  0
C  C73  1  0.44921796  0.46361547  0.01467723  1  0.049149  0  -0.022754  -0.01326  0  3.789974  0
C  C74  1  0.55106127  0.56545967  0.01467647  1  0.020132  0  -0.022741  -0.013137  0  3.789802  0
C  C75  1  0.02726187  0.47150202  0.06412921  1  -0.046047  0  -0.079235  -0.091269  0  3.967046  0
C  C76  1  0.40741298  0.46832395  0.44501108  1  -0.052338  0  -0.079784  -0.089501  0  3.966191  0
C  C77  1  0.97666569  0.03760372  0.44501704  1  0.090323  0  -0.079961  -0.089729  0  3.966223  0
C  C78  1  0.59262911  0.03686715  0.06412884  1  -0.002449  0  -0.079253  -0.091329  0  3.966926  0
C  C79  1  0.97274551  0.52348784  0.06381105  1  0.02237  0  -0.079892  -0.091978  0  3.972688  0
C  C80  1  0.46070848  0.52272306  0.55188269  1  0.011673  0  -0.080467  -0.092262  0  3.969594  0
C  C81  1  0.02913497  0.09117852  0.55188561  1  -0.095514  0  -0.080363  -0.092114  0  3.969637  0
I  I82  1  0.53465242  0.57835498  0.25266243  1  0.039573  0  0.007355  -0.083859  0  1.489811  0
I  I83  1  0.08263904  0.98698826  0.21030422  1  0.152715  0  0.084312  0.004866  0  1.460781  0
I  I84  1  0.22331860  0.12766186  0.21029908  1  0.15255  0  0.084319  0.004844  0  1.460806  0
I  I85  1  0.77674898  0.87174626  0.78899165  1  0.15318  0  0.087151  0.008292  0  1.462485  0
I  I86  1  0.91724343  0.01223247  0.78898460  1  0.157961  0  0.087135  0.008281  0  1.462442  0
I  I87  1  0.32739093  0.57884562  0.04584289  1  0.040305  0  0.008193  -0.083104  0  1.486671  0
I  I88  1  0.46698841  0.71844776  0.04582808  1  0.04461  0  0.008225  -0.083086  0  1.486619  0
I  I89  1  0.67429608  0.71801235  0.25266700  1  0.040007  0  0.007333  -0.083846  0  1.489819  0
O  O90  1  0.25151322  0.25057091  0.99902686  1  -1.223771  0  -0.571165  -1.026926  0  2.514814  0
O  O91  1  0.13547616  0.19411825  0.76476863  1  -1.179826  0  -0.315061  -0.545173  0  2.340924  0
O  O92  1  0.57064960  0.62928461  0.76476598  1  -1.182053  0  -0.315032  -0.54508  0  2.340839  0
O  O93  1  0.86800745  0.63184350  0.06306777  1  -1.159086  0  -0.315548  -0.547576  0  2.333832  0
O  O94  1  0.13189672  0.36517152  0.93385216  1  -1.178429  0  -0.314097  -0.551988  0  2.360263  0
O  O95  1  0.42943340  0.36760779  0.23231606  1  -1.178873  0  -0.312634  -0.549069  0  2.369851  0
O  O96  1  0.86472354  0.80288378  0.23231914  1  -1.175826  0  -0.312568  -0.54892  0  2.369829  0
O  O97  1  0.56868257  0.80195274  0.93385066  1  -1.17155  0  -0.314143  -0.552085  0  2.360173  0
O  O98  1  0.74845563  0.74751615  0.99902990  1  -1.231598  0  -0.571129  -1.026846  0  2.514811  0
O  O99  1  0.12665459  0.07097993  0.76632004  1  -1.164799  0  -0.314863  -0.552087  0  2.352834  0
O  O100  1  0.30634121  0.07174270  0.93260292  1  -1.179025  0  -0.31297  -0.543225  0  2.340746  0
O  O101  1  0.86085553  0.62626142  0.93260389  1  -1.174008  0  -0.312918  -0.543165  0  2.34073  0
O  O102  1  0.69533990  0.63967840  0.76632162  1  -1.157327  0  -0.314905  -0.552086  0  2.352857  0
O  O103  1  0.30516370  0.36019464  0.23193309  1  -1.154156  0  -0.315921  -0.551141  0  2.352561  0
O  O104  1  0.14112705  0.37379498  0.06673291  1  -1.17222  0  -0.313341  -0.541612  0  2.341905  0
O  O105  1  0.69293836  0.92560772  0.06672856  1  -1.171448  0  -0.313443  -0.541695  0  2.341948  0
O  O106  1  0.87173460  0.92677298  0.23193495  1  -1.171903  0  -0.315913  -0.551118  0  2.35256  0
O  O107  1  0.14761969  0.07353569  0.95287899  1  -1.161325  0  -0.309712  -0.535622  0  2.34899  0
O  O108  1  0.87934120  0.80526058  0.95288311  1  -1.164552  0  -0.309672  -0.535514  0  2.348857  0
O  O109  1  0.43039279  0.36489103  0.05800548  1  -1.178518  0  -0.312264  -0.541478  0  2.388596  0
O  O110  1  0.30690051  0.36558214  0.93520564  1  -1.174046  0  -0.31207  -0.541002  0  2.390604  0
O  O111  1  0.56962541  0.62829948  0.93520094  1  -1.180454  0  -0.312146  -0.541112  0  2.390447  0
O  O112  1  0.69311512  0.62762590  0.05802085  1  -1.186101  0  -0.312268  -0.54145  0  2.388723  0
O  O113  1  0.12081027  0.19452001  0.04657063  1  -1.160947  0  -0.309641  -0.536346  0  2.348812  0
O  O114  1  0.43121947  0.19505744  0.06307717  1  -1.183354  0  -0.315597  -0.547683  0  2.333852  0
O  O115  1  0.85205507  0.92576728  0.04657874  1  -1.161746  0  -0.309701  -0.536438  0  2.348803  0
