# generated using pymatgen
data_FeH12Ru6C18(NO4)6
_symmetry_space_group_name_H-M   'P 1'
_cell_length_a   10.95951711
_cell_length_b   10.95510752
_cell_length_c   10.95929167
_cell_angle_alpha   109.45873087
_cell_angle_beta   109.48300385
_cell_angle_gamma   109.46882503
_symmetry_Int_Tables_number   1
_chemical_formula_structural   FeH12Ru6C18(NO4)6
_chemical_formula_sum   'Fe1 H12 Ru6 C18 N6 O24'
_cell_volume   1012.94360998
_cell_formula_units_Z   1
loop_
 _symmetry_equiv_pos_site_id
 _symmetry_equiv_pos_as_xyz
  1  'x, y, z'
loop_
 _atom_site_type_symbol
 _atom_site_label
 _atom_site_symmetry_multiplicity
 _atom_site_fract_x
 _atom_site_fract_y
 _atom_site_fract_z
 _atom_site_occupancy
 _atom_site_pbe_cm5_charge
 _atom_site_pbe_ddec_charge
 _atom_site_pbe_ddec_spin_density
 _atom_site_pbe_ddec_sum_bond_order
 _atom_site_pbe_magmom
Fe  Fe0  1  0.00000066  0.99999871  0.00000027  1  0.52438  0.073331  0.469204  5.290198  0.298
H  H1  1  0.29111955  0.70913992  0.00000260  1  0.148945  0.095195  0.001067  0.919897  0.001
H  H2  1  0.70888554  0.41800643  0.70888542  1  0.149025  0.095266  0.00106  0.919971  0.001
H  H3  1  0.70888255  0.29086106  0.99999633  1  0.148937  0.095208  0.001066  0.919881  0.001
H  H4  1  0.29100586  0.99999913  0.70900820  1  0.148938  0.095455  0.001058  0.919463  0.001
H  H5  1  0.70904197  0.70904482  0.41807445  1  0.149047  0.0956  0.001066  0.919604  0.001
H  H6  1  0.29111392  0.58199573  0.29111421  1  0.148944  0.095181  0.001058  0.920026  0.001
H  H7  1  0.29095860  0.29095461  0.58192407  1  0.14903  0.095567  0.001064  0.919608  0.001
H  H8  1  0.70899523  0.99999601  0.29099268  1  0.148924  0.095408  0.001057  0.919478  0.001
H  H9  1  0.58191877  0.29094185  0.29094666  1  0.149053  0.095567  0.001066  0.919495  0.001
H  H10  1  0.99999718  0.29086111  0.70889737  1  0.148936  0.095218  0.001067  0.919982  0.001
H  H11  1  0.00000116  0.70914379  0.29110338  1  0.14892  0.095287  0.001068  0.919856  0.001
H  H12  1  0.41808028  0.70905419  0.70905145  1  0.149076  0.095579  0.001066  0.919492  0.001
Ru  Ru13  1  0.40851580  0.40852377  0.99999233  1  0.813251  0.822329  -1.299553  4.023571  -1.198
Ru  Ru14  1  0.40851915  0.99998239  0.40851614  1  0.813395  0.822146  -1.298977  4.024853  -1.199
Ru  Ru15  1  0.59148422  0.59147566  0.00000675  1  0.813232  0.822295  -1.299317  4.023594  -1.198
Ru  Ru16  1  0.59148530  0.00001871  0.59148625  1  0.813349  0.822085  -1.29899  4.024864  -1.199
Ru  Ru17  1  0.00000848  0.59147075  0.59147763  1  0.813186  0.82215  -1.299914  4.024003  -1.201
Ru  Ru18  1  0.99999154  0.40853141  0.40852145  1  0.813172  0.822106  -1.300107  4.023939  -1.201
C  C19  1  0.35253952  0.64758372  0.99999438  1  0.161201  0.436692  0.009246  4.091637  0.008
C  C20  1  0.64746031  0.29502974  0.64745940  1  0.161066  0.436484  0.00927  4.091952  0.008
C  C21  1  0.64746258  0.35241726  0.00000455  1  0.161219  0.436723  0.009245  4.091728  0.008
C  C22  1  0.35250374  0.00000197  0.64751350  1  0.161184  0.436227  0.009278  4.09083  0.008
C  C23  1  0.64753662  0.64753416  0.29506674  1  0.161006  0.436009  0.009253  4.091686  0.008
C  C24  1  0.35254205  0.70497345  0.35254315  1  0.161145  0.436626  0.009267  4.091963  0.008
C  C25  1  0.35246283  0.35246345  0.70493289  1  0.160948  0.435932  0.009252  4.091778  0.008
C  C26  1  0.64750014  0.99999730  0.35248945  1  0.161373  0.43649  0.009279  4.090758  0.008
C  C27  1  0.70493201  0.35245472  0.35245253  1  0.161044  0.436138  0.009257  4.091368  0.008
C  C28  1  0.00000673  0.35242438  0.64747695  1  0.161181  0.43657  0.009247  4.092051  0.008
C  C29  1  0.99999121  0.64757805  0.35252228  1  0.16119  0.436558  0.009249  4.09194  0.008
C  C30  1  0.29506704  0.64754224  0.64754558  1  0.16099  0.436076  0.009258  4.091313  0.008
C  C31  1  0.14744380  0.14708565  0.00000162  1  0.045681  0.093008  -0.038251  3.800266  -0.038
C  C32  1  0.14747307  0.00036874  0.14747523  1  0.045946  0.093125  -0.038266  3.799913  -0.038
C  C33  1  0.85255622  0.85291377  0.99999746  1  0.045658  0.092991  -0.038249  3.800362  -0.038
C  C34  1  0.85252833  0.99962924  0.85252634  1  0.045938  0.093161  -0.038266  3.79985  -0.038
C  C35  1  0.99999685  0.85291022  0.85254930  1  0.045727  0.092958  -0.038256  3.799956  -0.038
C  C36  1  0.00000316  0.14708921  0.14744978  1  0.045695  0.092926  -0.03826  3.799868  -0.038
N  N37  1  0.24049696  0.23975853  0.00000076  1  -0.403123  -0.363562  0.007408  3.37632  0.021
N  N38  1  0.24051075  0.00074415  0.24051581  1  -0.40335  -0.363663  0.007393  3.376906  0.021
N  N39  1  0.75950298  0.76024143  0.00000094  1  -0.403107  -0.36356  0.007419  3.376363  0.021
N  N40  1  0.75949161  0.99925448  0.75948673  1  -0.403304  -0.363647  0.007394  3.376862  0.021
N  N41  1  0.99999782  0.76024084  0.75949453  1  -0.402936  -0.363534  0.007381  3.376016  0.021
N  N42  1  0.00000123  0.23975794  0.24050358  1  -0.402951  -0.363536  0.007357  3.375894  0.021
O  O43  1  0.29646008  0.52496873  0.99998788  1  -0.291016  -0.406987  -0.025512  2.449595  -0.027
O  O44  1  0.52490941  0.22852254  0.52490270  1  -0.290674  -0.4066  -0.025347  2.450348  -0.027
O  O45  1  0.52491561  0.29637691  0.00000876  1  -0.290711  -0.406746  -0.025382  2.45013  -0.027
O  O46  1  0.29645447  0.99995430  0.52490132  1  -0.290995  -0.40694  -0.025457  2.44991  -0.027
O  O47  1  0.70357242  0.70352824  0.22849612  1  -0.290863  -0.406866  -0.025484  2.450019  -0.027
O  O48  1  0.29645306  0.77148939  0.29645306  1  -0.291096  -0.406977  -0.025483  2.449886  -0.027
O  O49  1  0.47508552  0.70362343  0.99998920  1  -0.290691  -0.406694  -0.025375  2.450049  -0.027
O  O50  1  0.47510949  0.00004442  0.70355914  1  -0.290959  -0.406877  -0.025457  2.449929  -0.027
O  O51  1  0.47507283  0.47504194  0.77151738  1  -0.290876  -0.406867  -0.025482  2.449948  -0.027
O  O52  1  0.70354874  0.22851288  0.70355004  1  -0.291113  -0.406964  -0.025482  2.449888  -0.027
O  O53  1  0.70354942  0.00004406  0.47510163  1  -0.291066  -0.407017  -0.025459  2.449944  -0.027
O  O54  1  0.52492566  0.52495593  0.22848129  1  -0.290887  -0.406908  -0.025488  2.449981  -0.027
O  O55  1  0.47509366  0.77147726  0.47509719  1  -0.290702  -0.406661  -0.025344  2.450352  -0.027
O  O56  1  0.70354202  0.47503226  0.00001105  1  -0.291029  -0.407027  -0.025506  2.449653  -0.027
O  O57  1  0.52489288  0.99995238  0.29644341  1  -0.291065  -0.407045  -0.025461  2.450008  -0.027
O  O58  1  0.29642703  0.29647028  0.77150351  1  -0.290821  -0.406815  -0.025491  2.450099  -0.027
O  O59  1  0.77151843  0.47502562  0.47505877  1  -0.290878  -0.406793  -0.025488  2.449841  -0.027
O  O60  1  0.00001635  0.47503023  0.70354949  1  -0.291015  -0.406909  -0.025509  2.449703  -0.027
O  O61  1  0.99999276  0.70361557  0.47506687  1  -0.290636  -0.406572  -0.025379  2.450398  -0.027
O  O62  1  0.77150178  0.29647036  0.29642388  1  -0.290825  -0.406873  -0.02551  2.450235  -0.027
O  O63  1  0.00000558  0.29638660  0.52493389  1  -0.290627  -0.406531  -0.025394  2.450398  -0.027
O  O64  1  0.22848118  0.52497225  0.52493878  1  -0.290871  -0.406752  -0.025504  2.449766  -0.027
O  O65  1  0.99998366  0.52497285  0.29644958  1  -0.29096  -0.406913  -0.025526  2.449779  -0.027
O  O66  1  0.22849630  0.70352687  0.70357326  1  -0.290783  -0.406834  -0.025495  2.450262  -0.027
