# generated using pymatgen
data_Cu3H8C10Br2(NCl3)2
_symmetry_space_group_name_H-M   'P 1'
_cell_length_a   7.34170027
_cell_length_b   9.10391012
_cell_length_c   15.07697156
_cell_angle_alpha   89.97926104
_cell_angle_beta   90.01819946
_cell_angle_gamma   109.44885273
_symmetry_Int_Tables_number   1
_chemical_formula_structural   Cu3H8C10Br2(NCl3)2
_chemical_formula_sum   'Cu6 H16 C20 Br4 N4 Cl12'
_cell_volume   950.21599053
_cell_formula_units_Z   2
loop_
 _symmetry_equiv_pos_site_id
 _symmetry_equiv_pos_as_xyz
  1  'x, y, z'
loop_
 _atom_site_type_symbol
 _atom_site_label
 _atom_site_symmetry_multiplicity
 _atom_site_fract_x
 _atom_site_fract_y
 _atom_site_fract_z
 _atom_site_occupancy
 _atom_site_hle17_ddec_charge
 _atom_site_hle17_ddec_spin_density
 _atom_site_hle17_ddec_sum_bond_order
 _atom_site_hle17_magmom
 _atom_site_hse06_10hf_ddec_charge
 _atom_site_hse06_10hf_ddec_spin_density
 _atom_site_hse06_10hf_ddec_sum_bond_order
 _atom_site_hse06_10hf_magmom
 _atom_site_hse06_ddec_charge
 _atom_site_hse06_ddec_spin_density
 _atom_site_hse06_ddec_sum_bond_order
 _atom_site_hse06_magmom
 _atom_site_pbe_cm5_charge
 _atom_site_pbe_ddec_charge
 _atom_site_pbe_ddec_spin_density
 _atom_site_pbe_ddec_sum_bond_order
 _atom_site_pbe_magmom
Cu  Cu0  1  0.95417953  0.63993536  0.42827397  1  0.690549  -0.59426  2.004568  -0.419  0.690945  -0.706581  2.40567  -0.546  0.787738  -0.798075  2.324798  -0.636  0.507824  0.63695  -0.628497  2.455386  -0.48
Cu  Cu1  1  0.04530380  0.86137513  0.92791548  1  0.695877  0.596916  2.009572  0.427  0.695946  0.705677  2.410977  0.553  0.792083  0.79368  2.329601  0.642  0.5121  0.644189  0.637097  2.459686  0.492
Cu  Cu2  1  0.04573868  0.36089331  0.57205769  1  0.695559  0.584637  2.005404  0.419  0.695211  0.69722  2.406704  0.547  0.792858  0.790981  2.324422  0.64  0.50853  0.640515  0.606334  2.457268  0.469
Cu  Cu3  1  0.95436421  0.13916205  0.07209119  1  0.696548  0.596885  2.009996  0.427  0.696678  0.705417  2.411117  0.554  0.792597  0.793231  2.329994  0.642  0.512811  0.645012  0.637006  2.45978  0.493
Cu  Cu4  1  0.99947877  0.99750978  0.49971022  1  0.685049  -0.560602  1.989445  -0.394  0.671046  -0.668149  2.441312  -0.514  0.766272  -0.751053  2.354868  -0.595  0.451064  0.616323  -0.60772  2.49821  -0.463
Cu  Cu5  1  0.99994575  0.50009870  0.00000159  1  0.685358  -0.558109  1.970605  -0.394  0.670744  -0.667813  2.4212  -0.515  0.767521  -0.754374  2.335248  -0.599  0.445923  0.612337  -0.595393  2.478829  -0.455
H  H6  1  0.58621172  0.47245004  0.14191324  1  0.125927  -0.000208  0.951499  -0.001  0.135164  -0.000237  1.010499  -0.001  0.139136  -0.000147  1.008026  -0.001  0.096837  0.13259  -0.000258  1.012102  -0.001
H  H7  1  0.41345563  0.02824185  0.64189026  1  0.125284  0.000985  0.952607  0.001  0.134975  0.000969  1.011169  0.001  0.139002  0.000731  1.008609  0.001  0.096634  0.132228  0.001122  1.013058  0.001
H  H8  1  0.41328948  0.52779924  0.85826392  1  0.125719  0.001215  0.952188  0.001  0.135091  0.001215  1.011051  0.001  0.139051  0.000914  1.008581  0.001  0.096765  0.132561  0.001411  1.012594  0.001
H  H9  1  0.58755016  0.97197300  0.35817690  1  0.124997  0.000338  0.952516  0.001  0.134786  0.000215  1.011288  0.001  0.138771  0.000135  1.008888  0.001  0.096341  0.132128  0.000283  1.012915  0.001
H  H10  1  0.33837856  0.23335045  0.20370855  1  0.094737  -0.000774  0.976408  -0.001  0.101812  -0.000457  1.044978  0.0  0.104866  -0.000351  1.041834  0.0  0.089732  0.099483  -0.000525  1.047386  0.0
H  H11  1  0.66117459  0.26725745  0.70373384  1  0.095282  -7.3e-05  0.976103  0.001  0.102247  -0.000326  1.044653  0.0  0.105244  -0.000343  1.041539  0.0  0.089962  0.10006  -0.000257  1.046949  0.0
H  H12  1  0.66210939  0.76626143  0.79638119  1  0.094402  -9e-05  0.976775  0.001  0.101411  -0.000359  1.045357  0.0  0.104437  -0.000372  1.042219  0.0  0.089656  0.099166  -0.000306  1.047683  0.0
H  H13  1  0.33852940  0.73347416  0.29624032  1  0.094891  0.000478  0.976203  0.001  0.101963  -1.9e-05  1.044616  0.0  0.10496  -6.7e-05  1.041496  0.0  0.090037  0.099842  3.7e-05  1.046807  0.0
H  H14  1  0.35671749  0.17112783  0.36612831  1  0.103151  -0.000298  0.966646  -0.001  0.109374  -0.000362  1.034288  -0.001  0.112046  -0.000225  1.033392  0.0  0.094277  0.107323  -0.000453  1.035293  -0.001
H  H15  1  0.64309433  0.32910043  0.86617448  1  0.104119  0.000988  0.965192  0.001  0.109894  0.00107  1.033194  0.001  0.112299  0.00084  1.032675  0.0  0.094976  0.1084  0.001202  1.033421  0.001
H  H16  1  0.64438543  0.82824946  0.63391506  1  0.102817  0.000798  0.966985  0.001  0.109067  0.000796  1.034622  0.001  0.111707  0.000633  1.033764  0.0  0.094374  0.107056  0.00086  1.035588  0.001
H  H17  1  0.35579117  0.67199094  0.13372664  1  0.103459  0.000981  0.965703  0.001  0.109195  0.001064  1.03388  0.001  0.111575  0.000833  1.033366  0.0  0.094744  0.107722  0.001196  1.034093  0.001
H  H18  1  0.62308980  0.35007621  0.45815136  1  0.08949  -0.001974  0.969475  -0.002  0.095914  -0.001762  1.037217  -0.002  0.098794  -0.001354  1.03363  -0.001  0.098717  0.093709  -0.001973  1.040081  -0.002
H  H19  1  0.37680406  0.14979783  0.95818048  1  0.08956  0.000618  0.969491  0.002  0.095995  0.000485  1.037247  0.002  0.098802  0.000226  1.033721  0.001  0.098831  0.093971  0.000726  1.040042  0.002
H  H20  1  0.37824656  0.64903291  0.54177001  1  0.088522  0.000614  0.969835  0.002  0.09527  0.000233  1.037407  0.002  0.098124  0.000106  1.033959  0.001  0.098631  0.093242  0.000289  1.039825  0.002
H  H21  1  0.62214345  0.85111569  0.04164571  1  0.089233  0.000643  0.969479  0.002  0.095481  0.000496  1.037341  0.002  0.098311  0.000232  1.033769  0.001  0.098854  0.093465  0.000744  1.040128  0.002
C  C22  1  0.73565297  0.52881014  0.26689115  1  0.230802  0.004261  3.719311  0.005  0.228182  -0.000964  3.997023  0.0  0.240156  0.000586  4.018947  0.002  0.10414  0.220366  -0.00216  3.982651  -0.001
C  C23  1  0.26429312  0.97125922  0.76682521  1  0.230902  -0.004942  3.718845  -0.006  0.228466  0.00024  3.996456  -0.001  0.240472  -0.001213  4.018271  -0.002  0.104325  0.220574  0.001407  3.982207  0.001
C  C24  1  0.26455583  0.47105818  0.73316405  1  0.231052  -0.00476  3.718583  -0.006  0.22819  0.000225  3.996634  -0.001  0.24016  -0.001172  4.01861  -0.002  0.104198  0.220368  0.001289  3.982202  0.001
C  C25  1  0.73608781  0.02891329  0.23314242  1  0.231396  -0.00509  3.720589  -0.006  0.228732  0.000171  3.998484  -0.001  0.240722  -0.001208  4.020339  -0.002  0.104574  0.220835  0.001276  3.984281  0.001
C  C26  1  0.58931544  0.43982677  0.21113509  1  -0.148692  -0.009503  3.721864  -0.01  -0.16491  -0.003946  3.965643  -0.004  -0.172425  -0.003695  3.985181  -0.004  -0.092658  -0.159717  -0.003853  3.951846  -0.004
C  C27  1  0.41050948  0.06054578  0.71113393  1  -0.149076  0.009841  3.72382  0.01  -0.165522  0.004166  3.967254  0.005  -0.173034  0.003898  3.986864  0.005  -0.092827  -0.160344  0.004222  3.953425  0.005
C  C28  1  0.41071451  0.56012369  0.78897514  1  -0.14889  0.009419  3.721696  0.01  -0.1655  0.004106  3.96586  0.005  -0.173042  0.003834  3.985389  0.005  -0.092644  -0.160204  0.004021  3.951875  0.005
C  C29  1  0.58991044  0.93971525  0.28888808  1  -0.149813  0.009159  3.723304  0.01  -0.166394  0.003541  3.967087  0.004  -0.173914  0.003457  3.986707  0.004  -0.093389  -0.161224  0.003441  3.953267  0.004
C  C30  1  0.45150148  0.30799980  0.24641174  1  0.023299  0.007678  3.679494  0.008  0.007266  0.001771  3.92042  0.002  0.012749  0.002392  3.935704  0.003  -0.068114  0.003842  0.001155  3.909919  0.001
C  C31  1  0.54822072  0.19237406  0.74640858  1  0.024158  -0.009591  3.678241  -0.009  0.007872  -0.003103  3.919459  -0.003  0.013336  -0.003459  3.934875  -0.003  -0.067958  0.004536  -0.002631  3.908597  -0.002
C  C32  1  0.54898761  0.69167144  0.75366009  1  0.024055  -0.009213  3.679712  -0.009  0.008066  -0.003072  3.920472  -0.003  0.013626  -0.00342  3.935746  -0.003  -0.068085  0.00461  -0.002555  3.909858  -0.002
C  C33  1  0.45161886  0.80822292  0.25357024  1  0.023617  -0.009372  3.678649  -0.009  0.007569  -0.002981  3.919596  -0.003  0.013084  -0.003359  3.934949  -0.003  -0.067811  0.004176  -0.002506  3.908753  -0.002
C  C34  1  0.46194308  0.27261589  0.33586917  1  -0.108053  -0.012064  3.711379  -0.012  -0.119677  -0.005281  3.958568  -0.006  -0.12602  -0.004579  3.977413  -0.005  -0.089691  -0.115516  -0.005538  3.945607  -0.006
C  C35  1  0.53793484  0.22758195  0.83589494  1  -0.108231  0.012793  3.709365  0.013  -0.119713  0.005878  3.956957  0.006  -0.126183  0.005152  3.976202  0.005  -0.08894  -0.115206  0.006229  3.942977  0.006
C  C36  1  0.53893659  0.72685158  0.66415693  1  -0.108029  0.011895  3.712307  0.012  -0.119591  0.005428  3.959038  0.006  -0.125927  0.004843  3.977805  0.005  -0.089449  -0.115433  0.005432  3.94612  0.006
C  C37  1  0.46139631  0.77323713  0.16402347  1  -0.106534  0.012803  3.709284  0.013  -0.118252  0.005884  3.956667  0.006  -0.124727  0.005156  3.975934  0.005  -0.088548  -0.113729  0.006223  3.942686  0.006
C  C38  1  0.60921970  0.37019031  0.38767264  1  0.148475  0.006178  3.651145  0.007  0.118545  -7.8e-05  3.904383  0.001  0.129283  0.00145  3.920024  0.003  0.040766  0.111914  -0.001282  3.894025  0.0
C  C39  1  0.39067598  0.12986906  0.88766600  1  0.147925  -0.007103  3.650997  -0.008  0.117727  -0.001191  3.904579  -0.002  0.128414  -0.002603  3.920339  -0.004  0.040536  0.11112  5e-05  3.893951  -0.001
C  C40  1  0.39186438  0.62920090  0.61229644  1  0.148709  -0.006847  3.652168  -0.007  0.118722  -0.001362  3.904983  -0.002  0.129505  -0.002621  3.920571  -0.004  0.040434  0.111958  -0.000247  3.894685  -0.001
C  C41  1  0.60864974  0.87083365  0.11220666  1  0.148793  -0.007546  3.650031  -0.008  0.118917  -0.001298  3.903029  -0.002  0.129608  -0.00267  3.918786  -0.004  0.041137  0.112316  -7.5e-05  3.892378  -0.001
Br  Br42  1  0.93277009  0.70324248  0.21991297  1  -0.027023  -0.001867  1.425535  -0.003  -0.032608  -0.001674  1.726381  -0.003  -0.04039  -0.00071  1.718432  -0.002  0.081584  -0.027937  -0.002489  1.732549  -0.004
Br  Br43  1  0.06754939  0.79661394  0.71989929  1  -0.025829  0.00233  1.425925  0.003  -0.031974  0.002543  1.726873  0.003  -0.039915  0.001638  1.718923  0.003  0.082539  -0.026855  0.003224  1.732935  0.004
Br  Br44  1  0.06682846  0.29715486  0.78019055  1  -0.026358  0.001963  1.425993  0.003  -0.032249  0.002292  1.72707  0.003  -0.040116  0.001465  1.719158  0.002  0.082045  -0.027344  0.002798  1.733135  0.004
Br  Br45  1  0.93338441  0.20314227  0.28003658  1  -0.02474  0.002583  1.427181  0.003  -0.030876  0.002634  1.727939  0.003  -0.038757  0.001805  1.719847  0.002  0.083024  -0.025685  0.003244  1.734051  0.004
N  N46  1  0.74482601  0.49636998  0.35313269  1  -0.335339  -0.086045  3.40363  -0.106  -0.281377  -0.063594  3.681427  -0.083  -0.315988  -0.054983  3.707643  -0.076  -0.357378  -0.261476  -0.064716  3.665992  -0.082
N  N47  1  0.25513446  0.00377378  0.85305612  1  -0.333468  0.082759  3.405092  0.105  -0.280418  0.060582  3.683731  0.082  -0.315324  0.052342  3.709918  0.074  -0.356721  -0.259849  0.062481  3.668143  0.082
N  N48  1  0.25599777  0.50319393  0.64683835  1  -0.335081  0.079935  3.405236  0.101  -0.281296  0.059329  3.683647  0.08  -0.31623  0.051781  3.709793  0.074  -0.357331  -0.260877  0.058638  3.668296  0.077
N  N49  1  0.74463576  0.99664383  0.14684645  1  -0.334935  0.082921  3.406662  0.105  -0.281719  0.060687  3.685108  0.082  -0.316623  0.052474  3.711298  0.075  -0.357749  -0.261134  0.06253  3.669484  0.082
Cl  Cl50  1  0.15756369  0.50353302  0.40961944  1  -0.455497  -0.143406  1.074443  -0.163  -0.462839  -0.092312  1.377761  -0.11  -0.503049  -0.074673  1.353869  -0.092  -0.282527  -0.438519  -0.097351  1.394163  -0.114
Cl  Cl51  1  0.84157297  0.99668293  0.90950696  1  -0.451341  0.133489  1.078252  0.156  -0.461128  0.08419  1.382851  0.105  -0.502315  0.067895  1.359179  0.088  -0.27898  -0.43502  0.088934  1.398907  0.108
Cl  Cl52  1  0.84184855  0.49607949  0.59067650  1  -0.457433  0.124368  1.079055  0.143  -0.463376  0.081385  1.382671  0.099  -0.503831  0.067873  1.358712  0.086  -0.281882  -0.438695  0.080512  1.39938  0.096
Cl  Cl53  1  0.15781376  0.00357309  0.09043606  1  -0.451802  0.132477  1.079137  0.155  -0.461723  0.083427  1.384104  0.104  -0.502908  0.067481  1.360431  0.088  -0.279173  -0.435464  0.087771  1.399957  0.107
Cl  Cl54  1  0.75688762  0.78747844  0.45531429  1  -0.368661  -0.185045  1.303324  -0.213  -0.362441  -0.139994  1.645935  -0.17  -0.408001  -0.118262  1.617608  -0.148  -0.213653  -0.336394  -0.145854  1.667107  -0.173
Cl  Cl55  1  0.24112911  0.71227429  0.95454385  1  -0.379544  -0.008215  1.293578  -0.01  -0.36905  -0.00443  1.633888  -0.006  -0.413298  -0.006132  1.605617  -0.008  -0.220111  -0.345397  0.001115  1.655334  0.0
Cl  Cl56  1  0.23979246  0.21041402  0.54499958  1  -0.377881  -0.021541  1.294516  -0.023  -0.368439  -0.012154  1.634667  -0.013  -0.413508  -0.010941  1.606016  -0.012  -0.218218  -0.342946  -0.014273  1.656618  -0.015
Cl  Cl57  1  0.75851419  0.28815926  0.04545555  1  -0.379298  -0.008365  1.293608  -0.01  -0.368918  -0.00453  1.633964  -0.006  -0.413134  -0.006224  1.605752  -0.009  -0.220104  -0.345193  0.001005  1.65536  0.0
Cl  Cl58  1  0.20510077  0.86668442  0.46737742  1  -0.397648  -0.182642  1.227072  -0.21  -0.394314  -0.134814  1.562124  -0.164  -0.438144  -0.113277  1.530359  -0.143  -0.231603  -0.369953  -0.140402  1.585869  -0.167
Cl  Cl59  1  0.79573762  0.63436753  0.96752424  1  -0.408218  -0.021659  1.218623  -0.026  -0.400391  -0.018365  1.550768  -0.025  -0.44301  -0.017733  1.519245  -0.025  -0.237574  -0.378511  -0.013942  1.574678  -0.019
Cl  Cl60  1  0.79678778  0.13345495  0.53190847  1  -0.407805  -0.03039  1.216795  -0.035  -0.401098  -0.023879  1.548456  -0.029  -0.444305  -0.021143  1.516599  -0.027  -0.236285  -0.377486  -0.026236  1.572638  -0.032
Cl  Cl61  1  0.20416709  0.36599568  0.03268476  1  -0.408492  -0.021351  1.21931  -0.026  -0.400669  -0.018252  1.551538  -0.025  -0.443193  -0.017627  1.520019  -0.024  -0.237517  -0.37878  -0.013811  1.57545  -0.019
