# generated using pymatgen
data_CdH17C13S2N5
_symmetry_space_group_name_H-M   'P 1'
_cell_length_a   7.83480703
_cell_length_b   13.56501792
_cell_length_c   18.13257822
_cell_angle_alpha   106.91201406
_cell_angle_beta   101.57867466
_cell_angle_gamma   95.50130259
_symmetry_Int_Tables_number   1
_chemical_formula_structural   CdH17C13S2N5
_chemical_formula_sum   'Cd4 H68 C52 S8 N20'
_cell_volume   1781.62402782
_cell_formula_units_Z   4
loop_
 _symmetry_equiv_pos_site_id
 _symmetry_equiv_pos_as_xyz
  1  'x, y, z'
loop_
 _atom_site_type_symbol
 _atom_site_label
 _atom_site_symmetry_multiplicity
 _atom_site_fract_x
 _atom_site_fract_y
 _atom_site_fract_z
 _atom_site_occupancy
 _atom_site_pbe_bader_charge
 _atom_site_pbe_bader_spin_density
 _atom_site_pbe_cm5_charge
 _atom_site_pbe_ddec_charge
 _atom_site_pbe_ddec_spin_density
 _atom_site_pbe_ddec_sum_bond_order
 _atom_site_pbe_magmom
Cd  Cd0  1  0.86358414  0.38890313  0.39130887  1  1.04206  0  0.631974  0.631335  0  2.40066  0
Cd  Cd1  1  0.13643489  0.61108765  0.60869180  1  1.042288  0  0.63194  0.631233  0  2.400824  0
Cd  Cd2  1  0.64981982  0.60870318  0.10938602  1  1.042219  0  0.632586  0.630426  0  2.397735  0
Cd  Cd3  1  0.35018863  0.39129384  0.89060923  1  1.04224  0  0.632597  0.630392  0  2.397773  0
H  H4  1  0.94385471  0.23688105  0.25904487  1  0.43934  0  0.285028  0.276735  0  0.969255  0
H  H5  1  0.05615130  0.76311207  0.74094936  1  0.439453  0  0.285078  0.276759  0  0.969204  0
H  H6  1  0.11351381  0.26711194  0.33693055  1  0.434433  0  0.279093  0.269379  0  1.011343  0
H  H7  1  0.88649504  0.73287802  0.66306209  1  0.434163  0  0.279063  0.269313  0  1.011454  0
H  H8  1  0.57228886  0.23603627  0.27607716  1  0.391625  0  0.295599  0.282636  0  0.928968  0
H  H9  1  0.42773046  0.76395681  0.72392071  1  0.391759  0  0.295563  0.282496  0  0.929101  0
H  H10  1  0.61596725  0.33371885  0.24270613  1  0.42394  0  0.26064  0.246564  0  1.038563  0
H  H11  1  0.38405373  0.66627502  0.75729312  1  0.423997  0  0.260657  0.246549  0  1.038578  0
H  H12  1  0.65142460  0.36914169  0.51979724  1  0.107827  0  0.104983  0.082671  0  1.015546  0
H  H13  1  0.34859251  0.63086308  0.48019916  1  0.107856  0  0.104945  0.082602  0  1.015564  0
H  H14  1  0.57758463  0.25127636  0.59534146  1  0.070986  0  0.102278  0.106381  0  1.039109  0
H  H15  1  0.42240798  0.74873719  0.40465741  1  0.071069  0  0.102254  0.106328  0  1.039253  0
H  H16  1  0.82428539  0.02126443  0.45284338  1  0.097132  0  0.104721  0.119194  0  1.017196  0
H  H17  1  0.17568565  0.97872906  0.54716076  1  0.097089  0  0.104686  0.119161  0  1.017259  0
H  H18  1  0.88432728  0.14669157  0.38182992  1  0.077756  0  0.115612  0.08628  0  0.991573  0
H  H19  1  0.11566929  0.85329704  0.61817155  1  0.077939  0  0.115721  0.086455  0  0.991447  0
H  H20  1  0.64625750  0.97572272  0.54757717  1  0.088957  0  0.09289  0.139222  0  1.021954  0
H  H21  1  0.35370264  0.02428558  0.45242118  1  0.088584  0  0.092932  0.139279  0  1.021949  0
H  H22  1  0.56811647  0.07719831  0.61279444  1  0.049234  0  0.093123  0.133819  0  1.004733  0
H  H23  1  0.43183782  0.92280843  0.38720152  1  0.050057  0  0.093117  0.133853  0  1.00481  0
H  H24  1  0.79687812  0.06858724  0.62879488  1  0.061914  0  0.099202  0.144133  0  0.98156  0
H  H25  1  0.20307282  0.93141883  0.37120734  1  0.061935  0  0.099234  0.144201  0  0.98148  0
H  H26  1  0.15073103  0.44698661  0.31326930  1  0.031841  0  0.088827  0.063528  0  1.003873  0
H  H27  1  0.84928310  0.55300483  0.68672070  1  0.032075  0  0.088828  0.063548  0  1.003878  0
H  H28  1  0.01787977  0.37385432  0.21895815  1  0.043462  0  0.095558  0.070335  0  0.999202  0
H  H29  1  0.98213639  0.62613478  0.78103257  1  0.042609  0  0.095573  0.07033  0  0.999321  0
H  H30  1  0.25340138  0.24663596  0.21589138  1  0.017486  0  0.093207  0.093691  0  1.001531  0
H  H31  1  0.74662235  0.75335549  0.78410367  1  0.017654  0  0.093222  0.093755  0  1.001515  0
H  H32  1  0.31314544  0.36722403  0.20150676  1  0.031085  0  0.085525  0.084856  0  1.025361  0
H  H33  1  0.68687547  0.63276665  0.79848794  1  0.03109  0  0.085592  0.084992  0  1.025312  0
H  H34  1  0.47966036  0.44438394  0.34053441  1  0.002942  0  0.090818  0.066877  0  0.993431  0
H  H35  1  0.52035507  0.55561067  0.65945967  1  0.003044  0  0.09082  0.066827  0  0.993469  0
H  H36  1  0.41294577  0.33054644  0.36300123  1  0.066376  0  0.095344  0.07405  0  1.012136  0
H  H37  1  0.58707074  0.66945056  0.63699676  1  0.066572  0  0.095314  0.073988  0  1.01226  0
H  H38  1  0.56698947  0.76107262  0.23990487  1  0.426065  0  0.284729  0.27666  0  0.971793  0
H  H39  1  0.43302302  0.23892908  0.76009221  1  0.42608  0  0.284717  0.276588  0  0.971859  0
H  H40  1  0.39728918  0.72866062  0.16182473  1  0.449459  0  0.277732  0.267059  0  1.013225  0
H  H41  1  0.60272308  0.27134030  0.83817217  1  0.449456  0  0.277725  0.267036  0  1.01319  0
H  H42  1  0.89760369  0.66485901  0.25804130  1  0.429162  0  0.261253  0.248446  0  1.03567  0
H  H43  1  0.10240182  0.33514358  0.74196047  1  0.429065  0  0.261236  0.248427  0  1.035654  0
H  H44  1  0.94187601  0.76201262  0.22416392  1  0.414281  0  0.295842  0.282649  0  0.927946  0
H  H45  1  0.05811881  0.23798924  0.77583643  1  0.414218  0  0.295827  0.282664  0  0.927985  0
H  H46  1  0.62542235  0.84965059  0.11877475  1  0.079038  0  0.115414  0.086335  0  0.992471  0
H  H47  1  0.37454345  0.15034428  0.88121388  1  0.079149  0  0.11548  0.08632  0  0.992494  0
H  H48  1  0.68110911  0.97548977  0.04755799  1  0.122102  0  0.104882  0.120615  0  1.015681  0
H  H49  1  0.31884139  0.02450598  0.95243036  1  0.121746  0  0.104921  0.120709  0  1.015528  0
H  H50  1  0.92433310  0.74625100  0.90231531  1  0.059485  0  0.10343  0.108041  0  1.03864  0
H  H51  1  0.07567621  0.25376561  0.09768699  1  0.059755  0  0.103493  0.108064  0  1.038594  0
H  H52  1  0.85568000  0.62808681  0.97846062  1  0.086912  0  0.104464  0.081611  0  1.015495  0
H  H53  1  0.14433719  0.37192584  0.02154080  1  0.089039  0  0.104468  0.081587  0  1.015492  0
H  H54  1  0.93252614  0.92125738  0.88599302  1  0.041676  0  0.093678  0.135002  0  1.006064  0
H  H55  1  0.06746801  0.07875151  0.11400771  1  0.041651  0  0.093658  0.135024  0  1.005984  0
H  H56  1  0.85562534  0.02206908  0.95240060  1  0.086238  0  0.093172  0.139145  0  1.021467  0
H  H57  1  0.14436289  0.97793673  0.04760073  1  0.08633  0  0.093168  0.139144  0  1.021449  0
H  H58  1  0.70375044  0.92985845  0.87133177  1  0.05953  0  0.099491  0.144943  0  0.981449  0
H  H59  1  0.29624590  0.07015582  0.12866420  1  0.05997  0  0.099505  0.14497  0  0.981496  0
H  H60  1  0.49651770  0.62489776  0.28142380  1  0.047126  0  0.095578  0.070689  0  0.999749  0
H  H61  1  0.50348951  0.37511107  0.71857834  1  0.047463  0  0.09557  0.070735  0  0.999647  0
H  H62  1  0.36325395  0.55025920  0.18758339  1  0.053015  0  0.089614  0.06468  0  1.003954  0
H  H63  1  0.63675113  0.44974576  0.81242053  1  0.052935  0  0.089593  0.064572  0  1.004114  0
H  H64  1  0.20134884  0.63095235  0.29919645  1  0.039723  0  0.085352  0.085007  0  1.02139  0
H  H65  1  0.79866406  0.36906345  0.70080536  1  0.040279  0  0.08537  0.085051  0  1.021603  0
H  H66  1  0.26062772  0.75126016  0.28418685  1  0.015531  0  0.093154  0.093848  0  0.998278  0
H  H67  1  0.73938405  0.24875324  0.71581051  1  0.015812  0  0.093129  0.093826  0  0.998254  0
H  H68  1  0.10001319  0.66620234  0.13724499  1  0.05208  0  0.093973  0.072045  0  1.017568  0
H  H69  1  0.89998775  0.33380730  0.86275690  1  0.051898  0  0.093947  0.072142  0  1.017381  0
H  H70  1  0.03318131  0.55309706  0.16058703  1  0.050442  0  0.091204  0.066294  0  0.991846  0
H  H71  1  0.96683317  0.44691014  0.83941468  1  0.050375  0  0.091243  0.066337  0  0.99184  0
C  C72  1  0.68955301  0.29170873  0.50744736  1  0.453425  0  0.041614  0.098735  0  3.973721  0
C  C73  1  0.31045351  0.70829457  0.49255022  1  0.453388  0  0.041525  0.098645  0  3.973669  0
C  C74  1  0.64981017  0.22580521  0.54974665  1  -0.062058  0  -0.087025  -0.195824  0  3.958308  0
C  C75  1  0.35018125  0.77420368  0.45025280  1  -0.061946  0  -0.086976  -0.195711  0  3.958436  0
C  C76  1  0.70248471  0.12760740  0.53374945  1  0.044972  0  0.0166  0.220758  0  3.954484  0
C  C77  1  0.29749297  0.87239771  0.46625157  1  0.04473  0  0.016522  0.220777  0  3.9545  0
C  C78  1  0.78529620  0.09811271  0.47076510  1  -0.038515  0  -0.086007  -0.185797  0  3.921955  0
C  C79  1  0.21468636  0.90188538  0.52923859  1  -0.03779  0  -0.085994  -0.185883  0  3.921975  0
C  C80  1  0.81816539  0.16780363  0.43037180  1  0.481954  0  0.040614  0.089953  0  3.974476  0
C  C81  1  0.18183067  0.83218809  0.56962920  1  0.481199  0  0.040529  0.089935  0  3.974434  0
C  C82  1  0.67508118  0.05859970  0.58283440  1  -0.095194  0  -0.236048  -0.424995  0  3.941083  0
C  C83  1  0.32487496  0.94140786  0.41716462  1  -0.096063  0  -0.23603  -0.425128  0  3.941163  0
C  C84  1  0.11527741  0.36785760  0.26971876  1  0.284429  0  -0.080628  0.028746  0  3.906064  0
C  C85  1  0.88473798  0.63213308  0.73027281  1  0.285288  0  -0.080658  0.0287  0  3.906393  0
C  C86  1  0.28035488  0.33177850  0.24544181  1  -0.027209  0  -0.173638  -0.215116  0  3.93973  0
C  C87  1  0.71966282  0.66821456  0.75455319  1  -0.027106  0  -0.173641  -0.215297  0  3.939904  0
C  C88  1  0.44165080  0.35890153  0.31513559  1  0.299936  0  -0.084495  0.023033  0  3.921329  0
C  C89  1  0.55836732  0.64109232  0.68486127  1  0.299513  0  -0.0846  0.023065  0  3.921285  0
C  C90  1  0.81007713  0.62159223  0.43703895  1  -0.234431  0  0.008103  0.133391  0  4.119121  0
C  C91  1  0.18993411  0.37839967  0.56298187  1  -0.233622  0  0.00802  0.133265  0  4.119452  0
C  C92  1  0.78252139  0.72744486  0.45773043  1  0.234923  0  -0.050078  -0.166137  0  4.201566  0
C  C93  1  0.21748819  0.27254474  0.54229255  1  0.234342  0  -0.049879  -0.165882  0  4.201593  0
C  C94  1  0.75844587  0.77820474  0.53361518  1  0.819898  0  0.166784  0.255564  0  4.137232  0
C  C95  1  0.24155036  0.22178414  0.46640565  1  0.819567  0  0.166745  0.255638  0  4.137121  0
C  C96  1  0.78125058  0.78392475  0.40365353  1  0.760045  0  0.170136  0.270019  0  4.115389  0
C  C97  1  0.21874725  0.21606959  0.59636859  1  0.760038  0  0.170167  0.270008  0  4.114765  0
C  C98  1  0.68981460  0.82882312  0.06961324  1  0.453339  0  0.041273  0.089771  0  3.978721  0
C  C99  1  0.31016063  0.17117642  0.93037924  1  0.45317  0  0.04121  0.089933  0  3.978855  0
C  C100  1  0.72018783  0.89873713  0.02910084  1  -0.010935  0  -0.084734  -0.18467  0  3.918861  0
C  C101  1  0.27977994  0.10126400  0.97089038  1  -0.010562  0  -0.084725  -0.184842  0  3.918966  0
C  C102  1  0.80101637  0.86965297  0.96541619  1  -0.057349  0  0.016875  0.221707  0  3.94931  0
C  C103  1  0.19897576  0.13035434  0.03458185  1  -0.056924  0  0.016889  0.221726  0  3.949433  0
C  C104  1  0.85390943  0.77148425  0.94864858  1  0.014085  0  -0.087292  -0.195975  0  3.957331  0
C  C105  1  0.14609792  0.22852927  0.05135514  1  0.013536  0  -0.087363  -0.195991  0  3.957229  0
C  C106  1  0.81694545  0.70539701  0.99122678  1  0.495413  0  0.04037  0.096334  0  3.969559  0
C  C107  1  0.18305823  0.29461414  0.00877286  1  0.49327  0  0.040295  0.096379  0  3.969494  0
C  C108  1  0.82648524  0.93938372  0.91664152  1  -0.07924  0  -0.238462  -0.429195  0  3.94166  0
C  C109  1  0.17350482  0.06062517  0.08335728  1  -0.080099  0  -0.23843  -0.42921  0  3.941658  0
C  C110  1  0.39824736  0.62978908  0.23052208  1  0.245989  0  -0.080146  0.029036  0  3.901758  0
C  C111  1  0.60176056  0.37021816  0.76947865  1  0.245891  0  -0.080053  0.029201  0  3.901587  0
C  C112  1  0.23346889  0.66603311  0.25496504  1  -0.037132  0  -0.173441  -0.213765  0  3.93594  0
C  C113  1  0.76654196  0.33398035  0.74503557  1  -0.038361  0  -0.173446  -0.213845  0  3.936165  0
C  C114  1  0.07161256  0.63860487  0.18549261  1  0.28778  0  -0.084605  0.022838  0  3.924455  0
C  C115  1  0.92839312  0.36140318  0.81450926  1  0.287776  0  -0.084565  0.022789  0  3.924402  0
C  C116  1  0.69251798  0.37505256  0.06163882  1  -0.223421  0  0.007828  0.134563  0  4.121699  0
C  C117  1  0.30748433  0.62494378  0.93836084  1  -0.223248  0  0.007798  0.134582  0  4.121536  0
C  C118  1  0.71547689  0.26839666  0.03962550  1  0.263187  0  -0.050937  -0.16714  0  4.202591  0
C  C119  1  0.28451258  0.73159736  0.96036893  1  0.263212  0  -0.050884  -0.166936  0  4.20242  0
C  C120  1  0.71963792  0.21202205  0.09389506  1  0.769564  0  0.171032  0.270241  0  4.113262  0
C  C121  1  0.28035421  0.78796878  0.90609611  1  0.769353  0  0.171  0.270071  0  4.113506  0
C  C122  1  0.73493675  0.21742024  0.96291864  1  0.784461  0  0.16589  0.255389  0  4.135541  0
C  C123  1  0.26504805  0.78257537  0.03707638  1  0.785214  0  0.165748  0.255076  0  4.13595  0
S  S124  1  0.78752158  0.55183592  0.50161148  1  -0.288403  0  -0.191463  -0.367639  0  2.504947  0
S  S125  1  0.21248664  0.44815519  0.49840732  1  -0.288549  0  -0.19145  -0.367535  0  2.505038  0
S  S126  1  0.86138655  0.56371018  0.34913703  1  -0.237326  0  -0.178525  -0.332201  0  2.45456  0
S  S127  1  0.13863045  0.43628402  0.65088357  1  -0.237827  0  -0.178505  -0.332194  0  2.454559  0
S  S128  1  0.65076776  0.43393930  0.15160017  1  -0.236482  0  -0.180516  -0.337511  0  2.457554  0
S  S129  1  0.34924134  0.56605779  0.84840065  1  -0.236545  0  -0.180505  -0.337528  0  2.457619  0
S  S130  1  0.71122533  0.44511979  0.99700681  1  -0.291058  0  -0.19114  -0.367831  0  2.497528  0
S  S131  1  0.28877773  0.55487890  0.00299395  1  -0.291147  0  -0.191156  -0.367918  0  2.497516  0
N  N132  1  0.77520390  0.26429272  0.44930036  1  -1.23419  0  -0.338803  -0.236994  0  3.524504  0
N  N133  1  0.22480425  0.73570200  0.55069768  1  -1.233853  0  -0.338694  -0.236936  0  3.52451  0
N  N134  1  0.02392605  0.29815857  0.30427798  1  -1.136732  0  -0.633217  -0.550375  0  3.323574  0
N  N135  1  0.97608610  0.70183372  0.69571538  1  -1.13704  0  -0.633293  -0.550327  0  3.323748  0
N  N136  1  0.59573646  0.31575920  0.29206751  1  -1.102767  0  -0.635435  -0.5542  0  3.36667  0
N  N137  1  0.40428192  0.68423469  0.70793158  1  -1.102881  0  -0.635339  -0.553959  0  3.366548  0
N  N138  1  0.74369657  0.81942229  0.59818336  1  -1.212795  0  -0.338146  -0.422888  0  2.803222  0
N  N139  1  0.25628173  0.18057836  0.40183386  1  -1.212285  0  -0.33821  -0.423074  0  2.803131  0
N  N140  1  0.77402313  0.82994127  0.35749796  1  -1.188139  0  -0.343473  -0.438658  0  2.790953  0
N  N141  1  0.22598678  0.17003975  0.64252539  1  -1.187965  0  -0.3435  -0.438694  0  2.790219  0
N  N142  1  0.73351040  0.73255104  0.05020786  1  -1.245137  0  -0.336815  -0.233149  0  3.525811  0
N  N143  1  0.26648010  0.26745155  0.94978684  1  -1.244885  0  -0.336832  -0.233277  0  3.526007  0
N  N144  1  0.48794386  0.69892363  0.19503499  1  -1.130903  0  -0.632876  -0.548509  0  3.329434  0
N  N145  1  0.51206610  0.30107808  0.80496247  1  -1.130793  0  -0.632974  -0.548485  0  3.329289  0
N  N146  1  0.91792818  0.68232673  0.20852053  1  -1.141094  0  -0.63391  -0.553959  0  3.363057  0
N  N147  1  0.08207313  0.31767510  0.79148025  1  -1.140566  0  -0.633941  -0.554015  0  3.363145  0
N  N148  1  0.72948707  0.16634624  0.14032945  1  -1.201248  0  -0.344555  -0.439367  0  2.787461  0
N  N149  1  0.27051894  0.83364688  0.85966479  1  -1.201314  0  -0.344562  -0.439297  0  2.78774  0
N  N150  1  0.74643745  0.17645704  0.89776907  1  -1.214179  0  -0.34062  -0.42335  0  2.789602  0
N  N151  1  0.25354761  0.82353542  0.10222419  1  -1.214754  0  -0.340481  -0.423101  0  2.789925  0
