# generated using pymatgen
data_BiH8C12Cl
_symmetry_space_group_name_H-M   'P 1'
_cell_length_a   8.66457557
_cell_length_b   9.17702452
_cell_length_c   12.81448483
_cell_angle_alpha   89.99996912
_cell_angle_beta   90.00016289
_cell_angle_gamma   90.00040932
_symmetry_Int_Tables_number   1
_chemical_formula_structural   BiH8C12Cl
_chemical_formula_sum   'Bi4 H32 C48 Cl4'
_cell_volume   1018.94404914
_cell_formula_units_Z   4
loop_
 _symmetry_equiv_pos_site_id
 _symmetry_equiv_pos_as_xyz
  1  'x, y, z'
loop_
 _atom_site_type_symbol
 _atom_site_label
 _atom_site_symmetry_multiplicity
 _atom_site_fract_x
 _atom_site_fract_y
 _atom_site_fract_z
 _atom_site_occupancy
 _atom_site_pbe_bader_spin_density
 _atom_site_pbe_cm5_charge
 _atom_site_pbe_ddec_charge
 _atom_site_pbe_ddec_spin_density
 _atom_site_pbe_ddec_sum_bond_order
 _atom_site_pbe_magmom
Bi  Bi0  1  0.00793800  0.16447137  0.77505961  1  0  0.498903  0.748061  0  2.714539  0
Bi  Bi1  1  0.50794350  0.33552765  0.22494040  1  0  0.498886  0.747988  0  2.714496  0
Bi  Bi2  1  0.99205603  0.66447237  0.72493904  1  0  0.49891  0.748052  0  2.714422  0
Bi  Bi3  1  0.49206122  0.83552733  0.27506012  1  0  0.498865  0.747993  0  2.714516  0
H  H4  1  0.50014730  0.39548700  0.62649924  1  0  0.098058  0.100513  0  1.027125  0
H  H5  1  0.00015236  0.10451196  0.37350153  1  0  0.098033  0.100509  0  1.027054  0
H  H6  1  0.49984728  0.89548994  0.87350010  1  0  0.098036  0.100478  0  1.027103  0
H  H7  1  0.99985412  0.60451418  0.12649831  1  0  0.098061  0.100493  0  1.027055  0
H  H8  1  0.32263027  0.32411026  0.76705410  1  0  0.084593  0.070729  0  1.076177  0
H  H9  1  0.82263462  0.17589094  0.23294652  1  0  0.084592  0.070726  0  1.076145  0
H  H10  1  0.67736263  0.82411017  0.73294605  1  0  0.084586  0.070735  0  1.076144  0
H  H11  1  0.17737008  0.67589716  0.26705251  1  0  0.084616  0.070759  0  1.076179  0
H  H12  1  0.41572981  0.17477782  0.91686594  1  0  0.093267  0.088751  0  1.033005  0
H  H13  1  0.91573924  0.32521422  0.08313173  1  0  0.093221  0.088752  0  1.033015  0
H  H14  1  0.58426084  0.67477827  0.58313506  1  0  0.093262  0.088789  0  1.033022  0
H  H15  1  0.08427233  0.82522296  0.41686645  1  0  0.093274  0.088784  0  1.033001  0
H  H16  1  0.69091211  0.10138134  0.92610342  1  0  0.087511  0.087029  0  1.05098  0
H  H17  1  0.19092384  0.39861132  0.07389382  1  0  0.087491  0.08695  0  1.050976  0
H  H18  1  0.30907569  0.60138098  0.57389761  1  0  0.08753  0.087051  0  1.050963  0
H  H19  1  0.80908711  0.89861636  0.42610589  1  0  0.087505  0.087025  0  1.050937  0
H  H20  1  0.20656767  0.33156986  0.57909949  1  0  0.095332  0.101519  0  1.013032  0
H  H21  1  0.70657276  0.16842509  0.42090324  1  0  0.095319  0.101494  0  1.013031  0
H  H22  1  0.79342644  0.83157589  0.92090300  1  0  0.095324  0.101509  0  1.012996  0
H  H23  1  0.29343304  0.66842679  0.07909501  1  0  0.095343  0.101519  0  1.013053  0
H  H24  1  0.13378882  0.48561087  0.42786116  1  0  0.091324  0.095963  0  1.036277  0
H  H25  1  0.63378764  0.01438684  0.57214065  1  0  0.091309  0.095922  0  1.036356  0
H  H26  1  0.86621355  0.98561329  0.07214164  1  0  0.091288  0.095855  0  1.036405  0
H  H27  1  0.36621452  0.51438881  0.92785729  1  0  0.091319  0.095912  0  1.036365  0
H  H28  1  0.85612669  0.53886268  0.39327442  1  0  0.093604  0.096807  0  1.0458  0
H  H29  1  0.35612613  0.96113717  0.60672605  1  0  0.09359  0.096785  0  1.045802  0
H  H30  1  0.14387816  0.03885837  0.10672779  1  0  0.093573  0.096772  0  1.045805  0
H  H31  1  0.64387586  0.46113832  0.89327248  1  0  0.093624  0.096847  0  1.045845  0
H  H32  1  0.65526623  0.45056753  0.51236526  1  0  0.088919  0.092341  0  1.060707  0
H  H33  1  0.15526675  0.04943143  0.48763269  1  0  0.088892  0.092286  0  1.060716  0
H  H34  1  0.34473107  0.95056713  0.98763172  1  0  0.088906  0.092313  0  1.060712  0
H  H35  1  0.84473240  0.54943373  0.01236639  1  0  0.088905  0.092325  0  1.060758  0
C  C36  1  0.75196077  0.20763282  0.78096067  1  0  -0.109133  -0.228883  0  3.867737  0
C  C37  1  0.25197003  0.29236244  0.21903747  1  0  -0.109139  -0.228852  0  3.867639  0
C  C38  1  0.24803012  0.70763738  0.71903875  1  0  -0.109138  -0.228897  0  3.867602  0
C  C39  1  0.74803784  0.79236172  0.28096385  1  0  -0.109119  -0.228851  0  3.867747  0
C  C40  1  0.70026535  0.29205110  0.69541366  1  0  -0.018084  0.06333  0  4.028283  0
C  C41  1  0.20027319  0.20794925  0.30458516  1  0  -0.018015  0.063424  0  4.028265  0
C  C42  1  0.29972732  0.79205705  0.80458650  1  0  -0.018024  0.063468  0  4.028174  0
C  C43  1  0.79973290  0.70795112  0.19541542  1  0  -0.018081  0.063334  0  4.02836  0
C  C44  1  0.54363923  0.33033639  0.69111134  1  0  -0.08738  -0.103029  0  3.930653  0
C  C45  1  0.04364565  0.16966288  0.30888640  1  0  -0.087366  -0.103043  0  3.930736  0
C  C46  1  0.45635487  0.83034233  0.80888725  1  0  -0.087379  -0.103073  0  3.930682  0
C  C47  1  0.95635900  0.66966475  0.19111419  1  0  -0.087385  -0.103011  0  3.930742  0
C  C48  1  0.44240866  0.28793229  0.77000010  1  0  -0.0953  -0.07887  0  4.011856  0
C  C49  1  0.94241557  0.21207193  0.23000074  1  0  -0.095322  -0.078888  0  4.011734  0
C  C50  1  0.55758397  0.78793027  0.73000084  1  0  -0.095314  -0.078847  0  4.011595  0
C  C51  1  0.05759055  0.71207078  0.26999827  1  0  -0.095309  -0.078895  0  4.011806  0
C  C52  1  0.49463267  0.20523243  0.85421893  1  0  -0.094077  -0.079638  0  3.993457  0
C  C53  1  0.99464099  0.29476452  0.14577889  1  0  -0.093993  -0.079693  0  3.993295  0
C  C54  1  0.50535935  0.70523338  0.64578049  1  0  -0.094036  -0.07973  0  3.99341  0
C  C55  1  0.00536804  0.79477057  0.35422087  1  0  -0.094049  -0.079637  0  3.993303  0
C  C56  1  0.65031240  0.16437550  0.85928289  1  0  -0.100838  -0.08175  0  4.061937  0
C  C57  1  0.15032396  0.33562124  0.14071662  1  0  -0.100831  -0.081598  0  4.061701  0
C  C58  1  0.34967817  0.66437537  0.64071811  1  0  -0.100874  -0.081742  0  4.061845  0
C  C59  1  0.84968769  0.83562552  0.35928313  1  0  -0.100885  -0.081802  0  4.061829  0
C  C60  1  0.81439675  0.34045283  0.61700717  1  0  -0.023098  0.050042  0  4.058127  0
C  C61  1  0.31440341  0.15954940  0.38299342  1  0  -0.023108  0.049976  0  4.058049  0
C  C62  1  0.18559512  0.84045249  0.88299219  1  0  -0.023111  0.050015  0  4.058079  0
C  C63  1  0.68560233  0.65954618  0.11700795  1  0  -0.023051  0.05012  0  4.057998  0
C  C64  1  0.97135413  0.30436760  0.63261857  1  0  -0.117909  -0.251963  0  3.912885  0
C  C65  1  0.47135869  0.19563028  0.36738389  1  0  -0.117897  -0.251887  0  3.912734  0
C  C66  1  0.02864093  0.80437054  0.86738159  1  0  -0.117883  -0.251903  0  3.912718  0
C  C67  1  0.52864500  0.69562813  0.13261825  1  0  -0.117886  -0.251955  0  3.912821  0
C  C68  1  0.08534195  0.35788081  0.56589010  1  0  -0.10412  -0.09152  0  4.076879  0
C  C69  1  0.58534690  0.14211657  0.43411084  1  0  -0.104124  -0.091543  0  4.076956  0
C  C70  1  0.91465120  0.85788658  0.93411238  1  0  -0.104101  -0.091511  0  4.07683  0
C  C71  1  0.41465639  0.64211586  0.06588820  1  0  -0.10415  -0.091553  0  4.076816  0
C  C72  1  0.04473190  0.44465719  0.48027911  1  0  -0.096618  -0.080754  0  3.988027  0
C  C73  1  0.54473427  0.05534100  0.51972097  1  0  -0.096582  -0.080679  0  3.988028  0
C  C74  1  0.95526900  0.94466026  0.01972137  1  0  -0.096577  -0.080633  0  3.98818  0
C  C75  1  0.45526935  0.55534028  0.98027695  1  0  -0.096589  -0.080665  0  3.988014  0
C  C76  1  0.88920842  0.47504688  0.46128032  1  0  -0.096618  -0.083818  0  4.011183  0
C  C77  1  0.38920783  0.02495370  0.53872042  1  0  -0.096595  -0.083772  0  4.011129  0
C  C78  1  0.11079040  0.97504517  0.03872093  1  0  -0.096582  -0.083762  0  4.01118  0
C  C79  1  0.61079441  0.52495298  0.96127907  1  0  -0.096631  -0.083851  0  4.011234  0
C  C80  1  0.77540823  0.42444073  0.52913000  1  0  -0.096403  -0.137047  0  3.992456  0
C  C81  1  0.27541234  0.07555905  0.47087052  1  0  -0.096426  -0.137078  0  3.992491  0
C  C82  1  0.22459002  0.92444278  0.97087011  1  0  -0.096434  -0.13713  0  3.992358  0
C  C83  1  0.72459278  0.57555725  0.02913011  1  0  -0.096435  -0.137107  0  3.992412  0
Cl  Cl84  1  0.05258882  0.43493715  0.86890184  1  0  -0.191951  -0.377813  0  1.21654  0
Cl  Cl85  1  0.55258961  0.06506108  0.13109747  1  0  -0.191938  -0.377777  0  1.216576  0
Cl  Cl86  1  0.94740836  0.93493900  0.63109670  1  0  -0.191945  -0.377803  0  1.216589  0
Cl  Cl87  1  0.44741427  0.56506039  0.36890394  1  0  -0.191937  -0.377794  0  1.216584  0
