# generated using pymatgen
data_HgH13C8SCl2
_symmetry_space_group_name_H-M   'P 1'
_cell_length_a   9.48835105
_cell_length_b   10.62619103
_cell_length_c   11.98228992
_cell_angle_alpha   90.00003534
_cell_angle_beta   110.72046822
_cell_angle_gamma   89.99997589
_symmetry_Int_Tables_number   1
_chemical_formula_structural   HgH13C8SCl2
_chemical_formula_sum   'Hg4 H52 C32 S4 Cl8'
_cell_volume   1129.97110574
_cell_formula_units_Z   4
loop_
 _symmetry_equiv_pos_site_id
 _symmetry_equiv_pos_as_xyz
  1  'x, y, z'
loop_
 _atom_site_type_symbol
 _atom_site_label
 _atom_site_symmetry_multiplicity
 _atom_site_fract_x
 _atom_site_fract_y
 _atom_site_fract_z
 _atom_site_occupancy
 _atom_site_hle17_bader_spin_density
 _atom_site_hle17_ddec_charge
 _atom_site_hle17_ddec_spin_density
 _atom_site_hle17_ddec_sum_bond_order
 _atom_site_hle17_magmom
 _atom_site_hse06_10hf_bader_spin_density
 _atom_site_hse06_10hf_ddec_charge
 _atom_site_hse06_10hf_ddec_spin_density
 _atom_site_hse06_10hf_ddec_sum_bond_order
 _atom_site_hse06_10hf_magmom
 _atom_site_hse06_bader_spin_density
 _atom_site_hse06_ddec_charge
 _atom_site_hse06_ddec_spin_density
 _atom_site_hse06_ddec_sum_bond_order
 _atom_site_hse06_magmom
 _atom_site_pbe_bader_spin_density
 _atom_site_pbe_cm5_charge
 _atom_site_pbe_ddec_charge
 _atom_site_pbe_ddec_spin_density
 _atom_site_pbe_ddec_sum_bond_order
 _atom_site_pbe_magmom
Hg  Hg0  1  0.48864300  0.49099245  0.15886401  1  0  0.632457  0  2.115968  0  0  0.500573  0  2.607832  0  0  0.542338  0  2.577413  0  0  0.456606  0.471948  0  2.627715  0
Hg  Hg1  1  0.01135915  0.99099397  0.34113700  1  0  0.632494  0  2.115895  0  0  0.500613  0  2.607751  0  0  0.542375  0  2.577337  0  0  0.456626  0.47199  0  2.62763  0
Hg  Hg2  1  0.51135705  0.50900667  0.84113628  1  0  0.632465  0  2.115961  0  0  0.500584  0  2.607812  0  0  0.542354  0  2.577385  0  0  0.456613  0.471958  0  2.6277  0
Hg  Hg3  1  0.98864315  0.00900609  0.65886393  1  0  0.632478  0  2.115973  0  0  0.500593  0  2.607834  0  0  0.542365  0  2.577403  0  0  0.456625  0.47197  0  2.62772  0
H  H4  1  0.68249056  0.24795614  0.18365795  1  0  0.107511  0  0.976091  0  0  0.115773  0  1.048282  0  0  0.11726  0  1.047808  0  0  0.085937  0.115237  0  1.047424  0
H  H5  1  0.81750962  0.74795658  0.31634192  1  0  0.107503  0  0.976106  0  0  0.115767  0  1.048292  0  0  0.117254  0  1.047818  0  0  0.085937  0.115231  0  1.047433  0
H  H6  1  0.31750836  0.75204392  0.81634036  1  0  0.107505  0  0.976132  0  0  0.115766  0  1.04832  0  0  0.117252  0  1.047847  0  0  0.085933  0.11523  0  1.047461  0
H  H7  1  0.18248930  0.25204348  0.68365806  1  0  0.107518  0  0.976085  0  0  0.115777  0  1.048274  0  0  0.117266  0  1.047801  0  0  0.085944  0.115243  0  1.047416  0
H  H8  1  0.65139295  0.13277192  0.28094124  1  0  0.107043  0  0.981657  0  0  0.121285  0  1.047791  0  0  0.122606  0  1.047336  0  0  0.093152  0.120039  0  1.048147  0
H  H9  1  0.84860726  0.63277322  0.21905858  1  0  0.107032  0  0.981684  0  0  0.121304  0  1.047785  0  0  0.122624  0  1.047332  0  0  0.093174  0.120056  0  1.048142  0
H  H10  1  0.34860597  0.86722721  0.71905707  1  0  0.107046  0  0.981615  0  0  0.121311  0  1.047728  0  0  0.122631  0  1.047274  0  0  0.093168  0.120063  0  1.048083  0
H  H11  1  0.15139391  0.36722778  0.78094119  1  0  0.107062  0  0.981603  0  0  0.121304  0  1.047737  0  0  0.122625  0  1.047284  0  0  0.093166  0.120058  0  1.048095  0
H  H12  1  0.52913428  0.93353391  0.20569488  1  0  0.09448  0  0.967738  0  0  0.101956  0  1.034981  0  0  0.104905  0  1.033859  0  0  0.089104  0.099186  0  1.037205  0
H  H13  1  0.97086247  0.43353250  0.29430331  1  0  0.094518  0  0.967664  0  0  0.101985  0  1.03492  0  0  0.104937  0  1.033798  0  0  0.089093  0.099216  0  1.037147  0
H  H14  1  0.47086351  0.06646803  0.79430395  1  0  0.094518  0  0.967668  0  0  0.101981  0  1.034932  0  0  0.104933  0  1.03381  0  0  0.089104  0.099214  0  1.037154  0
H  H15  1  0.02913532  0.56646662  0.70569469  1  0  0.094471  0  0.967735  0  0  0.101943  0  1.034983  0  0  0.104893  0  1.033862  0  0  0.089096  0.099175  0  1.037208  0
H  H16  1  0.56049444  0.21896674  0.95957202  1  0  0.084306  0  0.983684  0  0  0.088367  0  1.060242  0  0  0.090909  0  1.05951  0  0  0.084011  0.086563  0  1.060756  0
H  H17  1  0.93950457  0.71896506  0.54042714  1  0  0.084294  0  0.983709  0  0  0.088361  0  1.060255  0  0  0.090901  0  1.059525  0  0  0.084015  0.086558  0  1.060761  0
H  H18  1  0.43950560  0.78103520  0.04042744  1  0  0.084352  0  0.983685  0  0  0.088419  0  1.060225  0  0  0.09096  0  1.059495  0  0  0.084033  0.086617  0  1.060727  0
H  H19  1  0.06049322  0.28103406  0.45957086  1  0  0.084286  0  0.98371  0  0  0.088366  0  1.060247  0  0  0.090907  0  1.059515  0  0  0.084003  0.086562  0  1.060759  0
H  H20  1  0.44482692  0.14837875  0.49674250  1  0  0.122791  0  0.944037  0  0  0.145795  0  0.998876  0  0  0.146651  0  1.000013  0  0  0.087302  0.144757  0  0.998924  0
H  H21  1  0.05517419  0.64837813  0.00325803  1  0  0.12275  0  0.94403  0  0  0.145736  0  0.998898  0  0  0.146593  0  1.000033  0  0  0.087288  0.144697  0  0.998946  0
H  H22  1  0.55517426  0.85162131  0.50325811  1  0  0.122763  0  0.944022  0  0  0.145755  0  0.998881  0  0  0.146611  0  1.000019  0  0  0.087296  0.144716  0  0.998929  0
H  H23  1  0.94482698  0.35162099  0.99674258  1  0  0.122797  0  0.94401  0  0  0.145789  0  0.998866  0  0  0.146647  0  1.000001  0  0  0.087305  0.144753  0  0.998914  0
H  H24  1  0.33105291  0.10813006  0.34831886  1  0  0.101497  0  0.968317  0  0  0.116719  0  1.04045  0  0  0.118059  0  1.040224  0  0  0.076862  0.116231  0  1.039575  0
H  H25  1  0.16894933  0.60813138  0.15168280  1  0  0.101487  0  0.968296  0  0  0.116701  0  1.040435  0  0  0.118039  0  1.040212  0  0  0.07687  0.116211  0  1.039562  0
H  H26  1  0.66894939  0.89186907  0.65168290  1  0  0.101467  0  0.968337  0  0  0.116696  0  1.040458  0  0  0.118035  0  1.040234  0  0  0.076861  0.116207  0  1.039584  0
H  H27  1  0.83105184  0.39186868  0.84831948  1  0  0.101491  0  0.968314  0  0  0.116714  0  1.040444  0  0  0.118052  0  1.040221  0  0  0.076861  0.116225  0  1.039572  0
H  H28  1  0.52979055  0.07865193  0.40143174  1  0  0.109391  0  0.976458  0  0  0.1283  0  1.039702  0  0  0.129861  0  1.039696  0  0  0.077946  0.127094  0  1.039957  0
H  H29  1  0.97021193  0.57865122  0.09856952  1  0  0.109424  0  0.976373  0  0  0.128319  0  1.039644  0  0  0.129881  0  1.039638  0  0  0.077972  0.127112  0  1.0399  0
H  H30  1  0.47021062  0.92134813  0.59856887  1  0  0.10943  0  0.976389  0  0  0.12831  0  1.039674  0  0  0.129872  0  1.039667  0  0  0.077961  0.127104  0  1.039929  0
H  H31  1  0.02978925  0.42134790  0.90143193  1  0  0.109399  0  0.976435  0  0  0.128312  0  1.039675  0  0  0.129873  0  1.039669  0  0  0.077961  0.127106  0  1.039932  0
H  H32  1  0.63266378  0.33010894  0.53367302  1  0  0.114233  0  0.967005  0  0  0.130045  0  1.036722  0  0  0.131748  0  1.03692  0  0  0.08355  0.129192  0  1.035819  0
H  H33  1  0.86733858  0.83010759  0.96632714  1  0  0.114253  0  0.967008  0  0  0.13007  0  1.036712  0  0  0.131775  0  1.036907  0  0  0.08356  0.129217  0  1.035806  0
H  H34  1  0.36733851  0.66989206  0.46632707  1  0  0.114224  0  0.967017  0  0  0.13004  0  1.036729  0  0  0.131745  0  1.036923  0  0  0.083553  0.129187  0  1.035822  0
H  H35  1  0.13266372  0.16989153  0.03367295  1  0  0.11423  0  0.967007  0  0  0.130047  0  1.036718  0  0  0.131748  0  1.036918  0  0  0.083553  0.129193  0  1.035814  0
H  H36  1  0.71394431  0.26539144  0.43416579  1  0  0.106071  0  0.968715  0  0  0.123443  0  1.036137  0  0  0.124411  0  1.037315  0  0  0.080612  0.122349  0  1.036273  0
H  H37  1  0.78605586  0.76539078  0.06583325  1  0  0.106105  0  0.968703  0  0  0.123469  0  1.036137  0  0  0.124441  0  1.037307  0  0  0.08063  0.122374  0  1.036274  0
H  H38  1  0.28605573  0.73460862  0.56583367  1  0  0.106088  0  0.968719  0  0  0.123457  0  1.036146  0  0  0.124427  0  1.03732  0  0  0.080616  0.122363  0  1.036281  0
H  H39  1  0.21394418  0.23460928  0.93416537  1  0  0.10606  0  0.968722  0  0  0.123433  0  1.036145  0  0  0.124404  0  1.037319  0  0  0.080608  0.122338  0  1.036283  0
H  H40  1  0.64238592  0.42239220  0.41295446  1  0  0.103604  0  0.969847  0  0  0.122557  0  1.036658  0  0  0.123387  0  1.037774  0  0  0.0789  0.12183  0  1.0364  0
H  H41  1  0.85761422  0.92239153  0.08704466  1  0  0.103613  0  0.969854  0  0  0.122568  0  1.036656  0  0  0.123398  0  1.037772  0  0  0.078896  0.121839  0  1.036401  0
H  H42  1  0.35761413  0.57760880  0.58704417  1  0  0.103608  0  0.969871  0  0  0.122562  0  1.036677  0  0  0.123395  0  1.03779  0  0  0.078893  0.121832  0  1.036426  0
H  H43  1  0.14238696  0.07760759  0.91295511  1  0  0.103601  0  0.969863  0  0  0.122554  0  1.03667  0  0  0.123387  0  1.037783  0  0  0.078896  0.121826  0  1.036413  0
H  H44  1  0.23138141  0.33327847  0.31633750  1  0  0.112461  0  0.974219  0  0  0.127744  0  1.042088  0  0  0.129589  0  1.041892  0  0  0.078135  0.126752  0  1.041774  0
H  H45  1  0.26861966  0.83327884  0.18366562  1  0  0.112458  0  0.974209  0  0  0.12775  0  1.042066  0  0  0.129596  0  1.041869  0  0  0.078128  0.126756  0  1.041749  0
H  H46  1  0.76861864  0.66672159  0.68366363  1  0  0.112435  0  0.97419  0  0  0.127705  0  1.042078  0  0  0.129551  0  1.041882  0  0  0.078118  0.126713  0  1.041764  0
H  H47  1  0.73138152  0.16672122  0.81633666  1  0  0.11247  0  0.974196  0  0  0.127761  0  1.042058  0  0  0.129607  0  1.041861  0  0  0.078142  0.126768  0  1.041741  0
H  H48  1  0.36091123  0.46299662  0.34719260  1  0  0.097341  0  0.984415  0  0  0.114016  0  1.054625  0  0  0.115396  0  1.054494  0  0  0.073671  0.113049  0  1.054694  0
H  H49  1  0.13908980  0.96299702  0.15280892  1  0  0.097341  0  0.984411  0  0  0.114006  0  1.054637  0  0  0.115388  0  1.054504  0  0  0.073667  0.113038  0  1.054706  0
H  H50  1  0.63908881  0.53700344  0.65280769  1  0  0.097327  0  0.9844  0  0  0.113995  0  1.054622  0  0  0.115378  0  1.05449  0  0  0.073664  0.113028  0  1.054693  0
H  H51  1  0.86091138  0.03700304  0.84719253  1  0  0.097329  0  0.984425  0  0  0.114004  0  1.054636  0  0  0.115385  0  1.054505  0  0  0.073667  0.113036  0  1.054704  0
H  H52  1  0.34778412  0.36869853  0.46538644  1  0  0.1266  0  0.950568  0  0  0.148043  0  1.008314  0  0  0.149278  0  1.009304  0  0  0.089434  0.14703  0  1.007957  0
H  H53  1  0.15221694  0.86869790  0.03461503  1  0  0.12661  0  0.950551  0  0  0.148051  0  1.008291  0  0  0.149286  0  1.00928  0  0  0.089438  0.147037  0  1.007934  0
H  H54  1  0.65221706  0.63130153  0.53461417  1  0  0.126583  0  0.950521  0  0  0.148025  0  1.008268  0  0  0.14926  0  1.009257  0  0  0.089421  0.147012  0  1.007914  0
H  H55  1  0.84778536  0.13130122  0.96538673  1  0  0.126608  0  0.950553  0  0  0.148049  0  1.008298  0  0  0.149285  0  1.009287  0  0  0.08943  0.147036  0  1.00794  0
C  C56  1  0.60111664  0.18059900  0.19478527  1  0  -0.196301  0  3.628062  0  0  -0.238951  0  3.868814  0  0  -0.237267  0  3.879511  0  0  -0.149615  -0.239567  0  3.859825  0
C  C57  1  0.89888243  0.68059941  0.30521509  1  0  -0.196294  0  3.628121  0  0  -0.238977  0  3.8689  0  0  -0.237292  0  3.879596  0  0  -0.149653  -0.239593  0  3.859909  0
C  C58  1  0.39888228  0.81940106  0.80521387  1  0  -0.196332  0  3.628035  0  0  -0.238994  0  3.868835  0  0  -0.237307  0  3.879531  0  0  -0.149651  -0.239607  0  3.85984  0
C  C59  1  0.10111649  0.31940065  0.69478489  1  0  -0.196375  0  3.627992  0  0  -0.239013  0  3.868761  0  0  -0.237335  0  3.879469  0  0  -0.149653  -0.239631  0  3.85978  0
C  C60  1  0.54998612  0.08744330  0.09429056  1  0  0.093647  0  3.7695  0  0  0.115437  0  4.003399  0  0  0.114341  0  4.029233  0  0  -0.020599  0.116114  0  3.986041  0
C  C61  1  0.95001185  0.58744188  0.40570777  1  0  0.093613  0  3.76955  0  0  0.115401  0  4.00346  0  0  0.114306  0  4.029294  0  0  -0.020605  0.116081  0  3.986103  0
C  C62  1  0.45001168  0.91255864  0.90570827  1  0  0.093684  0  3.769535  0  0  0.115416  0  4.003519  0  0  0.11432  0  4.029353  0  0  -0.020598  0.116093  0  3.986161  0
C  C63  1  0.04998594  0.41255630  0.59428939  1  0  0.093732  0  3.769387  0  0  0.115488  0  4.003327  0  0  0.114394  0  4.029163  0  0  -0.020581  0.116167  0  3.985974  0
C  C64  1  0.51587868  0.96341101  0.11543182  1  0  -0.110935  0  3.729044  0  0  -0.127863  0  3.97066  0  0  -0.131189  0  3.993743  0  0  -0.09457  -0.126115  0  3.95649  0
C  C65  1  0.98411806  0.46340871  0.38456721  1  0  -0.11096  0  3.72906  0  0  -0.127886  0  3.970678  0  0  -0.131217  0  3.993765  0  0  -0.094549  -0.126138  0  3.956511  0
C  C66  1  0.48411798  0.03659094  0.88456670  1  0  -0.110996  0  3.729084  0  0  -0.127904  0  3.970712  0  0  -0.131239  0  3.993805  0  0  -0.094567  -0.126156  0  3.956547  0
C  C67  1  0.01587973  0.53658947  0.61543245  1  0  -0.110948  0  3.728995  0  0  -0.127872  0  3.970629  0  0  -0.131197  0  3.993709  0  0  -0.094564  -0.126124  0  3.956464  0
C  C68  1  0.53353483  0.12311773  0.97773155  1  0  -0.106101  0  3.736376  0  0  -0.122584  0  3.978795  0  0  -0.125571  0  4.001946  0  0  -0.093858  -0.12051  0  3.963929  0
C  C69  1  0.96646195  0.62311792  0.52226777  1  0  -0.106056  0  3.736327  0  0  -0.122546  0  3.978761  0  0  -0.125533  0  4.001909  0  0  -0.09383  -0.12047  0  3.963892  0
C  C70  1  0.46646183  0.87688233  0.02226613  1  0  -0.106152  0  3.736342  0  0  -0.12263  0  3.9788  0  0  -0.125617  0  4.001948  0  0  -0.093855  -0.120553  0  3.963931  0
C  C71  1  0.03353471  0.37688215  0.47773158  1  0  -0.106122  0  3.736375  0  0  -0.122614  0  3.978812  0  0  -0.125601  0  4.001961  0  0  -0.093857  -0.120538  0  3.963943  0
C  C72  1  0.46748813  0.27751152  0.36646299  1  0  0.245842  0  3.542415  0  0  0.279684  0  3.782445  0  0  0.283729  0  3.801331  0  0  0.003734  0.276954  0  3.76924  0
C  C73  1  0.03251295  0.77751100  0.13353844  1  0  0.245953  0  3.542365  0  0  0.279791  0  3.782378  0  0  0.283835  0  3.801267  0  0  0.003797  0.277061  0  3.769167  0
C  C74  1  0.53251192  0.72248854  0.63353647  1  0  0.245795  0  3.542532  0  0  0.279684  0  3.782468  0  0  0.28373  0  3.801356  0  0  0.003745  0.276952  0  3.769265  0
C  C75  1  0.96748822  0.22248906  0.86646301  1  0  0.245847  0  3.542454  0  0  0.279713  0  3.782437  0  0  0.283757  0  3.801325  0  0  0.003766  0.276981  0  3.769236  0
C  C76  1  0.44187506  0.14436976  0.40426476  1  0  -0.356666  0  3.646852  0  0  -0.430125  0  3.873169  0  0  -0.433948  0  3.884332  0  0  -0.251168  -0.426716  0  3.864981  0
C  C77  1  0.05812605  0.64437014  0.09573661  1  0  -0.356637  0  3.64683  0  0  -0.430059  0  3.873158  0  0  -0.433883  0  3.884321  0  0  -0.251187  -0.42665  0  3.864971  0
C  C78  1  0.55812499  0.85563031  0.59573554  1  0  -0.356617  0  3.646846  0  0  -0.430053  0  3.873147  0  0  -0.433879  0  3.884314  0  0  -0.251168  -0.426644  0  3.86496  0
C  C79  1  0.94187399  0.35562992  0.90426452  1  0  -0.356644  0  3.646856  0  0  -0.430103  0  3.873178  0  0  -0.433927  0  3.884341  0  0  -0.251167  -0.426696  0  3.864995  0
C  C80  1  0.62365556  0.32675211  0.43967884  1  0  -0.365374  0  3.674405  0  0  -0.443318  0  3.904853  0  0  -0.447726  0  3.917138  0  0  -0.254271  -0.440335  0  3.897601  0
C  C81  1  0.87634573  0.82675142  0.06032139  1  0  -0.365493  0  3.674463  0  0  -0.443448  0  3.904919  0  0  -0.447857  0  3.917204  0  0  -0.254331  -0.440466  0  3.897662  0
C  C82  1  0.37634448  0.67324889  0.56032062  1  0  -0.365381  0  3.674513  0  0  -0.443345  0  3.904951  0  0  -0.44776  0  3.917232  0  0  -0.25428  -0.440363  0  3.897696  0
C  C83  1  0.12365545  0.17324865  0.93967839  1  0  -0.365388  0  3.674463  0  0  -0.443347  0  3.90492  0  0  -0.44776  0  3.917197  0  0  -0.254303  -0.440363  0  3.897666  0
C  C84  1  0.34369759  0.36643899  0.37261079  1  0  -0.367661  0  3.652401  0  0  -0.439412  0  3.877411  0  0  -0.44387  0  3.888436  0  0  -0.255074  -0.436112  0  3.870002  0
C  C85  1  0.15630234  0.86643936  0.12739036  1  0  -0.367707  0  3.652324  0  0  -0.439455  0  3.877323  0  0  -0.443915  0  3.888345  0  0  -0.255091  -0.436153  0  3.86991  0
C  C86  1  0.65629795  0.63356202  0.62738991  1  0  -0.367596  0  3.652357  0  0  -0.439335  0  3.87735  0  0  -0.443795  0  3.888371  0  0  -0.255032  -0.436038  0  3.869943  0
C  C87  1  0.84369771  0.13355976  0.87261077  1  0  -0.367673  0  3.652352  0  0  -0.439425  0  3.877345  0  0  -0.443887  0  3.888369  0  0  -0.255079  -0.436123  0  3.869934  0
S  S88  1  0.43783365  0.26825509  0.20384365  1  0  0.060891  0  2.49128  0  0  0.107935  0  2.860653  0  0  0.09638  0  2.861978  0  0  0.067937  0.115736  0  2.857629  0
S  S89  1  0.06216517  0.76825468  0.29615631  1  0  0.060848  0  2.49129  0  0  0.107889  0  2.860674  0  0  0.096333  0  2.861999  0  0  0.06791  0.115691  0  2.857644  0
S  S90  1  0.56216527  0.73174497  0.79615633  1  0  0.060915  0  2.491266  0  0  0.107946  0  2.860623  0  0  0.09639  0  2.861947  0  0  0.06793  0.11575  0  2.857595  0
S  S91  1  0.93783375  0.23174444  0.70384367  1  0  0.060885  0  2.491275  0  0  0.107917  0  2.860641  0  0  0.096363  0  2.861968  0  0  0.067918  0.115719  0  2.857618  0
Cl  Cl92  1  0.70013746  0.46367591  0.06423525  1  0  -0.4657  0  1.071963  0  0  -0.400924  0  1.366956  0  0  -0.420234  0  1.348184  0  0  -0.243278  -0.387303  0  1.38009  0
Cl  Cl93  1  0.79986266  0.96367833  0.43576473  1  0  -0.465687  0  1.071956  0  0  -0.400907  0  1.366941  0  0  -0.420216  0  1.348167  0  0  -0.243272  -0.387287  0  1.380073  0
Cl  Cl94  1  0.29986258  0.53632321  0.93576505  1  0  -0.465691  0  1.071966  0  0  -0.400911  0  1.366953  0  0  -0.420221  0  1.34818  0  0  -0.243275  -0.387293  0  1.38009  0
Cl  Cl95  1  0.20013851  0.03632362  0.56423672  1  0  -0.465691  0  1.071949  0  0  -0.400903  0  1.366926  0  0  -0.420212  0  1.348153  0  0  -0.243276  -0.38729  0  1.380072  0
Cl  Cl96  1  0.51332185  0.67605786  0.28273858  1  0  -0.451434  0  0.973756  0  0  -0.384492  0  1.236518  0  0  -0.401039  0  1.220819  0  0  -0.244473  -0.373395  0  1.245843  0
Cl  Cl97  1  0.98668173  0.17605733  0.21726137  1  0  -0.451439  0  0.973761  0  0  -0.384492  0  1.23652  0  0  -0.401038  0  1.220819  0  0  -0.24447  -0.373401  0  1.24585  0
Cl  Cl98  1  0.48668270  0.32394314  0.71726130  1  0  -0.451446  0  0.973777  0  0  -0.384492  0  1.236527  0  0  -0.401041  0  1.220831  0  0  -0.244473  -0.373396  0  1.245857  0
Cl  Cl99  1  0.01332170  0.82394179  0.78273904  1  0  -0.451435  0  0.973776  0  0  -0.384485  0  1.23653  0  0  -0.401033  0  1.220831  0  0  -0.244472  -0.373391  0  1.245859  0
