# generated using pymatgen
data_SnH21C21NO3
_symmetry_space_group_name_H-M   'P 1'
_cell_length_a   7.36329421
_cell_length_b   11.69555687
_cell_length_c   11.49950770
_cell_angle_alpha   104.26641572
_cell_angle_beta   97.81010085
_cell_angle_gamma   105.77232822
_symmetry_Int_Tables_number   1
_chemical_formula_structural   SnH21C21NO3
_chemical_formula_sum   'Sn2 H42 C42 N2 O6'
_cell_volume   901.52017673
_cell_formula_units_Z   2
loop_
 _symmetry_equiv_pos_site_id
 _symmetry_equiv_pos_as_xyz
  1  'x, y, z'
loop_
 _atom_site_type_symbol
 _atom_site_label
 _atom_site_symmetry_multiplicity
 _atom_site_fract_x
 _atom_site_fract_y
 _atom_site_fract_z
 _atom_site_occupancy
 _atom_site_hle17_bader_spin_density
 _atom_site_hle17_ddec_charge
 _atom_site_hle17_ddec_spin_density
 _atom_site_hle17_ddec_sum_bond_order
 _atom_site_hle17_magmom
 _atom_site_hse06_10hf_bader_spin_density
 _atom_site_hse06_10hf_ddec_charge
 _atom_site_hse06_10hf_ddec_spin_density
 _atom_site_hse06_10hf_ddec_sum_bond_order
 _atom_site_hse06_10hf_magmom
 _atom_site_hse06_bader_spin_density
 _atom_site_hse06_ddec_charge
 _atom_site_hse06_ddec_spin_density
 _atom_site_hse06_ddec_sum_bond_order
 _atom_site_hse06_magmom
 _atom_site_pbe_bader_spin_density
 _atom_site_pbe_cm5_charge
 _atom_site_pbe_ddec_charge
 _atom_site_pbe_ddec_spin_density
 _atom_site_pbe_ddec_sum_bond_order
 _atom_site_pbe_magmom
Sn  Sn0  1  0.16111371  0.80024137  0.28930178  1  0  1.359329  0  2.897997  0  0  1.228357  0  3.386118  0  0  1.267158  0  3.370252  0  0  0.509738  1.201708  0  3.396513  0
Sn  Sn1  1  0.83888847  0.19975793  0.71070254  1  0  1.359342  0  2.897974  0  0  1.228361  0  3.386109  0  0  1.267164  0  3.370241  0  0  0.50973  1.201708  0  3.396498  0
H  H2  1  0.08802398  0.48159734  0.30749846  1  0  0.302951  0  0.915792  0  0  0.28272  0  0.976557  0  0  0.292623  0  0.968958  0  0  0.314404  0.275831  0  0.981873  0
H  H3  1  0.91197428  0.51840475  0.69250007  1  0  0.302956  0  0.915822  0  0  0.28274  0  0.976585  0  0  0.29262  0  0.968992  0  0  0.314418  0.27585  0  0.981895  0
H  H4  1  0.42224319  0.84472307  0.54456941  1  0  0.104623  0  0.980703  0  0  0.120408  0  1.034904  0  0  0.123036  0  1.035544  0  0  0.105426  0.118553  0  1.034631  0
H  H5  1  0.57776663  0.15528092  0.45543860  1  0  0.104602  0  0.980629  0  0  0.120389  0  1.034862  0  0  0.123016  0  1.035503  0  0  0.105418  0.118531  0  1.034588  0
H  H6  1  0.59176796  0.86012689  0.74986907  1  0  0.105025  0  0.943209  0  0  0.115453  0  1.005409  0  0  0.118993  0  1.001918  0  0  0.108551  0.112867  0  1.007867  0
H  H7  1  0.40823698  0.13986964  0.25013572  1  0  0.104993  0  0.943109  0  0  0.115431  0  1.005296  0  0  0.118972  0  1.001803  0  0  0.10854  0.112848  0  1.007755  0
H  H8  1  0.67495025  0.76419741  0.90769538  1  0  0.099984  0  0.96388  0  0  0.108234  0  1.030347  0  0  0.111195  0  1.028803  0  0  0.101352  0.106055  0  1.031537  0
H  H9  1  0.32504886  0.23579817  0.09230596  1  0  0.09992  0  0.963809  0  0  0.108154  0  1.030311  0  0  0.111113  0  1.028768  0  0  0.101348  0.105978  0  1.031509  0
H  H10  1  0.65434408  0.57886621  0.97658236  1  0  0.095033  0  0.973383  0  0  0.106969  0  1.034449  0  0  0.109248  0  1.034586  0  0  0.101226  0.105259  0  1.034582  0
H  H11  1  0.34565693  0.42112753  0.02341785  1  0  0.095024  0  0.973599  0  0  0.10695  0  1.034667  0  0  0.109227  0  1.034807  0  0  0.101236  0.105298  0  1.034736  0
H  H12  1  0.45443295  0.36740373  0.83502740  1  0  0.097066  0  0.950059  0  0  0.1111  0  1.005068  0  0  0.113893  0  1.003287  0  0  0.106548  0.109059  0  1.006397  0
H  H13  1  0.54557574  0.63259386  0.16496499  1  0  0.097022  0  0.949904  0  0  0.111014  0  1.004983  0  0  0.113806  0  1.003203  0  0  0.106513  0.108977  0  1.006307  0
H  H14  1  0.28748834  0.34392702  0.62926222  1  0  0.082154  0  0.99004  0  0  0.096462  0  1.050659  0  0  0.098429  0  1.050784  0  0  0.096803  0.095018  0  1.050756  0
H  H15  1  0.71251886  0.65607054  0.37073261  1  0  0.082088  0  0.989951  0  0  0.096445  0  1.05053  0  0  0.098412  0  1.050654  0  0  0.096805  0.095003  0  1.050627  0
H  H16  1  0.18569025  0.33154549  0.46177401  1  0  0.071774  0  0.970043  0  0  0.088365  0  1.028718  0  0  0.090308  0  1.024766  0  0  0.124096  0.086813  0  1.031554  0
H  H17  1  0.81430745  0.66845844  0.53822666  1  0  0.071803  0  0.97002  0  0  0.088392  0  1.028691  0  0  0.090331  0  1.024743  0  0  0.124111  0.086815  0  1.031561  0
H  H18  1  0.12411631  0.17126709  0.31842800  1  0  0.103942  0  0.977622  0  0  0.112084  0  1.044855  0  0  0.115078  0  1.043279  0  0  0.104467  0.109959  0  1.045911  0
H  H19  1  0.87587835  0.82873313  0.68156882  1  0  0.103949  0  0.977541  0  0  0.112076  0  1.044796  0  0  0.115088  0  1.043204  0  0  0.104491  0.10995  0  1.045856  0
H  H20  1  0.67783234  0.96861886  0.99512451  1  0  0.09339  0  0.964683  0  0  0.100828  0  1.035242  0  0  0.103866  0  1.0335  0  0  0.102858  0.098638  0  1.036558  0
H  H21  1  0.32215726  0.03138224  0.00487202  1  0  0.093475  0  0.964788  0  0  0.100923  0  1.035326  0  0  0.103959  0  1.033586  0  0  0.102882  0.098731  0  1.036649  0
H  H22  1  0.62946065  0.16742884  0.97617846  1  0  0.095389  0  0.946099  0  0  0.109459  0  1.000953  0  0  0.111946  0  1.000212  0  0  0.108029  0.107655  0  1.001609  0
H  H23  1  0.37054522  0.83257793  0.02382463  1  0  0.095277  0  0.946058  0  0  0.109365  0  1.000904  0  0  0.111851  0  1.000166  0  0  0.107978  0.107559  0  1.001562  0
H  H24  1  0.82231913  0.36766962  0.13230380  1  0  0.106618  0  0.947833  0  0  0.119575  0  1.004309  0  0  0.122103  0  1.004066  0  0  0.109164  0.117761  0  1.00459  0
H  H25  1  0.17768871  0.63233533  0.86769643  1  0  0.106611  0  0.947841  0  0  0.119586  0  1.004319  0  0  0.122113  0  1.004078  0  0  0.109165  0.117771  0  1.004596  0
H  H26  1  0.89255781  0.58534916  0.14758193  1  0  0.142593  0  1.021139  0  0  0.156905  0  1.087614  0  0  0.159207  0  1.088697  0  0  0.079085  0.155252  0  1.086953  0
H  H27  1  0.10743164  0.41465192  0.85241806  1  0  0.142638  0  1.021124  0  0  0.156956  0  1.08758  0  0  0.159256  0  1.088668  0  0  0.079119  0.155302  0  1.08692  0
H  H28  1  0.12567112  0.58607985  0.11764646  1  0  0.154024  0  0.984725  0  0  0.172927  0  1.040056  0  0  0.17546  0  1.040867  0  0  0.083015  0.17112  0  1.039548  0
H  H29  1  0.87431693  0.41391842  0.88235441  1  0  0.154123  0  0.984543  0  0  0.172984  0  1.039932  0  0  0.175517  0  1.040745  0  0  0.083023  0.171175  0  1.039424  0
H  H30  1  0.99458015  0.67242793  0.05131443  1  0  0.154962  0  1.014753  0  0  0.171019  0  1.07448  0  0  0.173295  0  1.076043  0  0  0.08452  0.169392  0  1.073443  0
H  H31  1  0.00541432  0.32757226  0.94868672  1  0  0.155011  0  1.014681  0  0  0.171059  0  1.074409  0  0  0.173335  0  1.075971  0  0  0.08453  0.169427  0  1.073381  0
H  H32  1  0.53833320  0.80994612  0.31208571  1  0  0.152792  0  1.003556  0  0  0.170768  0  1.063271  0  0  0.173215  0  1.064223  0  0  0.083145  0.168999  0  1.062702  0
H  H33  1  0.46166044  0.19004942  0.68791418  1  0  0.152796  0  1.003571  0  0  0.170797  0  1.063258  0  0  0.173244  0  1.06421  0  0  0.083157  0.169026  0  1.062687  0
H  H34  1  0.52731383  0.95412894  0.40364728  1  0  0.134318  0  1.027238  0  0  0.152071  0  1.089498  0  0  0.15435  0  1.090292  0  0  0.077812  0.150437  0  1.08902  0
H  H35  1  0.47268302  0.04587034  0.59635214  1  0  0.134333  0  1.027244  0  0  0.152086  0  1.089502  0  0  0.154366  0  1.090296  0  0  0.077809  0.150449  0  1.08903  0
H  H36  1  0.50089250  0.92372630  0.24148378  1  0  0.160804  0  0.986326  0  0  0.179505  0  1.042779  0  0  0.18227  0  1.043305  0  0  0.086311  0.177503  0  1.042488  0
H  H37  1  0.49911129  0.07627027  0.75851568  1  0  0.160817  0  0.986328  0  0  0.179513  0  1.04279  0  0  0.182277  0  1.043318  0  0  0.086312  0.177508  0  1.042504  0
H  H38  1  0.89341765  0.85692846  0.41617721  1  0  0.151202  0  0.99645  0  0  0.170338  0  1.052873  0  0  0.173001  0  1.053229  0  0  0.084106  0.168383  0  1.052778  0
H  H39  1  0.10658211  0.14307172  0.58382969  1  0  0.151172  0  0.996467  0  0  0.17033  0  1.052868  0  0  0.172994  0  1.053223  0  0  0.084116  0.168373  0  1.052771  0
H  H40  1  0.13045662  0.94826348  0.50259669  1  0  0.153634  0  0.996668  0  0  0.174781  0  1.049462  0  0  0.177081  0  1.05074  0  0  0.085031  0.173119  0  1.048648  0
H  H41  1  0.86954299  0.05173583  0.49740303  1  0  0.153645  0  0.996605  0  0  0.17478  0  1.049421  0  0  0.177082  0  1.050696  0  0  0.085034  0.173119  0  1.048608  0
H  H42  1  0.04017606  0.79065923  0.50080077  1  0  0.138979  0  1.030513  0  0  0.15456  0  1.094819  0  0  0.156654  0  1.096018  0  0  0.077444  0.153047  0  1.094022  0
H  H43  1  0.95983532  0.20934480  0.49920307  1  0  0.138963  0  1.030577  0  0  0.154583  0  1.094831  0  0  0.156675  0  1.096038  0  0  0.077469  0.153069  0  1.094037  0
C  C44  1  0.29700300  0.64368649  0.48585570  1  0  0.385755  0  3.82022  0  0  0.36137  0  4.084692  0  0  0.385554  0  4.093112  0  0  0.111873  0.345489  0  4.078408  0
C  C45  1  0.70300960  0.35631753  0.51415174  1  0  0.385689  0  3.820355  0  0  0.36146  0  4.084605  0  0  0.385648  0  4.093028  0  0  0.111961  0.345567  0  4.078323  0
C  C46  1  0.41207409  0.76111628  0.57228300  1  0  -0.212089  0  3.723547  0  0  -0.227768  0  3.975342  0  0  -0.239352  0  3.99465  0  0  -0.106472  -0.220419  0  3.962298  0
C  C47  1  0.58793034  0.23888683  0.42771120  1  0  -0.212044  0  3.723803  0  0  -0.227798  0  3.975575  0  0  -0.239378  0  3.994883  0  0  -0.106523  -0.220436  0  3.96252  0
C  C48  1  0.50499191  0.76901229  0.68668284  1  0  -0.036382  0  3.724639  0  0  -0.062073  0  3.979041  0  0  -0.054872  0  3.994432  0  0  -0.068843  -0.066319  0  3.968285  0
C  C49  1  0.49502141  0.23099076  0.31332965  1  0  -0.036417  0  3.724956  0  0  -0.062045  0  3.9794  0  0  -0.054848  0  3.994793  0  0  -0.06882  -0.066295  0  3.968643  0
C  C50  1  0.49409865  0.66116934  0.72626372  1  0  0.009864  0  3.817698  0  0  0.026326  0  4.049404  0  0  0.020254  0  4.075166  0  0  -0.022127  0.03006  0  4.031897  0
C  C51  1  0.50588971  0.33882619  0.27373041  1  0  0.009844  0  3.817739  0  0  0.02614  0  4.049636  0  0  0.020067  0  4.075395  0  0  -0.022189  0.02987  0  4.032137  0
C  C52  1  0.59091511  0.67237018  0.84537597  1  0  -0.092727  0  3.736845  0  0  -0.114869  0  3.990364  0  0  -0.114467  0  4.011074  0  0  -0.086784  -0.114783  0  3.976198  0
C  C53  1  0.40908433  0.32762352  0.15462841  1  0  -0.092513  0  3.736753  0  0  -0.114575  0  3.990273  0  0  -0.114171  0  4.010987  0  0  -0.086698  -0.114493  0  3.976134  0
C  C54  1  0.57919320  0.56840041  0.88444108  1  0  -0.088146  0  3.769774  0  0  -0.105487  0  4.024711  0  0  -0.109788  0  4.04621  0  0  -0.100104  -0.102681  0  4.010124  0
C  C55  1  0.42080059  0.43159431  0.11554471  1  0  -0.088341  0  3.769551  0  0  -0.105703  0  4.024528  0  0  -0.110002  0  4.04602  0  0  -0.100215  -0.102932  0  4.009923  0
C  C56  1  0.46860492  0.45012586  0.80461096  1  0  -0.055114  0  3.771453  0  0  -0.070816  0  4.026954  0  0  -0.068525  0  4.044967  0  0  -0.086356  -0.071982  0  4.014492  0
C  C57  1  0.53141278  0.54986890  0.19539730  1  0  -0.05494  0  3.772151  0  0  -0.070621  0  4.027634  0  0  -0.06833  0  4.045656  0  0  -0.086246  -0.071785  0  4.015184  0
C  C58  1  0.37266662  0.43712323  0.68731580  1  0  -0.128569  0  3.746699  0  0  -0.152499  0  4.003004  0  0  -0.15801  0  4.024708  0  0  -0.098647  -0.148967  0  3.988274  0
C  C59  1  0.62732776  0.56287245  0.31266681  1  0  -0.128609  0  3.747463  0  0  -0.152582  0  4.003743  0  0  -0.158093  0  4.02544  0  0  -0.098706  -0.149053  0  3.989019  0
C  C60  1  0.38285558  0.54129415  0.64406046  1  0  0.048447  0  3.768833  0  0  0.057146  0  4.000796  0  0  0.062132  0  4.026328  0  0  -0.005641  0.054216  0  3.983417  0
C  C61  1  0.61714715  0.45870610  0.35594155  1  0  0.048562  0  3.768468  0  0  0.057355  0  4.000429  0  0  0.062354  0  4.02595  0  0  -0.005604  0.054433  0  3.983047  0
C  C62  1  0.28562433  0.53241404  0.52175646  1  0  -0.179492  0  3.769069  0  0  -0.170086  0  4.026516  0  0  -0.189012  0  4.053078  0  0  -0.039509  -0.158063  0  4.008693  0
C  C63  1  0.71437624  0.46758715  0.47824208  1  0  -0.179519  0  3.7691  0  0  -0.170194  0  4.026529  0  0  -0.189148  0  4.053139  0  0  -0.039534  -0.158156  0  4.008686  0
C  C64  1  0.18438097  0.41534288  0.43708170  1  0  0.187657  0  3.630284  0  0  0.132265  0  3.891859  0  0  0.154119  0  3.899441  0  0  0.080568  0.118242  0  3.886478  0
C  C65  1  0.81561811  0.58465827  0.56291929  1  0  0.187587  0  3.630445  0  0  0.132236  0  3.892056  0  0  0.154063  0  3.899625  0  0  0.080524  0.118221  0  3.886689  0
C  C66  1  0.98234850  0.28297428  0.23739037  1  0  0.215226  0  3.807626  0  0  0.20762  0  4.059821  0  0  0.212878  0  4.08362  0  0  0.093776  0.204191  0  4.043655  0
C  C67  1  0.01764824  0.71702498  0.76261165  1  0  0.215179  0  3.807591  0  0  0.207615  0  4.059807  0  0  0.212836  0  4.083615  0  0  0.093722  0.204183  0  4.04364  0
C  C68  1  0.01377703  0.17220090  0.24574930  1  0  -0.164669  0  3.709898  0  0  -0.193871  0  3.958023  0  0  -0.197359  0  3.979739  0  0  -0.085896  -0.191255  0  3.943274  0
C  C69  1  0.98622154  0.82779931  0.75425314  1  0  -0.164743  0  3.709894  0  0  -0.193882  0  3.958018  0  0  -0.197412  0  3.979729  0  0  -0.08591  -0.191263  0  3.943272  0
C  C70  1  0.90399610  0.05921472  0.15867679  1  0  -0.038495  0  3.758025  0  0  -0.013831  0  3.987757  0  0  -0.020068  0  4.01118  0  0  -0.012518  -0.010111  0  3.972469  0
C  C71  1  0.09600000  0.94078831  0.84131828  1  0  -0.038376  0  3.75796  0  0  -0.0138  0  3.987811  0  0  -0.019968  0  4.011136  0  0  -0.012475  -0.01008  0  3.972527  0
C  C72  1  0.76353357  0.05727670  0.06215846  1  0  -0.077436  0  3.727869  0  0  -0.10522  0  3.980397  0  0  -0.106989  0  4.002253  0  0  -0.083087  -0.103811  0  3.965597  0
C  C73  1  0.23646869  0.94272820  0.93784293  1  0  -0.077549  0  3.727857  0  0  -0.105317  0  3.98039  0  0  -0.107102  0  4.002232  0  0  -0.083128  -0.103914  0  3.9656  0
C  C74  1  0.73728925  0.16827764  0.05170917  1  0  -0.054037  0  3.76805  0  0  -0.066006  0  4.018311  0  0  -0.067797  0  4.040002  0  0  -0.083306  -0.064873  0  4.003704  0
C  C75  1  0.26271002  0.83172354  0.94828750  1  0  -0.053955  0  3.767903  0  0  -0.065909  0  4.01819  0  0  -0.067704  0  4.039887  0  0  -0.083267  -0.064778  0  4.003582  0
C  C76  1  0.84590465  0.28115298  0.13874380  1  0  -0.138687  0  3.715121  0  0  -0.157326  0  3.961454  0  0  -0.160359  0  3.98182  0  0  -0.082095  -0.155297  0  3.947709  0
C  C77  1  0.15409625  0.71884912  0.86125761  1  0  -0.138559  0  3.715021  0  0  -0.157262  0  3.961416  0  0  -0.1603  0  3.981797  0  0  -0.08205  -0.15523  0  3.947665  0
C  C78  1  0.93461757  0.94004303  0.17062864  1  0  0.632685  0  3.913945  0  0  0.585026  0  4.206301  0  0  0.618594  0  4.198543  0  0  0.212933  0.562331  0  4.210705  0
C  C79  1  0.06537075  0.05995250  0.82936637  1  0  0.632495  0  3.914112  0  0  0.5848  0  4.206559  0  0  0.618354  0  4.198808  0  0  0.21285  0.562101  0  4.210968  0
C  C80  1  0.02708008  0.64113001  0.13144996  1  0  -0.70465  0  3.525063  0  0  -0.745269  0  3.758633  0  0  -0.757535  0  3.763585  0  0  -0.336876  -0.736776  0  3.755261  0
C  C81  1  0.97291386  0.35887202  0.86855246  1  0  -0.704801  0  3.524895  0  0  -0.745404  0  3.758519  0  0  -0.757672  0  3.763476  0  0  -0.33692  -0.736919  0  3.755146  0
C  C82  1  0.46863322  0.88187291  0.31476837  1  0  -0.719309  0  3.51323  0  0  -0.758585  0  3.743274  0  0  -0.771966  0  3.74897  0  0  -0.340281  -0.749278  0  3.739384  0
C  C83  1  0.53136410  0.11812453  0.68523151  1  0  -0.719336  0  3.513238  0  0  -0.758639  0  3.743255  0  0  -0.772022  0  3.74895  0  0  -0.340284  -0.749332  0  3.739376  0
C  C84  1  0.03996788  0.85476832  0.44590350  1  0  -0.716503  0  3.522335  0  0  -0.759304  0  3.754071  0  0  -0.772729  0  3.7605  0  0  -0.340778  -0.749969  0  3.74967  0
C  C85  1  0.96003250  0.14523283  0.55409936  1  0  -0.716457  0  3.522379  0  0  -0.759302  0  3.75408  0  0  -0.772724  0  3.760494  0  0  -0.340799  -0.749977  0  3.749681  0
N  N86  1  0.08379451  0.39804146  0.32575989  1  0  -0.298319  0  3.432192  0  0  -0.23052  0  3.66717  0  0  -0.250724  0  3.680499  0  0  -0.364092  -0.217381  0  3.658082  0
N  N87  1  0.91620152  0.60195877  0.67423708  1  0  -0.298263  0  3.432314  0  0  -0.23057  0  3.667415  0  0  -0.250654  0  3.680608  0  0  -0.364076  -0.217419  0  3.658289  0
O  O88  1  0.20644431  0.63713025  0.37838203  1  0  -0.596676  0  2.060018  0  0  -0.520481  0  2.287086  0  0  -0.547943  0  2.286195  0  0  -0.283212  -0.501349  0  2.286785  0
O  O89  1  0.79355528  0.36287464  0.62161734  1  0  -0.596607  0  2.060334  0  0  -0.520459  0  2.28735  0  0  -0.547907  0  2.286434  0  0  -0.283196  -0.501328  0  2.287047  0
O  O90  1  0.10948495  0.95331049  0.22644705  1  0  -0.641324  0  2.021544  0  0  -0.569218  0  2.26205  0  0  -0.596526  0  2.254926  0  0  -0.297807  -0.550102  0  2.266109  0
O  O91  1  0.89051600  0.04668883  0.77355367  1  0  -0.641268  0  2.021846  0  0  -0.569122  0  2.262359  0  0  -0.596434  0  2.255249  0  0  -0.297798  -0.549996  0  2.266392  0
O  O92  1  0.79865251  0.84017500  0.13069666  1  0  -0.597636  0  1.900051  0  0  -0.549419  0  2.114751  0  0  -0.571937  0  2.108298  0  0  -0.307854  -0.533546  0  2.11856  0
O  O93  1  0.20134522  0.15982894  0.86930314  1  0  -0.59758  0  1.899792  0  0  -0.549326  0  2.114496  0  0  -0.57185  0  2.108058  0  0  -0.307819  -0.533451  0  2.118307  0
