# generated using pymatgen
data_ZnH5C8N3O2
_symmetry_space_group_name_H-M   'P 1'
_cell_length_a   12.55389758
_cell_length_b   13.31882444
_cell_length_c   31.18873657
_cell_angle_alpha   89.99991328
_cell_angle_beta   90.00002711
_cell_angle_gamma   90.00003661
_symmetry_Int_Tables_number   1
_chemical_formula_structural   ZnH5C8N3O2
_chemical_formula_sum   'Zn16 H80 C128 N48 O32'
_cell_volume   5214.85524542
_cell_formula_units_Z   16
loop_
 _symmetry_equiv_pos_site_id
 _symmetry_equiv_pos_as_xyz
  1  'x, y, z'
loop_
 _atom_site_type_symbol
 _atom_site_label
 _atom_site_symmetry_multiplicity
 _atom_site_fract_x
 _atom_site_fract_y
 _atom_site_fract_z
 _atom_site_occupancy
 _atom_site_pbe_bader_charge
 _atom_site_pbe_bader_spin_density
 _atom_site_pbe_cm5_charge
 _atom_site_pbe_ddec_charge
 _atom_site_pbe_ddec_spin_density
 _atom_site_pbe_ddec_sum_bond_order
 _atom_site_pbe_magmom
Zn  Zn0  1  0.39888742  0.09489402  0.20297328  1  1.237026  0  0.708957  0.681793  0  2.498991  0
Zn  Zn1  1  0.60111278  0.59489362  0.79702670  1  1.237003  0  0.708975  0.681772  0  2.49901  0
Zn  Zn2  1  0.10111087  0.09489530  0.70297267  1  1.237025  0  0.708986  0.681826  0  2.498955  0
Zn  Zn3  1  0.89888774  0.59489534  0.29702700  1  1.236991  0  0.708963  0.681787  0  2.499013  0
Zn  Zn4  1  0.34555930  0.93142638  0.29733367  1  1.244211  0  0.711292  0.68074  0  2.503095  0
Zn  Zn5  1  0.65443954  0.43142667  0.70266609  1  1.244145  0  0.711274  0.680689  0  2.503101  0
Zn  Zn6  1  0.15443966  0.93142769  0.79733371  1  1.244168  0  0.711286  0.680709  0  2.503113  0
Zn  Zn7  1  0.84555918  0.43142761  0.20266606  1  1.24415  0  0.711264  0.680654  0  2.503105  0
Zn  Zn8  1  0.30978058  0.54047463  0.19364893  1  1.238866  0  0.710768  0.685103  0  2.506019  0
Zn  Zn9  1  0.69021879  0.04047533  0.80635109  1  1.238875  0  0.710786  0.685115  0  2.505957  0
Zn  Zn10  1  0.19021959  0.54047671  0.69364929  1  1.238914  0  0.710744  0.685061  0  2.506057  0
Zn  Zn11  1  0.80978057  0.04047550  0.30635105  1  1.238918  0  0.710767  0.685067  0  2.506009  0
Zn  Zn12  1  0.43097247  0.48766426  0.30189605  1  1.243732  0  0.707958  0.682167  0  2.477473  0
Zn  Zn13  1  0.56902641  0.98766418  0.69810432  1  1.243727  0  0.70798  0.682213  0  2.477412  0
Zn  Zn14  1  0.06902779  0.48766402  0.80189607  1  1.243692  0  0.707963  0.68217  0  2.477456  0
Zn  Zn15  1  0.93097108  0.98766442  0.19810398  1  1.243597  0  0.707975  0.682229  0  2.477373  0
H  H16  1  0.33538449  0.31027345  0.16087211  1  0.238198  0  0.145874  0.133513  0  0.99344  0
H  H17  1  0.66461507  0.81027293  0.83912773  1  0.238248  0  0.145873  0.133498  0  0.993448  0
H  H18  1  0.16461629  0.31027476  0.66087183  1  0.238222  0  0.145871  0.133515  0  0.993443  0
H  H19  1  0.83538406  0.81027462  0.33912802  1  0.238228  0  0.145864  0.133489  0  0.993412  0
H  H20  1  0.41351326  0.24392805  0.28926240  1  0.16806  0  0.150804  0.124751  0  0.952956  0
H  H21  1  0.58648943  0.74392719  0.71073781  1  0.168051  0  0.150809  0.124757  0  0.952953  0
H  H22  1  0.08648842  0.24392707  0.78926178  1  0.168083  0  0.150812  0.124773  0  0.952913  0
H  H23  1  0.91350950  0.74392817  0.21073779  1  0.168074  0  0.150812  0.124758  0  0.952969  0
H  H24  1  0.16430765  0.06856737  0.16349171  1  0.218985  0  0.148108  0.133028  0  0.986126  0
H  H25  1  0.83569253  0.56856772  0.83650765  1  0.219003  0  0.148058  0.133003  0  0.986014  0
H  H26  1  0.33569137  0.06856879  0.66349210  1  0.218959  0  0.148085  0.133005  0  0.986079  0
H  H27  1  0.66430882  0.56856555  0.33650854  1  0.218988  0  0.14809  0.133034  0  0.986078  0
H  H28  1  0.08899674  0.92052447  0.27888757  1  0.150013  0  0.144112  0.109816  0  0.974202  0
H  H29  1  0.91100130  0.42052260  0.72111220  1  0.150006  0  0.144112  0.10979  0  0.974204  0
H  H30  1  0.41100061  0.92052518  0.77888798  1  0.149964  0  0.144122  0.109805  0  0.974217  0
H  H31  1  0.58899822  0.42052639  0.22111212  1  0.150042  0  0.144127  0.109813  0  0.97421  0
H  H32  1  0.33610767  0.21413527  0.05239773  1  0.090348  0  0.101434  0.10451  0  1.015856  0
H  H33  1  0.66389182  0.71413588  0.94760154  1  0.090338  0  0.101439  0.104518  0  1.015909  0
H  H34  1  0.16389053  0.21413584  0.55239776  1  0.090363  0  0.101434  0.104501  0  1.015776  0
H  H35  1  0.83610976  0.71413681  0.44760150  1  0.090348  0  0.101426  0.10449  0  1.015786  0
H  H36  1  0.56760817  0.99115806  0.08743771  1  0.09011  0  0.104575  0.113286  0  1.000314  0
H  H37  1  0.43238991  0.49115823  0.91256234  1  0.09008  0  0.104572  0.11327  0  1.000285  0
H  H38  1  0.93238919  0.99115879  0.58743748  1  0.090073  0  0.104562  0.113266  0  1.000284  0
H  H39  1  0.06761208  0.49116051  0.41256225  1  0.090042  0  0.104565  0.113259  0  1.000276  0
H  H40  1  0.39998000  0.21042087  0.97658842  1  0.054473  0  0.101324  0.100516  0  1.00183  0
H  H41  1  0.60001949  0.71042245  0.02341084  1  0.054488  0  0.101337  0.100564  0  1.001824  0
H  H42  1  0.10001948  0.21042091  0.47658898  1  0.054503  0  0.101325  0.100548  0  1.001843  0
H  H43  1  0.89998000  0.71042015  0.52341093  1  0.0545  0  0.101323  0.100562  0  1.001823  0
H  H44  1  0.68977655  0.92063696  0.03197798  1  0.052657  0  0.099476  0.099351  0  1.009106  0
H  H45  1  0.31022228  0.42063761  0.96802179  1  0.052665  0  0.099448  0.099319  0  1.009024  0
H  H46  1  0.81022310  0.92063686  0.53197741  1  0.05267  0  0.099459  0.099353  0  1.009045  0
H  H47  1  0.18977813  0.42063695  0.46802173  1  0.052648  0  0.099467  0.099356  0  1.009079  0
H  H48  1  0.08081897  0.45608879  0.16177012  1  0.205122  0  0.150458  0.129709  0  0.971307  0
H  H49  1  0.91918148  0.95608693  0.83822931  1  0.205117  0  0.150478  0.129732  0  0.97128  0
H  H50  1  0.41917952  0.45608876  0.66177021  1  0.205125  0  0.150466  0.12972  0  0.971306  0
H  H51  1  0.58081934  0.95608546  0.33822954  1  0.205102  0  0.150478  0.129738  0  0.971237  0
H  H52  1  0.15380041  0.61920286  0.27351426  1  0.11185  0  0.14201  0.107761  0  0.983968  0
H  H53  1  0.84619901  0.11920093  0.72648539  1  0.112298  0  0.142071  0.107877  0  0.983958  0
H  H54  1  0.34620150  0.61920354  0.77351433  1  0.112003  0  0.142052  0.107865  0  0.983914  0
H  H55  1  0.65380031  0.11920401  0.22648628  1  0.111843  0  0.142034  0.10781  0  0.98391  0
H  H56  1  0.89126361  0.21341821  0.16437218  1  0.248259  0  0.148766  0.136378  0  0.980463  0
H  H57  1  0.10873588  0.71341888  0.83562773  1  0.248259  0  0.14877  0.13638  0  0.980469  0
H  H58  1  0.60873650  0.21341799  0.66437221  1  0.248259  0  0.148763  0.136353  0  0.980491  0
H  H59  1  0.39126378  0.71341834  0.33562770  1  0.248262  0  0.148766  0.136364  0  0.980491  0
H  H60  1  0.52106505  0.13885913  0.92100397  1  0.095999  0  0.105857  0.115044  0  0.999959  0
H  H61  1  0.47893598  0.63885894  0.07899567  1  0.095989  0  0.105878  0.115068  0  0.999887  0
H  H62  1  0.97893372  0.13886090  0.42100428  1  0.095992  0  0.105888  0.115096  0  0.999873  0
H  H63  1  0.02106572  0.63885717  0.57899600  1  0.09602  0  0.105848  0.115019  0  0.999975  0
H  H64  1  0.75182952  0.91517240  0.95603562  1  0.092192  0  0.100307  0.103159  0  1.019948  0
H  H65  1  0.24817011  0.41517177  0.04396416  1  0.092187  0  0.100311  0.103169  0  1.019932  0
H  H66  1  0.74816902  0.91517328  0.45603524  1  0.092182  0  0.10033  0.103146  0  1.019974  0
H  H67  1  0.25183061  0.41517164  0.54396421  1  0.092165  0  0.100295  0.103148  0  1.019965  0
H  H68  1  0.83555511  0.28430560  0.29403210  1  0.15531  0  0.148768  0.118006  0  0.952748  0
H  H69  1  0.16444363  0.78430751  0.70596776  1  0.155239  0  0.148782  0.118037  0  0.952778  0
H  H70  1  0.66444121  0.28430542  0.79403278  1  0.155078  0  0.1488  0.118054  0  0.952752  0
H  H71  1  0.33555992  0.78430469  0.20596676  1  0.155046  0  0.148786  0.117991  0  0.952784  0
H  H72  1  0.07241504  0.10588312  0.06840191  1  0.092536  0  0.106627  0.114465  0  1.005929  0
H  H73  1  0.92758597  0.60588319  0.93159775  1  0.092527  0  0.106615  0.114432  0  1.005927  0
H  H74  1  0.42758470  0.10588234  0.56840136  1  0.09255  0  0.106598  0.114416  0  1.005929  0
H  H75  1  0.57241551  0.60588321  0.43159798  1  0.092518  0  0.106601  0.114419  0  1.005992  0
H  H76  1  0.88669228  0.83466390  0.06750784  1  0.093567  0  0.103  0.108135  0  1.006788  0
H  H77  1  0.11330729  0.33466381  0.93249263  1  0.093585  0  0.102974  0.108089  0  1.006858  0
H  H78  1  0.61330894  0.83466369  0.56750819  1  0.093555  0  0.103008  0.108174  0  1.006746  0
H  H79  1  0.38669142  0.33466552  0.43249292  1  0.093591  0  0.102968  0.108125  0  1.006828  0
H  H80  1  0.93272950  0.80643081  0.99060713  1  0.050795  0  0.100524  0.098005  0  1.017744  0
H  H81  1  0.06726926  0.30643020  0.00939400  1  0.050774  0  0.100524  0.098007  0  1.017665  0
H  H82  1  0.56727299  0.80643159  0.49060671  1  0.050776  0  0.100526  0.09799  0  1.017815  0
H  H83  1  0.43272816  0.30643393  0.50939409  1  0.050796  0  0.100534  0.098028  0  1.017781  0
H  H84  1  0.17309371  0.15711601  0.00336144  1  0.043767  0  0.101286  0.100439  0  1.01388  0
H  H85  1  0.82690654  0.65711579  0.99663883  1  0.04377  0  0.101284  0.100456  0  1.013867  0
H  H86  1  0.32690678  0.15711368  0.50336086  1  0.043812  0  0.101279  0.100485  0  1.013844  0
H  H87  1  0.67309426  0.65711738  0.49663940  1  0.043806  0  0.101285  0.100465  0  1.013825  0
H  H88  1  0.03132257  0.85912600  0.92491568  1  0.129456  0  0.107257  0.116758  0  0.998396  0
H  H89  1  0.96867781  0.35912645  0.07508446  1  0.12946  0  0.107289  0.116814  0  0.998402  0
H  H90  1  0.46867968  0.85912326  0.42491599  1  0.1294  0  0.107258  0.116794  0  0.998437  0
H  H91  1  0.53132229  0.35912618  0.57508479  1  0.129457  0  0.107284  0.116824  0  0.998402  0
H  H92  1  0.22070892  0.12785206  0.92640942  1  0.101236  0  0.103897  0.109151  0  1.001586  0
H  H93  1  0.77929210  0.62785356  0.07359054  1  0.101245  0  0.103919  0.109191  0  1.001539  0
H  H94  1  0.27929044  0.12784845  0.42640969  1  0.101274  0  0.103896  0.109168  0  1.001583  0
H  H95  1  0.72071138  0.62785116  0.57359059  1  0.101211  0  0.103892  0.109155  0  1.001554  0
C  C96  1  0.40964659  0.10712949  0.11930718  1  1.532491  0  0.194278  0.56532  0  4.198211  0
C  C97  1  0.59035362  0.60712953  0.88069248  1  1.532464  0  0.194213  0.565297  0  4.19823  0
C  C98  1  0.09035002  0.10713151  0.61930784  1  1.532305  0  0.194126  0.565145  0  4.198324  0
C  C99  1  0.90965019  0.60713201  0.38069181  1  1.532521  0  0.194155  0.56518  0  4.198393  0
C  C100  1  0.35543087  0.31775228  0.19461410  1  0.976638  0  0.157868  0.162205  0  3.906929  0
C  C101  1  0.64456948  0.81775187  0.80538606  1  0.976638  0  0.157897  0.162242  0  3.906981  0
C  C102  1  0.14457075  0.31775359  0.69461381  1  0.976665  0  0.157846  0.162165  0  3.906928  0
C  C103  1  0.85542961  0.81775357  0.30538603  1  0.97666  0  0.157932  0.162312  0  3.906867  0
C  C104  1  0.39431285  0.28361628  0.25982451  1  0.983916  0  0.153884  0.149304  0  3.94639  0
C  C105  1  0.60568908  0.78361608  0.74017535  1  0.983928  0  0.153848  0.149215  0  3.946497  0
C  C106  1  0.10568882  0.28361681  0.75982422  1  0.983937  0  0.153882  0.149223  0  3.946442  0
C  C107  1  0.89430912  0.78361705  0.24017564  1  0.983968  0  0.15386  0.149235  0  3.946566  0
C  C108  1  0.17009311  0.03267902  0.19467028  1  0.980947  0  0.161195  0.168714  0  3.895305  0
C  C109  1  0.82990705  0.53267947  0.80532942  1  0.980933  0  0.161204  0.168637  0  3.89522  0
C  C110  1  0.32990512  0.03268119  0.69467067  1  0.981076  0  0.161137  0.16863  0  3.895301  0
C  C111  1  0.67009424  0.53267805  0.30532999  1  0.980936  0  0.161219  0.168655  0  3.895227  0
C  C112  1  0.44824812  0.10182355  0.07407451  1  -0.056172  0  -0.019992  -0.027163  0  3.989116  0
C  C113  1  0.55175209  0.60182342  0.92592515  1  -0.056123  0  -0.020036  -0.027289  0  3.989227  0
C  C114  1  0.05174844  0.10182480  0.57407452  1  -0.056209  0  -0.020027  -0.027218  0  3.989302  0
C  C115  1  0.94825177  0.60182667  0.42592513  1  -0.056226  0  -0.020032  -0.027222  0  3.989314  0
C  C116  1  0.13195790  0.95782512  0.25323439  1  0.983342  0  0.151239  0.145744  0  3.967606  0
C  C117  1  0.86804016  0.45782388  0.74676568  1  0.983384  0  0.151288  0.145849  0  3.967609  0
C  C118  1  0.36803945  0.95782581  0.75323479  1  0.983437  0  0.151275  0.14583  0  3.967558  0
C  C119  1  0.63195941  0.45782544  0.24676560  1  0.983371  0  0.151273  0.145819  0  3.967647  0
C  C120  1  0.40014354  0.16395821  0.04249193  1  -0.106872  0  -0.088134  -0.104802  0  4.002559  0
C  C121  1  0.59985512  0.66395874  0.95750737  1  -0.106857  0  -0.088131  -0.104728  0  4.002531  0
C  C122  1  0.09985302  0.16396024  0.54249227  1  -0.106861  0  -0.088147  -0.104745  0  4.002521  0
C  C123  1  0.90014723  0.66396046  0.45750734  1  -0.106861  0  -0.088102  -0.104712  0  4.002528  0
C  C124  1  0.53077943  0.03788552  0.06284709  1  -0.019796  0  -0.077926  -0.135888  0  3.921213  0
C  C125  1  0.46921994  0.53788680  0.93715229  1  -0.019857  0  -0.077867  -0.135793  0  3.921157  0
C  C126  1  0.96921726  0.03788778  0.56284751  1  -0.019794  0  -0.077883  -0.135822  0  3.921219  0
C  C127  1  0.03078291  0.53788905  0.43715220  1  -0.01976  0  -0.077871  -0.135811  0  3.92107  0
C  C128  1  0.43554527  0.16149336  0.00075764  1  0.041003  0  -0.086427  -0.125614  0  3.99212  0
C  C129  1  0.56445418  0.66149522  0.99924198  1  0.040968  0  -0.086446  -0.125749  0  3.992051  0
C  C130  1  0.06445284  0.16149537  0.50075797  1  0.040975  0  -0.08642  -0.125692  0  3.992204  0
C  C131  1  0.93554741  0.66149472  0.49924197  1  0.040994  0  -0.086415  -0.1257  0  3.992074  0
C  C132  1  0.56777987  0.03257508  0.02005023  1  0.023264  0  -0.002675  0.081337  0  3.992191  0
C  C133  1  0.43221870  0.53257693  0.97994947  1  0.023259  0  -0.002666  0.08135  0  3.992178  0
C  C134  1  0.93221677  0.03257731  0.52005064  1  0.023266  0  -0.00266  0.081341  0  3.9922  0
C  C135  1  0.06778259  0.53257771  0.47994938  1  0.023259  0  -0.002669  0.081401  0  3.992073  0
C  C136  1  0.51938591  0.09597610  0.98823691  1  -0.073772  0  -0.002314  0.079364  0  3.99153  0
C  C137  1  0.48061350  0.59597840  0.01176275  1  -0.073764  0  -0.002335  0.079381  0  3.991443  0
C  C138  1  0.98061131  0.09597937  0.48823722  1  -0.073739  0  -0.002328  0.07936  0  3.991442  0
C  C139  1  0.01938810  0.59597813  0.51176276  1  -0.073772  0  -0.00233  0.079348  0  3.991415  0
C  C140  1  0.65217229  0.96758332  0.00759256  1  -0.033073  0  -0.088519  -0.130244  0  3.991784  0
C  C141  1  0.34782657  0.46758541  0.99240751  1  -0.032955  0  -0.08852  -0.130246  0  3.991811  0
C  C142  1  0.84782576  0.96758475  0.50759231  1  -0.033109  0  -0.08857  -0.130321  0  3.991861  0
C  C143  1  0.15217390  0.46758474  0.49240743  1  -0.03297  0  -0.088536  -0.130309  0  3.991861  0
C  C144  1  0.07392871  0.49385107  0.19250235  1  0.984073  0  0.161912  0.16668  0  3.905914  0
C  C145  1  0.92607097  0.99384933  0.80749769  1  0.984058  0  0.161889  0.166699  0  3.9058  0
C  C146  1  0.42606984  0.49385105  0.69250244  1  0.983857  0  0.161879  0.166641  0  3.905853  0
C  C147  1  0.57392905  0.99384860  0.30749760  1  0.984012  0  0.161889  0.166688  0  3.905731  0
C  C148  1  0.11153144  0.57715113  0.24905031  1  1.005417  0  0.14875  0.146237  0  3.957827  0
C  C149  1  0.88846796  0.07714989  0.75094904  1  1.004944  0  0.148625  0.146  0  3.957949  0
C  C150  1  0.38847042  0.57715183  0.74905103  1  1.005243  0  0.148695  0.146092  0  3.957737  0
C  C151  1  0.61153137  0.07715069  0.25094992  1  1.005436  0  0.148697  0.146149  0  3.957902  0
C  C152  1  0.95413436  0.99164465  0.11807605  1  1.519195  0  0.193205  0.559768  0  4.191253  0
C  C153  1  0.04586531  0.49164395  0.88192432  1  1.519028  0  0.19317  0.559683  0  4.191343  0
C  C154  1  0.54586463  0.99164365  0.61807607  1  1.519189  0  0.1932  0.559748  0  4.191229  0
C  C155  1  0.45413584  0.49164495  0.38192398  1  1.519281  0  0.193154  0.559685  0  4.191319  0
C  C156  1  0.87708158  0.20749720  0.19858325  1  0.964365  0  0.157967  0.16847  0  3.903078  0
C  C157  1  0.12291711  0.70749800  0.80141602  1  0.963851  0  0.158013  0.168526  0  3.903269  0
C  C158  1  0.62291698  0.20749699  0.69858392  1  0.964077  0  0.157989  0.168518  0  3.903218  0
C  C159  1  0.37708330  0.70749671  0.30141599  1  0.963743  0  0.157952  0.168437  0  3.903214  0
C  C160  1  0.55706024  0.09136467  0.94552085  1  0.014518  0  -0.075906  -0.133073  0  3.916224  0
C  C161  1  0.44294076  0.59136529  0.05447913  1  0.014516  0  -0.075939  -0.133114  0  3.916125  0
C  C162  1  0.94293772  0.09136717  0.44552019  1  0.014521  0  -0.075959  -0.133124  0  3.91613  0
C  C163  1  0.05706089  0.59136429  0.55447915  1  0.014428  0  -0.075941  -0.133082  0  3.916225  0
C  C164  1  0.68689035  0.96444097  0.96577405  1  -0.016421  0  -0.087462  -0.098907  0  3.997236  0
C  C165  1  0.31310931  0.46444192  0.03422634  1  -0.016484  0  -0.087449  -0.098894  0  3.99729  0
C  C166  1  0.81310744  0.96444340  0.46577400  1  -0.016577  0  -0.087406  -0.098809  0  3.997289  0
C  C167  1  0.18689222  0.46444100  0.53422606  1  -0.016579  0  -0.087454  -0.098905  0  3.997367  0
C  C168  1  0.97643975  0.97350050  0.07192094  1  -0.014957  0  -0.019891  -0.029815  0  3.998875  0
C  C169  1  0.02356150  0.47350037  0.92807944  1  -0.014826  0  -0.019939  -0.029828  0  3.998866  0
C  C170  1  0.52355997  0.97350098  0.57192063  1  -0.014976  0  -0.019838  -0.029741  0  3.998864  0
C  C171  1  0.47643969  0.47350214  0.42807943  1  -0.014944  0  -0.019863  -0.029765  0  3.998805  0
C  C172  1  0.84976183  0.24370298  0.26437942  1  0.97073  0  0.150721  0.146944  0  3.962355  0
C  C173  1  0.15023768  0.74370402  0.73562047  1  0.970765  0  0.15071  0.146936  0  3.962269  0
C  C174  1  0.65023523  0.24370278  0.76437978  1  0.970951  0  0.150636  0.146848  0  3.962292  0
C  C175  1  0.34976587  0.74370271  0.23561979  1  0.970964  0  0.150722  0.147065  0  3.962391  0
C  C176  1  0.63893757  0.02672763  0.93419211  1  -0.073169  0  -0.019913  -0.028596  0  3.988014  0
C  C177  1  0.36106338  0.52672816  0.06580760  1  -0.073176  0  -0.019898  -0.028572  0  3.987941  0
C  C178  1  0.86106113  0.02673008  0.43419176  1  -0.073003  0  -0.019907  -0.028624  0  3.987934  0
C  C179  1  0.13893823  0.52672721  0.56580795  1  -0.073052  0  -0.019861  -0.028545  0  3.988062  0
C  C180  1  0.04191691  0.04121828  0.05082571  1  -0.027348  0  -0.074076  -0.131332  0  3.921327  0
C  C181  1  0.95808406  0.54121755  0.94917399  1  -0.027295  0  -0.074068  -0.131298  0  3.921261  0
C  C182  1  0.45808356  0.04121677  0.55082581  1  -0.027327  0  -0.074076  -0.131311  0  3.92133  0
C  C183  1  0.54191740  0.54121906  0.44917421  1  -0.027331  0  -0.074047  -0.131278  0  3.921266  0
C  C184  1  0.93662658  0.88771743  0.05006307  1  -0.054021  0  -0.087259  -0.103056  0  3.994921  0
C  C185  1  0.06337382  0.38771724  0.94993769  1  -0.05404  0  -0.087209  -0.102992  0  3.995009  0
C  C186  1  0.56337466  0.88771793  0.55006277  1  -0.05401  0  -0.087235  -0.103096  0  3.994897  0
C  C187  1  0.43662654  0.38771899  0.44993799  1  -0.053975  0  -0.08725  -0.103095  0  3.994961  0
C  C188  1  0.67580498  0.02027895  0.88877861  1  1.521902  0  0.195019  0.564455  0  4.196673  0
C  C189  1  0.32419597  0.52027855  0.11122143  1  1.521921  0  0.195058  0.564505  0  4.196597  0
C  C190  1  0.82419446  0.02028063  0.38877857  1  1.521808  0  0.195114  0.56465  0  4.196352  0
C  C191  1  0.17580569  0.52027837  0.61122147  1  1.521992  0  0.195085  0.564519  0  4.196618  0
C  C192  1  0.07121136  0.02625758  0.00762230  1  -0.021365  0  -0.002221  0.08021  0  4.000055  0
C  C193  1  0.92878800  0.52625818  0.99237837  1  -0.021346  0  -0.002213  0.080231  0  4.000048  0
C  C194  1  0.42878984  0.02625605  0.50762143  1  -0.021613  0  -0.002213  0.080281  0  3.999995  0
C  C195  1  0.57121270  0.52625971  0.49237892  1  -0.02109  0  -0.00222  0.080262  0  4.000094  0
C  C196  1  0.96254997  0.87218611  0.00768303  1  -0.030896  0  -0.085643  -0.125715  0  3.985985  0
C  C197  1  0.03745042  0.37218576  0.99231709  1  -0.030903  0  -0.085665  -0.125728  0  3.985871  0
C  C198  1  0.53745359  0.87218660  0.50768273  1  -0.030919  0  -0.085734  -0.125745  0  3.986065  0
C  C199  1  0.46254839  0.37218752  0.49231772  1  -0.030907  0  -0.085649  -0.125731  0  3.986031  0
C  C200  1  0.03042172  0.93994534  0.98542980  1  0.049702  0  -0.000698  0.0813  0  3.992902  0
C  C201  1  0.96957793  0.43994525  0.01457060  1  0.049715  0  -0.000704  0.081255  0  3.992967  0
C  C202  1  0.46957986  0.93994485  0.48542947  1  0.049956  0  -0.000721  0.08117  0  3.993042  0
C  C203  1  0.53042217  0.43994649  0.51457093  1  0.049439  0  -0.000739  0.081238  0  3.993053  0
C  C204  1  0.14067962  0.09321073  0.98579464  1  -0.005759  0  -0.086198  -0.128132  0  3.993091  0
C  C205  1  0.85932059  0.59321100  0.01420534  1  -0.0058  0  -0.086219  -0.128206  0  3.993212  0
C  C206  1  0.35931979  0.09320943  0.48579429  1  -0.005763  0  -0.086286  -0.12835  0  3.993073  0
C  C207  1  0.64068041  0.59321080  0.51420569  1  -0.005819  0  -0.086303  -0.128357  0  3.993221  0
C  C208  1  0.06084092  0.92445832  0.94230687  1  -0.110131  0  -0.074577  -0.132492  0  3.915236  0
C  C209  1  0.93915950  0.42445881  0.05769354  1  -0.110122  0  -0.074629  -0.132546  0  3.915508  0
C  C210  1  0.43916139  0.92445631  0.44230653  1  -0.110028  0  -0.074507  -0.132413  0  3.91528  0
C  C211  1  0.56084063  0.42445932  0.55769356  1  -0.11008  0  -0.074596  -0.132593  0  3.915517  0
C  C212  1  0.16792849  0.07698341  0.94367752  1  -0.061463  0  -0.085653  -0.097835  0  3.991946  0
C  C213  1  0.83207249  0.57698501  0.05632247  1  -0.061471  0  -0.085665  -0.09783  0  3.991929  0
C  C214  1  0.33207165  0.07698209  0.44367749  1  -0.061459  0  -0.085642  -0.097776  0  3.991711  0
C  C215  1  0.66793013  0.57698332  0.55632283  1  -0.061481  0  -0.085586  -0.097721  0  3.991834  0
C  C216  1  0.12786076  0.99161145  0.92166896  1  -0.034758  0  -0.018361  -0.02416  0  3.992937  0
C  C217  1  0.87214051  0.49161258  0.07833109  1  -0.03478  0  -0.018328  -0.024157  0  3.992892  0
C  C218  1  0.37213999  0.99160940  0.42166861  1  -0.034856  0  -0.01831  -0.024123  0  3.992681  0
C  C219  1  0.62786288  0.49161237  0.57833144  1  -0.034812  0  -0.018296  -0.024028  0  3.992822  0
C  C220  1  0.15526178  0.97589168  0.87578574  1  1.522423  0  0.187941  0.555329  0  4.211617  0
C  C221  1  0.84473948  0.47589263  0.12421464  1  1.52243  0  0.187943  0.555314  0  4.211678  0
C  C222  1  0.34473970  0.97589037  0.37578538  1  1.522413  0  0.187932  0.555291  0  4.211822  0
C  C223  1  0.65526236  0.47589019  0.62421468  1  1.522408  0  0.188045  0.555409  0  4.211828  0
N  N224  1  0.37934614  0.24018909  0.22100186  1  -1.265156  0  -0.35565  -0.318747  0  3.564161  0
N  N225  1  0.62065655  0.74018876  0.77899803  1  -1.26517  0  -0.355653  -0.318751  0  3.564205  0
N  N226  1  0.12065545  0.24018888  0.72100189  1  -1.265145  0  -0.355669  -0.318764  0  3.564148  0
N  N227  1  0.87934326  0.74018972  0.27899800  1  -1.265139  0  -0.355701  -0.318828  0  3.564206  0
N  N228  1  0.26028105  0.02572494  0.21705466  1  -0.798604  0  -0.253923  -0.19287  0  3.517748  0
N  N229  1  0.73971831  0.52572467  0.78294505  1  -0.798587  0  -0.253918  -0.192783  0  3.51767  0
N  N230  1  0.23971721  0.02572555  0.71705471  1  -0.798628  0  -0.253901  -0.192796  0  3.517639  0
N  N231  1  0.76028295  0.52572405  0.28294564  1  -0.798618  0  -0.253958  -0.192874  0  3.517643  0
N  N232  1  0.50935353  0.05145621  0.24774075  1  -0.790056  0  -0.250095  -0.188596  0  3.507257  0
N  N233  1  0.49064665  0.55145665  0.75225958  1  -0.790121  0  -0.250083  -0.188499  0  3.507092  0
N  N234  1  0.99064578  0.05145622  0.74774021  1  -0.790103  0  -0.250072  -0.188496  0  3.507109  0
N  N235  1  0.00935281  0.55145663  0.25225916  1  -0.790083  0  -0.250096  -0.188578  0  3.507183  0
N  N236  1  0.23556796  0.97804014  0.25482439  1  -0.787877  0  -0.254283  -0.185413  0  3.543369  0
N  N237  1  0.76443091  0.47803885  0.74517599  1  -0.787914  0  -0.254279  -0.185439  0  3.543364  0
N  N238  1  0.26443020  0.97804077  0.75482445  1  -0.787937  0  -0.254289  -0.185466  0  3.543386  0
N  N239  1  0.73556867  0.47804048  0.24517593  1  -0.787898  0  -0.254296  -0.185428  0  3.543281  0
N  N240  1  0.35708857  0.40454219  0.21581018  1  -0.799203  0  -0.25637  -0.198972  0  3.527543  0
N  N241  1  0.64291105  0.90454110  0.78419056  1  -0.799269  0  -0.256368  -0.198921  0  3.527433  0
N  N242  1  0.14291234  0.40454274  0.71580958  1  -0.799381  0  -0.256361  -0.19893  0  3.527525  0
N  N243  1  0.85708728  0.90454280  0.28419053  1  -0.799405  0  -0.256337  -0.198859  0  3.527364  0
N  N244  1  0.38128585  0.38271437  0.25781254  1  -0.818437  0  -0.252865  -0.197414  0  3.501847  0
N  N245  1  0.61871455  0.88271341  0.74218726  1  -0.818418  0  -0.252866  -0.197407  0  3.501736  0
N  N246  1  0.11871509  0.38271415  0.75781257  1  -0.818432  0  -0.25283  -0.197326  0  3.501762  0
N  N247  1  0.88128292  0.88271438  0.24218755  1  -0.818348  0  -0.25288  -0.197459  0  3.501751  0
N  N248  1  0.08796039  0.99047370  0.21622647  1  -1.252363  0  -0.35178  -0.310556  0  3.544064  0
N  N249  1  0.91203849  0.49047236  0.78377326  1  -1.252369  0  -0.351772  -0.310545  0  3.544046  0
N  N250  1  0.41203772  0.99047441  0.71622719  1  -1.252403  0  -0.351724  -0.310495  0  3.543983  0
N  N251  1  0.58796195  0.49047239  0.28377350  1  -1.252364  0  -0.351767  -0.310519  0  3.544063  0
N  N252  1  0.15476101  0.54282010  0.21208057  1  -1.246936  0  -0.35546  -0.318168  0  3.570466  0
N  N253  1  0.84523836  0.04281796  0.78791881  1  -1.246897  0  -0.355446  -0.318141  0  3.570411  0
N  N254  1  0.34523839  0.54282003  0.71208064  1  -1.246912  0  -0.355455  -0.318128  0  3.570285  0
N  N255  1  0.65476098  0.04281878  0.28791906  1  -1.246859  0  -0.355443  -0.318156  0  3.570487  0
N  N256  1  0.35984796  0.64426526  0.23752949  1  -0.784782  0  -0.256201  -0.197596  0  3.511235  0
N  N257  1  0.64015228  0.14426533  0.76247079  1  -0.784758  0  -0.256187  -0.197516  0  3.511212  0
N  N258  1  0.14015313  0.64426656  0.73752952  1  -0.784691  0  -0.256234  -0.197597  0  3.511248  0
N  N259  1  0.85984551  0.14426553  0.26247043  1  -0.784746  0  -0.256224  -0.197536  0  3.511223  0
N  N260  1  0.87661159  0.12103533  0.22007757  1  -0.792386  0  -0.258764  -0.203328  0  3.53348  0
N  N261  1  0.12338784  0.62103620  0.77992207  1  -0.792211  0  -0.258762  -0.203296  0  3.533622  0
N  N262  1  0.62338693  0.12103512  0.72007824  1  -0.792158  0  -0.258797  -0.203377  0  3.533618  0
N  N263  1  0.37661249  0.62103416  0.27992204  1  -0.792143  0  -0.258738  -0.203256  0  3.533504  0
N  N264  1  0.98555477  0.49816325  0.21597598  1  -0.787819  0  -0.254242  -0.183715  0  3.533007  0
N  N265  1  0.01444491  0.99816329  0.78402374  1  -0.787797  0  -0.254233  -0.183761  0  3.532928  0
N  N266  1  0.51444559  0.49816297  0.71597599  1  -0.787569  0  -0.254259  -0.183785  0  3.532983  0
N  N267  1  0.48555329  0.99816206  0.28402373  1  -0.787898  0  -0.254246  -0.183737  0  3.532973  0
N  N268  1  0.85970933  0.28604087  0.22516076  1  -1.288706  0  -0.355916  -0.326606  0  3.549146  0
N  N269  1  0.14028941  0.78604177  0.77483878  1  -1.288426  0  -0.355966  -0.326681  0  3.549148  0
N  N270  1  0.64028772  0.28603992  0.72516144  1  -1.288695  0  -0.355916  -0.3266  0  3.549114  0
N  N271  1  0.35971262  0.78604047  0.27483810  1  -1.288352  0  -0.355965  -0.326686  0  3.549285  0
O  O272  1  0.47115498  0.06757041  0.14865818  1  -1.167229  0  -0.355456  -0.560028  0  2.26049  0
O  O273  1  0.52884521  0.56756977  0.85134150  1  -1.167224  0  -0.355452  -0.560029  0  2.260447  0
O  O274  1  0.02883925  0.06757164  0.64865851  1  -1.167114  0  -0.355418  -0.56  0  2.260403  0
O  O275  1  0.97115934  0.56757304  0.35134117  1  -1.167299  0  -0.355448  -0.560012  0  2.260513  0
O  O276  1  0.32264096  0.14871570  0.12851272  1  -1.181033  0  -0.328872  -0.55836  0  2.104248  0
O  O277  1  0.67736008  0.64871432  0.87148723  1  -1.181004  0  -0.328801  -0.558293  0  2.104267  0
O  O278  1  0.17735569  0.14871477  0.62851373  1  -1.180918  0  -0.328755  -0.558232  0  2.104327  0
O  O279  1  0.82264375  0.64871450  0.37148622  1  -1.180929  0  -0.32877  -0.558252  0  2.104313  0
O  O280  1  0.36563732  0.58418581  0.13836133  1  -1.151459  0  -0.3528  -0.553059  0  2.256331  0
O  O281  1  0.63436367  0.08418553  0.86163898  1  -1.151449  0  -0.352785  -0.553041  0  2.256361  0
O  O282  1  0.13436441  0.58418485  0.63836137  1  -1.151449  0  -0.35279  -0.553053  0  2.256349  0
O  O283  1  0.86563499  0.08418798  0.36163862  1  -1.15139  0  -0.352815  -0.55311  0  2.256227  0
O  O284  1  0.90923913  0.92147249  0.14075605  1  -1.158535  0  -0.346888  -0.544696  0  2.185021  0
O  O285  1  0.09075890  0.42147189  0.85924436  1  -1.158527  0  -0.346881  -0.544649  0  2.18506  0
O  O286  1  0.59075666  0.92147151  0.64075608  1  -1.158523  0  -0.346874  -0.544667  0  2.185056  0
O  O287  1  0.40924058  0.42147287  0.35924466  1  -1.158602  0  -0.346858  -0.544636  0  2.185018  0
O  O288  1  0.98249497  0.07347876  0.13537330  1  -1.186133  0  -0.326766  -0.557291  0  2.167068  0
O  O289  1  0.01750442  0.57347777  0.86462702  1  -1.186091  0  -0.326717  -0.557226  0  2.167097  0
O  O290  1  0.51750501  0.07347849  0.63537299  1  -1.186102  0  -0.326769  -0.557278  0  2.167004  0
O  O291  1  0.48249677  0.57347729  0.36462701  1  -1.186123  0  -0.326747  -0.557253  0  2.167106  0
O  O292  1  0.87142122  0.39062758  0.14153246  1  -1.171999  0  -0.344667  -0.55664  0  2.24966  0
O  O293  1  0.12857999  0.89062667  0.85846733  1  -1.172007  0  -0.344722  -0.556717  0  2.24963  0
O  O294  1  0.62858058  0.39062512  0.64153249  1  -1.172055  0  -0.344716  -0.556706  0  2.24968  0
O  O295  1  0.37142062  0.89062613  0.35846730  1  -1.172056  0  -0.34469  -0.556677  0  2.249716  0
O  O296  1  0.74209546  0.95484721  0.87706190  1  -1.181094  0  -0.330541  -0.559787  0  2.103714  0
O  O297  1  0.25790419  0.45484706  0.12293817  1  -1.181088  0  -0.330546  -0.559795  0  2.103689  0
O  O298  1  0.75790461  0.95484810  0.37706121  1  -1.181072  0  -0.330603  -0.559878  0  2.103656  0
O  O299  1  0.24209664  0.45484692  0.62293854  1  -1.181133  0  -0.330584  -0.559819  0  2.103693  0
O  O300  1  0.19900563  0.04388681  0.85365049  1  -1.170799  0  -0.341988  -0.558324  0  2.085088  0
O  O301  1  0.80099613  0.54388732  0.14634985  1  -1.170826  0  -0.342011  -0.55834  0  2.085117  0
O  O302  1  0.30099678  0.04388622  0.35365044  1  -1.170765  0  -0.342008  -0.558338  0  2.085176  0
O  O303  1  0.69900498  0.54388416  0.64635022  1  -1.170773  0  -0.342075  -0.558414  0  2.085317  0
