# generated using pymatgen
data_ZnC13NCl4(O2F)2
_symmetry_space_group_name_H-M   'P 1'
_cell_length_a   11.03083676
_cell_length_b   14.76247597
_cell_length_c   16.15778492
_cell_angle_alpha   89.78266487
_cell_angle_beta   89.01492969
_cell_angle_gamma   69.64165820
_symmetry_Int_Tables_number   1
_chemical_formula_structural   ZnC13NCl4(O2F)2
_chemical_formula_sum   'Zn2 C26 N2 Cl8 O8 F4'
_cell_volume   2466.44641328
_cell_formula_units_Z   2
loop_
 _symmetry_equiv_pos_site_id
 _symmetry_equiv_pos_as_xyz
  1  'x, y, z'
loop_
 _atom_site_type_symbol
 _atom_site_label
 _atom_site_symmetry_multiplicity
 _atom_site_fract_x
 _atom_site_fract_y
 _atom_site_fract_z
 _atom_site_occupancy
 _atom_site_pbe_bader_charge
 _atom_site_pbe_bader_spin_density
 _atom_site_pbe_cm5_charge
 _atom_site_pbe_ddec_charge
 _atom_site_pbe_ddec_spin_density
 _atom_site_pbe_ddec_sum_bond_order
 _atom_site_pbe_magmom
Zn  Zn0  1  0.53006427  0.39834906  0.49849845  1  1.32302  0  0.693235  0.901901  0  2.39367  0
Zn  Zn1  1  0.46983683  0.60151531  0.49859008  1  1.319894  0  0.693638  0.902209  0  2.393534  0
C  C2  1  0.50174746  0.49988902  0.33846238  1  1.745048  0  0.222112  0.667386  0  4.236632  0
C  C3  1  0.49831541  0.49996659  0.65814378  1  1.644915  0  0.22442  0.67304  0  4.223963  0
C  C4  1  0.38324548  0.08296057  0.49791720  1  0.197645  0  0.025304  0.013552  0  4.079819  0
C  C5  1  0.61619075  0.91698929  0.49784797  1  0.203244  0  0.026173  0.014732  0  4.080513  0
C  C6  1  0.50655786  0.09251493  0.49786112  1  0.197513  0  0.012196  -0.073025  0  4.070734  0
C  C7  1  0.49286248  0.90743496  0.49800130  1  0.197385  0  0.011539  -0.073494  0  4.071905  0
C  C8  1  0.62002535  0.01049812  0.49778398  1  0.587882  0  0.122569  0.213431  0  4.032369  0
C  C9  1  0.37938962  0.98945126  0.49795592  1  0.583651  0  0.123293  0.214218  0  4.031363  0
C  C10  1  0.51899274  0.18482502  0.49834659  1  0.901374  0  0.244218  0.326157  0  3.929443  0
C  C11  1  0.48043570  0.81513048  0.49854382  1  0.90209  0  0.244063  0.325236  0  3.929286  0
C  C12  1  0.25380754  0.53663454  0.49475439  1  1.659314  0  0.209964  0.604381  0  4.210073  0
C  C13  1  0.74624771  0.46337209  0.49363356  1  1.653881  0  0.209133  0.602892  0  4.213086  0
C  C14  1  0.11387498  0.54530374  0.48879259  1  0.125145  0  0.004073  -0.03737  0  3.947371  0
C  C15  1  0.88655263  0.45456884  0.48804440  1  0.132301  0  0.002941  -0.03816  0  3.946401  0
C  C16  1  0.06827346  0.49963690  0.43153757  1  0.152919  0  -0.011542  0.025461  0  4.115712  0
C  C17  1  0.93537920  0.50042242  0.43131581  1  0.118172  0  -0.010171  0.026121  0  4.114801  0
C  C18  1  0.39626623  0.49158976  0.95618828  1  0.450795  0  0.099093  0.181771  0  4.043934  0
C  C19  1  0.60255778  0.50881854  0.04064479  1  0.585148  0  0.099595  0.183291  0  4.045512  0
C  C20  1  0.50131476  0.50026346  0.91026110  1  0.188921  0  -0.008344  -0.004854  0  4.131862  0
C  C21  1  0.49770293  0.49985698  0.08654775  1  0.197773  0  -0.008994  -0.004761  0  4.134308  0
C  C22  1  0.60650750  0.50894156  0.95451907  1  0.102585  0  0.006797  -0.004124  0  4.076578  0
C  C23  1  0.39253591  0.49105444  0.04233435  1  0.232922  0  0.00759  -0.002591  0  4.074232  0
C  C24  1  0.50029695  0.50017831  0.82303853  1  -0.357076  0  -0.032069  -0.020438  0  4.122551  0
C  C25  1  0.49907472  0.49984558  0.17370913  1  -0.338554  0  -0.032806  -0.021362  0  4.120335  0
C  C26  1  0.50106981  0.50000140  0.24898489  1  0.023955  0  -0.028177  -0.146239  0  3.9071  0
C  C27  1  0.49881902  0.50000373  0.74773714  1  0.182171  0  -0.025264  -0.145913  0  3.901951  0
N  N28  1  0.46575773  0.74108335  0.49926101  1  -1.131761  0  -0.249414  -0.249238  0  3.06235  0
N  N29  1  0.53378037  0.25882376  0.49908953  1  -1.128086  0  -0.249636  -0.250082  0  3.062595  0
Cl  Cl30  1  0.83922689  0.56400732  0.35177858  1  -0.168826  0  -0.004206  -0.036974  0  1.493014  0
Cl  Cl31  1  0.16894170  0.43646217  0.35174104  1  -0.171483  0  -0.005702  -0.040475  0  1.509805  0
Cl  Cl32  1  0.98152555  0.38352649  0.56372456  1  -0.169402  0  0.00374  -0.025294  0  1.554716  0
Cl  Cl33  1  0.01456310  0.61619224  0.56462175  1  -0.171764  0  0.003823  -0.02513  0  1.553421  0
Cl  Cl34  1  0.26150139  0.48040158  0.09399786  1  -0.14692  0  0.012668  -0.027613  0  1.500014  0
Cl  Cl35  1  0.73772161  0.51951704  0.90304037  1  -0.146899  0  0.011824  -0.02879  0  1.48592  0
Cl  Cl36  1  0.24512182  0.18089627  0.49854042  1  -0.074252  0  0.072013  0.034945  0  1.584612  0
Cl  Cl37  1  0.75429484  0.81907111  0.49840388  1  -0.0723  0  0.072231  0.034742  0  1.584008  0
O  O38  1  0.50743682  0.42113874  0.37341573  1  -1.13242  0  -0.310589  -0.541914  0  2.267924  0
O  O39  1  0.45526157  0.58235703  0.62354049  1  -1.142705  0  -0.309766  -0.535863  0  2.244115  0
O  O40  1  0.49632217  0.57845943  0.37320179  1  -1.134089  0  -0.311009  -0.542524  0  2.265903  0
O  O41  1  0.54116714  0.41750171  0.62319414  1  -1.124342  0  -0.309444  -0.535654  0  2.247387  0
O  O42  1  0.33062713  0.45239579  0.51071815  1  -1.148458  0  -0.310566  -0.546867  0  2.338997  0
O  O43  1  0.66865941  0.54770685  0.50970929  1  -1.142677  0  -0.310157  -0.546571  0  2.34224  0
O  O44  1  0.28038887  0.61286884  0.48491272  1  -1.138387  0  -0.312043  -0.523208  0  2.269828  0
O  O45  1  0.72005064  0.38718432  0.48355243  1  -1.135352  0  -0.311914  -0.522929  0  2.270785  0
F  F46  1  0.29567681  0.48345953  0.91427874  1  -0.619538  0  -0.091729  -0.113368  0  1.369209  0
F  F47  1  0.70292368  0.51729534  0.08253717  1  -0.61997  0  -0.09083  -0.112547  0  1.371087  0
F  F48  1  0.26519126  0.97630518  0.49819787  1  -0.59732  0  -0.061979  -0.084127  0  1.36799  0
F  F49  1  0.73421474  0.02364256  0.49784350  1  -0.597085  0  -0.061892  -0.083965  0  1.368457  0
