# generated using pymatgen
data_CdH5C6N3Cl2
_symmetry_space_group_name_H-M   'P 1'
_cell_length_a   3.78671291
_cell_length_b   10.87125331
_cell_length_c   11.20186584
_cell_angle_alpha   112.64733471
_cell_angle_beta   89.99953365
_cell_angle_gamma   90.00003397
_symmetry_Int_Tables_number   1
_chemical_formula_structural   CdH5C6N3Cl2
_chemical_formula_sum   'Cd2 H10 C12 N6 Cl4'
_cell_volume   425.58218587
_cell_formula_units_Z   2
loop_
 _symmetry_equiv_pos_site_id
 _symmetry_equiv_pos_as_xyz
  1  'x, y, z'
loop_
 _atom_site_type_symbol
 _atom_site_label
 _atom_site_symmetry_multiplicity
 _atom_site_fract_x
 _atom_site_fract_y
 _atom_site_fract_z
 _atom_site_occupancy
 _atom_site_hle17_bader_spin_density
 _atom_site_hle17_ddec_charge
 _atom_site_hle17_ddec_spin_density
 _atom_site_hle17_ddec_sum_bond_order
 _atom_site_hle17_magmom
 _atom_site_hse06_10hf_bader_spin_density
 _atom_site_hse06_10hf_ddec_charge
 _atom_site_hse06_10hf_ddec_spin_density
 _atom_site_hse06_10hf_ddec_sum_bond_order
 _atom_site_hse06_10hf_magmom
 _atom_site_hse06_bader_spin_density
 _atom_site_hse06_ddec_charge
 _atom_site_hse06_ddec_spin_density
 _atom_site_hse06_ddec_sum_bond_order
 _atom_site_hse06_magmom
 _atom_site_pbe_bader_spin_density
 _atom_site_pbe_cm5_charge
 _atom_site_pbe_ddec_charge
 _atom_site_pbe_ddec_spin_density
 _atom_site_pbe_ddec_sum_bond_order
 _atom_site_pbe_magmom
Cd  Cd0  1  0.71875911  0.51447142  0.34704862  1  0  0.948811  0  1.988445  0  0  0.794959  0  2.444262  0  0  0.840569  0  2.404931  0  0  0.561191  0.761962  0  2.472668  0
Cd  Cd1  1  0.21876206  0.48552383  0.65294440  1  0  0.948848  0  1.988437  0  0  0.795017  0  2.444247  0  0  0.840622  0  2.404924  0  0  0.561241  0.762026  0  2.472644  0
H  H2  1  0.45829404  0.57789203  0.07884461  1  0  0.121813  0  0.947854  0  0  0.132386  0  1.009592  0  0  0.135349  0  1.007751  0  0  0.118501  0.130424  0  1.010764  0
H  H3  1  0.95830226  0.42211100  0.92116231  1  0  0.121879  0  0.947738  0  0  0.13242  0  1.009498  0  0  0.135384  0  1.007654  0  0  0.118503  0.13046  0  1.010667  0
H  H4  1  0.15658526  0.79514954  0.98833549  1  0  0.123154  0  0.958615  0  0  0.131645  0  1.020658  0  0  0.134831  0  1.019163  0  0  0.098746  0.129089  0  1.022469  0
H  H5  1  0.65660908  0.20484678  0.01166969  1  0  0.123205  0  0.958414  0  0  0.131651  0  1.020499  0  0  0.134836  0  1.019003  0  0  0.098794  0.129104  0  1.022307  0
H  H6  1  0.06646300  0.04341249  0.07741591  1  0  0.092428  0  0.96997  0  0  0.104821  0  1.030235  0  0  0.106719  0  1.030396  0  0  0.101473  0.103588  0  1.030055  0
H  H7  1  0.56647738  0.95658491  0.92258365  1  0  0.092425  0  0.970017  0  0  0.104797  0  1.030312  0  0  0.106701  0  1.030454  0  0  0.10145  0.103561  0  1.030135  0
H  H8  1  0.25836275  0.18209930  0.30181517  1  0  0.116649  0  0.973926  0  0  0.124176  0  1.037971  0  0  0.126928  0  1.037096  0  0  0.092422  0.1216  0  1.03995  0
H  H9  1  0.75839600  0.81790191  0.69818532  1  0  0.116611  0  0.973904  0  0  0.124125  0  1.037948  0  0  0.126879  0  1.037071  0  0  0.092381  0.121565  0  1.039906  0
H  H10  1  0.54372445  0.07310561  0.43882236  1  0  0.114265  0  0.95136  0  0  0.114164  0  1.03079  0  0  0.118164  0  1.027025  0  0  0.123028  0.111481  0  1.033317  0
H  H11  1  0.04376490  0.92689978  0.56117933  1  0  0.114251  0  0.95138  0  0  0.114097  0  1.030934  0  0  0.118097  0  1.027168  0  0  0.123024  0.111412  0  1.033457  0
C  C12  1  0.49436924  0.67384632  0.15709689  1  0  -0.063078  0  3.700406  0  0  -0.112361  0  3.979564  0  0  -0.113327  0  3.998294  0  0  0.009185  -0.112316  0  3.967374  0
C  C13  1  0.99438991  0.32615267  0.84290486  1  0  -0.06331  0  3.700376  0  0  -0.112508  0  3.979574  0  0  -0.113475  0  3.998307  0  0  0.009178  -0.112463  0  3.967381  0
C  C14  1  0.40196985  0.80116476  0.16472442  1  0  0.134309  0  3.762911  0  0  0.117136  0  4.008207  0  0  0.121552  0  4.029482  0  0  0.099762  0.114371  0  3.994079  0
C  C15  1  0.90198258  0.19883534  0.83528423  1  0  0.134528  0  3.762613  0  0  0.117253  0  4.008025  0  0  0.121669  0  4.029304  0  0  0.099764  0.114489  0  3.993897  0
C  C16  1  0.23972996  0.85916780  0.08558038  1  0  -0.130972  0  3.726433  0  0  -0.150751  0  3.982761  0  0  -0.154986  0  4.002039  0  0  -0.084072  -0.14825  0  3.970443  0
C  C17  1  0.73975900  0.14083043  0.91442263  1  0  -0.131097  0  3.726273  0  0  -0.150799  0  3.982656  0  0  -0.155036  0  4.001934  0  0  -0.084144  -0.148314  0  3.97035  0
C  C18  1  0.19084798  0.99512757  0.13549131  1  0  -0.045074  0  3.750578  0  0  -0.063603  0  4.004674  0  0  -0.062814  0  4.024796  0  0  -0.084502  -0.064206  0  3.99106  0
C  C19  1  0.69086489  0.00486671  0.86450589  1  0  -0.045052  0  3.750625  0  0  -0.063582  0  4.004673  0  0  -0.062788  0  4.024793  0  0  -0.084462  -0.064185  0  3.991063  0
C  C20  1  0.29967869  0.07490387  0.26323325  1  0  -0.098057  0  3.743428  0  0  -0.113921  0  4.002406  0  0  -0.118427  0  4.024267  0  0  -0.089529  -0.110988  0  3.988809  0
C  C21  1  0.79970318  0.92509431  0.73676869  1  0  -0.098103  0  3.743241  0  0  -0.113902  0  4.002179  0  0  -0.11841  0  4.024035  0  0  -0.089525  -0.110975  0  3.98855  0
C  C22  1  0.45757447  0.01881884  0.33987711  1  0  0.036981  0  3.632073  0  0  -0.019984  0  3.893245  0  0  -0.017001  0  3.909695  0  0  0.03911  -0.021687  0  3.882041  0
C  C23  1  0.95760372  0.98118517  0.66012392  1  0  0.037087  0  3.631965  0  0  -0.019903  0  3.893117  0  0  -0.016916  0  3.909563  0  0  0.039134  -0.021616  0  3.881938  0
N  N24  1  0.50582089  0.88342775  0.28933427  1  0  0.051114  0  3.62118  0  0  0.166481  0  3.796339  0  0  0.161602  0  3.8176  0  0  -0.103884  0.169812  0  3.781841  0
N  N25  1  0.00584809  0.11657070  0.71066851  1  0  0.051042  0  3.620948  0  0  0.166451  0  3.796135  0  0  0.161569  0  3.817398  0  0  -0.103862  0.16978  0  3.781633  0
N  N26  1  0.65194408  0.81287465  0.35342791  1  0  -0.121882  0  2.792973  0  0  -0.140879  0  3.069226  0  0  -0.14307  0  3.083618  0  0  -0.106975  -0.139321  0  3.059197  0
N  N27  1  0.15195988  0.18713164  0.64657653  1  0  -0.121916  0  2.793057  0  0  -0.140926  0  3.06932  0  0  -0.143121  0  3.083719  0  0  -0.107036  -0.13937  0  3.059302  0
N  N28  1  0.63939855  0.68651273  0.27110893  1  0  -0.215641  0  3.297909  0  0  -0.154451  0  3.599351  0  0  -0.166324  0  3.619975  0  0  -0.224383  -0.145598  0  3.585376  0
N  N29  1  0.13941505  0.31349356  0.72889196  1  0  -0.215523  0  3.29804  0  0  -0.154358  0  3.59951  0  0  -0.166229  0  3.620139  0  0  -0.224351  -0.145511  0  3.585542  0
Cl  Cl30  1  0.21176198  0.38036236  0.18942158  1  0  -0.546328  0  0.99693  0  0  -0.480592  0  1.271752  0  0  -0.499141  0  1.252466  0  0  -0.294779  -0.46657  0  1.286593  0
Cl  Cl31  1  0.71174968  0.61963688  0.81056937  1  0  -0.546341  0  0.996928  0  0  -0.480604  0  1.271732  0  0  -0.499154  0  1.252447  0  0  -0.294792  -0.466582  0  1.286568  0
Cl  Cl32  1  0.71316134  0.35433752  0.48039987  1  0  -0.518523  0  1.183771  0  0  -0.449262  0  1.492862  0  0  -0.47065  0  1.473559  0  0  -0.255303  -0.43342  0  1.506741  0
Cl  Cl33  1  0.21314958  0.64565573  0.51959064  1  0  -0.518503  0  1.183783  0  0  -0.449195  0  1.492806  0  0  -0.470603  0  1.473535  0  0  -0.255286  -0.433353  0  1.506691  0
