# generated using pymatgen
data_Zn4H19C33N3O13
_symmetry_space_group_name_H-M   'P 1'
_cell_length_a   13.04270022
_cell_length_b   13.15667328
_cell_length_c   19.73333807
_cell_angle_alpha   79.53711227
_cell_angle_beta   79.35473994
_cell_angle_gamma   88.48813716
_symmetry_Int_Tables_number   1
_chemical_formula_structural   Zn4H19C33N3O13
_chemical_formula_sum   'Zn4 H19 C33 N3 O13'
_cell_volume   3272.51019201
_cell_formula_units_Z   1
loop_
 _symmetry_equiv_pos_site_id
 _symmetry_equiv_pos_as_xyz
  1  'x, y, z'
loop_
 _atom_site_type_symbol
 _atom_site_label
 _atom_site_symmetry_multiplicity
 _atom_site_fract_x
 _atom_site_fract_y
 _atom_site_fract_z
 _atom_site_occupancy
 _atom_site_pbe_bader_charge
 _atom_site_pbe_bader_spin_density
 _atom_site_pbe_cm5_charge
 _atom_site_pbe_ddec_charge
 _atom_site_pbe_ddec_spin_density
 _atom_site_pbe_ddec_sum_bond_order
 _atom_site_pbe_magmom
Zn  Zn0  1  0.58943417  0.57264942  0.54326496  1  1.30992  0  0.671853  0.960015  0  2.378659  0
Zn  Zn1  1  0.57516236  0.40608018  0.44042929  1  1.318771  0  0.676498  0.970384  0  2.353195  0
Zn  Zn2  1  0.43207703  0.59939112  0.43662009  1  1.315123  0  0.67119  0.957845  0  2.39281  0
Zn  Zn3  1  0.39747958  0.42097902  0.57843274  1  1.31751  0  0.676969  0.974622  0  2.334254  0
H  H4  1  0.37954001  0.64405308  0.11058123  1  0.078498  0  0.108324  0.113567  0  1.003847  0
H  H5  1  0.40312063  0.64118394  0.23277008  1  0.109826  0  0.112668  0.118516  0  0.987346  0
H  H6  1  0.52586176  0.29263028  0.90804531  1  0.094207  0  0.11508  0.12326  0  0.98018  0
H  H7  1  0.53665915  0.35050985  0.11261142  1  0.052309  0  0.10392  0.101245  0  1.004902  0
H  H8  1  0.54435618  0.38239548  0.00557628  1  0.071486  0  0.113134  0.114372  0  0.994343  0
H  H9  1  0.47941430  0.62143941  0.88930730  1  0.095963  0  0.108396  0.112493  0  1.03805  0
H  H10  1  0.38074675  0.74275454  0.83001203  1  0.064081  0  0.09155  0.126484  0  0.99975  0
H  H11  1  0.51588865  0.77318966  0.81443575  1  0.028807  0  0.089562  0.116024  0  0.996302  0
H  H12  1  0.43835308  0.82824274  0.75278433  1  0.036206  0  0.091888  0.120419  0  0.996938  0
H  H13  1  0.54605473  0.68486133  0.70922082  1  0.045341  0  0.099884  0.104851  0  0.970242  0
H  H14  1  0.41245179  0.66025816  0.72007652  1  0.035211  0  0.098301  0.097282  0  0.961734  0
H  H15  1  0.54043859  0.09127759  0.45951794  1  0.14071  0  0.112765  0.111354  0  0.976932  0
H  H16  1  0.49942978  0.89751121  0.57902686  1  0.108446  0  0.113366  0.112023  0  0.972329  0
H  H17  1  0.44233009  0.07734900  0.61595900  1  0.087188  0  0.116685  0.139256  0  0.97503  0
H  H18  1  0.53419887  0.92896769  0.41728541  1  0.110698  0  0.116439  0.135663  0  0.972649  0
H  H19  1  0.90371574  0.55536916  0.53032409  1  0.107581  0  0.121273  0.123745  0  0.974133  0
H  H20  1  0.10481644  0.50641092  0.42841477  1  0.111025  0  0.117704  0.12135  0  0.972252  0
H  H21  1  0.06661193  0.55331794  0.57922610  1  0.063079  0  0.121754  0.137071  0  0.964228  0
H  H22  1  0.55954823  0.34964940  0.23422862  1  0.110596  0  0.112014  0.116317  0  0.986095  0
C  C23  1  0.47580381  0.22395538  0.54195904  1  1.569093  0  0.223356  0.650614  0  4.168925  0
C  C24  1  0.49818058  0.44588843  0.98319823  1  -0.012138  0  -0.058603  -0.130213  0  3.882428  0
C  C25  1  0.44703559  0.50659954  0.02772703  1  0.083494  0  0.010203  0.011411  0  4.03942  0
C  C26  1  0.52098447  0.77408975  0.48034411  1  1.519396  0  0.222553  0.650765  0  4.173636  0
C  C27  1  0.48365545  0.49595118  0.24089555  1  0.006157  0  -0.015746  -0.040861  0  3.971392  0
C  C28  1  0.52641890  0.88767218  0.47125460  1  -0.080177  0  -0.085936  -0.227494  0  3.878943  0
C  C29  1  0.51280505  0.94008979  0.52511630  1  -0.037337  0  -0.066641  -0.024636  0  3.998205  0
C  C30  1  0.47613623  0.11004607  0.56181936  1  0.069895  0  -0.082822  -0.225857  0  3.865496  0
C  C31  1  0.51184186  0.05129345  0.51309680  1  -0.131066  0  -0.067894  -0.024151  0  4.011954  0
C  C32  1  0.10977830  0.54160123  0.52828175  1  -0.021785  0  -0.06316  -0.179958  0  3.828014  0
C  C33  1  0.05969800  0.52389628  0.47733078  1  0.003949  0  -0.071068  -0.047052  0  4.010941  0
C  C34  1  0.49897126  0.45603796  0.90835252  1  -0.023582  0  -0.007798  0.11286  0  4.072292  0
C  C35  1  0.89111976  0.48476146  0.44538445  1  0.105317  0  0.001816  -0.090632  0  3.983858  0
C  C36  1  0.94811590  0.52338178  0.48653865  1  0.033308  0  -0.045442  -0.035321  0  3.923234  0
C  C37  1  0.77442426  0.48893972  0.46096631  1  1.580476  0  0.234101  0.612797  0  4.185917  0
C  C38  1  0.22495908  0.53458050  0.52117414  1  1.589799  0  0.22577  0.64497  0  4.179587  0
C  C39  1  0.49694977  0.49712703  0.31415419  1  1.534265  0  0.226182  0.599934  0  4.174298  0
C  C40  1  0.49970145  0.48136178  0.68717133  1  1.603859  0  0.231902  0.612283  0  4.190316  0
C  C41  1  0.50049568  0.47355204  0.76390668  1  -0.007109  0  0.006691  -0.095761  0  3.868034  0
C  C42  1  0.48843930  0.56327249  0.79409552  1  0.064611  0  0.008015  0.116702  0  3.91496  0
C  C43  1  0.48753118  0.55243677  0.86578032  1  -0.047198  0  -0.074984  -0.161136  0  3.881752  0
C  C44  1  0.47516547  0.66768411  0.74955680  1  0.001133  0  -0.156382  -0.145608  0  3.974918  0
C  C45  1  0.51466077  0.36805839  0.87691522  1  -0.012539  0  -0.069799  -0.158858  0  3.903388  0
C  C46  1  0.45109367  0.75741006  0.78919752  1  -0.094322  0  -0.240334  -0.352532  0  3.970705  0
C  C47  1  0.93930896  0.43473579  0.38961761  1  0.838524  0  0.172714  0.256744  0  4.051045  0
C  C48  1  0.37732135  0.58516427  0.00364265  1  0.835374  0  0.181428  0.237074  0  4.03815  0
C  C49  1  0.52816590  0.28623841  0.77360819  1  0.828092  0  0.172578  0.235057  0  4.026543  0
C  C50  1  0.51364819  0.37639356  0.80521302  1  0.115297  0  0.009547  0.049426  0  4.084537  0
C  C51  1  0.50780228  0.41539515  0.13792811  1  -0.037639  0  -0.084982  -0.129162  0  3.972476  0
C  C52  1  0.52068959  0.41407345  0.20645399  1  -0.071238  0  -0.074228  -0.075407  0  3.966906  0
C  C53  1  0.43228639  0.57819734  0.20574703  1  -0.008013  0  -0.07465  -0.072303  0  3.968261  0
C  C54  1  0.41922045  0.57931572  0.13741671  1  0.015242  0  -0.083116  -0.125569  0  3.95617  0
C  C55  1  0.45772229  0.49872456  0.10183174  1  -0.032283  0  0.000709  0.080983  0  3.999967  0
N  N56  1  0.98141568  0.39368051  0.34443429  1  -1.109586  0  -0.315302  -0.359947  0  2.654262  0
N  N57  1  0.31816029  0.64883511  0.98676543  1  -1.128652  0  -0.312219  -0.362937  0  2.675767  0
N  N58  1  0.54090638  0.21286071  0.74751500  1  -1.125276  0  -0.317388  -0.362279  0  2.681052  0
O  O59  1  0.49829446  0.49782204  0.50054674  1  -1.235941  0  -0.572152  -1.033129  0  2.532919  0
O  O60  1  0.54287033  0.42062239  0.34560231  1  -1.164331  0  -0.311971  -0.542453  0  2.316345  0
O  O61  1  0.42108110  0.44274959  0.67135249  1  -1.151871  0  -0.299279  -0.528003  0  2.309626  0
O  O62  1  0.46094302  0.57586645  0.34005199  1  -1.173488  0  -0.315559  -0.546809  0  2.357512  0
O  O63  1  0.57773586  0.52712454  0.64529271  1  -1.160569  0  -0.306374  -0.535843  0  2.315509  0
O  O64  1  0.73527076  0.54837604  0.50326547  1  -1.170414  0  -0.315648  -0.547656  0  2.342258  0
O  O65  1  0.25776165  0.48026519  0.57327321  1  -1.167128  0  -0.312884  -0.542535  0  2.277131  0
O  O66  1  0.53851039  0.26404639  0.48633180  1  -1.184877  0  -0.319215  -0.557469  0  2.332271  0
O  O67  1  0.48424687  0.73910134  0.43315137  1  -1.162076  0  -0.319282  -0.549986  0  2.284355  0
O  O68  1  0.41151560  0.27214915  0.58209373  1  -1.153737  0  -0.315822  -0.545358  0  2.288451  0
O  O69  1  0.55232549  0.72004507  0.53333751  1  -1.172245  0  -0.320376  -0.558989  0  2.293769  0
O  O70  1  0.72618800  0.43282320  0.43078811  1  -1.16149  0  -0.302914  -0.525855  0  2.315655  0
O  O71  1  0.27927175  0.58209748  0.46442600  1  -1.171761  0  -0.308816  -0.53802  0  2.298803  0
