# generated using pymatgen
data_CdH7C8O6F
_symmetry_space_group_name_H-M   'P 1'
_cell_length_a   6.89184371
_cell_length_b   7.23032771
_cell_length_c   10.84511111
_cell_angle_alpha   103.39731133
_cell_angle_beta   93.62954837
_cell_angle_gamma   115.54356328
_symmetry_Int_Tables_number   1
_chemical_formula_structural   CdH7C8O6F
_chemical_formula_sum   'Cd2 H14 C16 O12 F2'
_cell_volume   466.05144686
_cell_formula_units_Z   2
loop_
 _symmetry_equiv_pos_site_id
 _symmetry_equiv_pos_as_xyz
  1  'x, y, z'
loop_
 _atom_site_type_symbol
 _atom_site_label
 _atom_site_symmetry_multiplicity
 _atom_site_fract_x
 _atom_site_fract_y
 _atom_site_fract_z
 _atom_site_occupancy
 _atom_site_hle17_bader_spin_density
 _atom_site_hle17_ddec_charge
 _atom_site_hle17_ddec_spin_density
 _atom_site_hle17_ddec_sum_bond_order
 _atom_site_hle17_magmom
 _atom_site_hse06_10hf_bader_spin_density
 _atom_site_hse06_10hf_ddec_charge
 _atom_site_hse06_10hf_ddec_spin_density
 _atom_site_hse06_10hf_ddec_sum_bond_order
 _atom_site_hse06_10hf_magmom
 _atom_site_hse06_bader_spin_density
 _atom_site_hse06_ddec_charge
 _atom_site_hse06_ddec_spin_density
 _atom_site_hse06_ddec_sum_bond_order
 _atom_site_hse06_magmom
 _atom_site_pbe_bader_spin_density
 _atom_site_pbe_cm5_charge
 _atom_site_pbe_ddec_charge
 _atom_site_pbe_ddec_spin_density
 _atom_site_pbe_ddec_sum_bond_order
 _atom_site_pbe_magmom
Cd  Cd0  1  0.22956146  0.69227604  0.43953043  1  0  1.304384  0  1.559752  0  0  1.131968  0  2.009342  0  0  1.188973  0  1.947159  0  0  0.787041  1.090746  0  2.052624  0
Cd  Cd1  1  0.77043612  0.30772139  0.56046955  1  0  1.304352  0  1.559802  0  0  1.131915  0  2.009407  0  0  1.188928  0  1.947208  0  0  0.787026  1.090694  0  2.052689  0
H  H2  1  0.79319715  0.01996216  0.14978755  1  0  0.116835  0  0.968733  0  0  0.119585  0  1.039627  0  0  0.124663  0  1.035068  0  0  0.104626  0.116437  0  1.042258  0
H  H3  1  0.20680343  0.98004169  0.85021815  1  0  0.116878  0  0.968667  0  0  0.11961  0  1.039586  0  0  0.12469  0  1.035023  0  0  0.104656  0.116465  0  1.042214  0
H  H4  1  0.82108490  0.82600754  0.93541251  1  0  0.102988  0  0.946863  0  0  0.110798  0  1.009886  0  0  0.114334  0  1.007655  0  0  0.105131  0.108228  0  1.011711  0
H  H5  1  0.17891716  0.17400269  0.06459054  1  0  0.102964  0  0.946762  0  0  0.110773  0  1.009799  0  0  0.114308  0  1.00757  0  0  0.10512  0.108207  0  1.011621  0
H  H6  1  0.78422552  0.45671806  0.89842454  1  0  0.134959  0  0.942376  0  0  0.141219  0  1.00903  0  0  0.145212  0  1.006195  0  0  0.108386  0.13848  0  1.010826  0
H  H7  1  0.21578163  0.54329378  0.10157342  1  0  0.134903  0  0.94243  0  0  0.141169  0  1.009086  0  0  0.145163  0  1.006247  0  0  0.108334  0.138429  0  1.010876  0
H  H8  1  0.02979141  0.25575876  0.32828222  1  0  0.423294  0  0.88041  0  0  0.390349  0  0.947933  0  0  0.401593  0  0.931701  0  0  0.287752  0.38236  0  0.959417  0
H  H9  1  0.97020617  0.74423550  0.67172189  1  0  0.423317  0  0.880399  0  0  0.390365  0  0.947931  0  0  0.40161  0  0.931698  0  0  0.287727  0.382376  0  0.959417  0
H  H10  1  0.27224316  0.33841654  0.29850666  1  0  0.423913  0  0.880108  0  0  0.393314  0  0.943129  0  0  0.403737  0  0.928252  0  0  0.290118  0.385959  0  0.953606  0
H  H11  1  0.72775370  0.66157930  0.70149490  1  0  0.423922  0  0.880099  0  0  0.393315  0  0.943132  0  0  0.403739  0  0.928254  0  0  0.290106  0.385965  0  0.953602  0
H  H12  1  0.10629800  0.85224212  0.24693363  1  0  0.401511  0  0.88314  0  0  0.374291  0  0.959041  0  0  0.381204  0  0.94961  0  0  0.29537  0.369364  0  0.963916  0
H  H13  1  0.89370029  0.14775371  0.75306337  1  0  0.401521  0  0.883135  0  0  0.374302  0  0.959028  0  0  0.381216  0  0.949595  0  0  0.295373  0.369375  0  0.963918  0
H  H14  1  0.35170529  0.02183877  0.30190589  1  0  0.444458  0  0.849562  0  0  0.4101  0  0.91795  0  0  0.421474  0  0.901302  0  0  0.295624  0.402024  0  0.929764  0
H  H15  1  0.64829301  0.97815707  0.69809204  1  0  0.444472  0  0.849569  0  0  0.410113  0  0.917954  0  0  0.421487  0  0.901305  0  0  0.295626  0.402038  0  0.929765  0
C  C16  1  0.73241763  0.45140607  0.09133239  1  0  0.291287  0  3.767724  0  0  0.26994  0  4.051836  0  0  0.281682  0  4.061383  0  0  0.100715  0.263128  0  4.044041  0
C  C17  1  0.26758582  0.54859777  0.90866512  1  0  0.291345  0  3.767623  0  0  0.26996  0  4.051756  0  0  0.281703  0  4.061302  0  0  0.10073  0.263149  0  4.043963  0
C  C18  1  0.71553334  0.55413580  0.21311030  1  0  -0.181359  0  3.729338  0  0  -0.17582  0  3.972469  0  0  -0.181521  0  3.98905  0  0  -0.017769  -0.171557  0  3.960256  0
C  C19  1  0.28446715  0.44586164  0.78688703  1  0  -0.181256  0  3.729275  0  0  -0.175708  0  3.972303  0  0  -0.181405  0  3.988883  0  0  -0.017717  -0.171447  0  3.960106  0
C  C20  1  0.74196187  0.76439552  0.23418930  1  0  -0.083974  0  3.762032  0  0  -0.063074  0  3.991392  0  0  -0.068362  0  4.011369  0  0  -0.01907  -0.059739  0  3.97821  0
C  C21  1  0.25803793  0.23560353  0.76581286  1  0  -0.084062  0  3.76199  0  0  -0.063158  0  3.991334  0  0  -0.068444  0  4.011313  0  0  -0.019132  -0.059824  0  3.978158  0
C  C22  1  0.78074954  0.86086118  0.13384178  1  0  -0.10143  0  3.732123  0  0  -0.1332  0  3.99381  0  0  -0.132687  0  4.009066  0  0  -0.094878  -0.133132  0  3.982738  0
C  C23  1  0.21925029  0.13914106  0.86616180  1  0  -0.101458  0  3.732048  0  0  -0.133238  0  3.993778  0  0  -0.132726  0  4.00903  0  0  -0.094901  -0.133172  0  3.982711  0
C  C24  1  0.79544474  0.75178284  0.01348994  1  0  -0.026397  0  3.737157  0  0  -0.043264  0  4.000751  0  0  -0.043113  0  4.018236  0  0  -0.082616  -0.043092  0  3.988522  0
C  C25  1  0.20455583  0.24822418  0.98651071  1  0  -0.026276  0  3.736914  0  0  -0.043146  0  4.000511  0  0  -0.043004  0  4.018013  0  0  -0.082561  -0.042977  0  3.988283  0
C  C26  1  0.77332170  0.54538640  0.99145111  1  0  -0.159923  0  3.72632  0  0  -0.190667  0  3.993051  0  0  -0.193042  0  4.009854  0  0  -0.090928  -0.188263  0  3.980348  0
C  C27  1  0.22668324  0.45462064  0.00854787  1  0  -0.159967  0  3.726213  0  0  -0.190691  0  3.992921  0  0  -0.193065  0  4.009724  0  0  -0.090915  -0.188283  0  3.980211  0
C  C28  1  0.67336783  0.43870716  0.31532979  1  0  0.73059  0  3.851921  0  0  0.665324  0  4.163352  0  0  0.702801  0  4.150339  0  0  0.224172  0.640024  0  4.170692  0
C  C29  1  0.32662900  0.56128866  0.68466715  1  0  0.730499  0  3.852158  0  0  0.665358  0  4.163345  0  0  0.702833  0  4.150334  0  0  0.224185  0.640052  0  4.170708  0
C  C30  1  0.71323503  0.88203620  0.35966121  1  0  0.690309  0  3.876243  0  0  0.636586  0  4.168504  0  0  0.672056  0  4.160454  0  0  0.218073  0.612458  0  4.173264  0
C  C31  1  0.28675964  0.11796121  0.64033866  1  0  0.690238  0  3.876166  0  0  0.636505  0  4.168442  0  0  0.671967  0  4.160406  0  0  0.218083  0.612381  0  4.173197  0
O  O32  1  0.48721249  0.28256472  0.30163803  1  0  -0.638421  0  2.012771  0  0  -0.576085  0  2.239691  0  0  -0.601397  0  2.22551  0  0  -0.301699  -0.557896  0  2.248467  0
O  O33  1  0.51278797  0.71742953  0.69835789  1  0  -0.638369  0  2.012824  0  0  -0.57608  0  2.239673  0  0  -0.601389  0  2.22549  0  0  -0.301666  -0.557886  0  2.248445  0
O  O34  1  0.83255336  0.50234471  0.40768441  1  0  -0.680879  0  2.087104  0  0  -0.599567  0  2.355225  0  0  -0.633402  0  2.341878  0  0  -0.318093  -0.575599  0  2.363368  0
O  O35  1  0.16744056  0.49765109  0.59231426  1  0  -0.680884  0  2.087217  0  0  -0.599637  0  2.355314  0  0  -0.633475  0  2.34197  0  0  -0.318117  -0.575656  0  2.363437  0
O  O36  1  0.58609297  0.77583138  0.42429369  1  0  -0.657784  0  2.03971  0  0  -0.595382  0  2.299286  0  0  -0.623103  0  2.285589  0  0  -0.328658  -0.575883  0  2.308168  0
O  O37  1  0.41390606  0.22416288  0.57570679  1  0  -0.657746  0  2.039632  0  0  -0.595322  0  2.299193  0  0  -0.623045  0  2.285514  0  0  -0.328678  -0.575823  0  2.30807  0
O  O38  1  0.81914771  0.08693104  0.39204448  1  0  -0.665334  0  2.077507  0  0  -0.588705  0  2.324849  0  0  -0.619237  0  2.312057  0  0  -0.314369  -0.567218  0  2.332954  0
O  O39  1  0.18085207  0.91306482  0.60795719  1  0  -0.665317  0  2.077494  0  0  -0.588682  0  2.324826  0  0  -0.619213  0  2.312044  0  0  -0.314352  -0.567198  0  2.332931  0
O  O40  1  0.14260533  0.36606716  0.29606465  1  0  -0.839049  0  1.871167  0  0  -0.775679  0  2.070662  0  0  -0.800852  0  2.038152  0  0  -0.585953  -0.757503  0  2.093015  0
O  O41  1  0.85739225  0.63392709  0.70393761  1  0  -0.839086  0  1.871191  0  0  -0.775692  0  2.070685  0  0  -0.800868  0  2.038175  0  0  -0.585916  -0.75752  0  2.093039  0
O  O42  1  0.24809724  0.86625303  0.28136754  1  0  -0.828546  0  1.864579  0  0  -0.767533  0  2.068729  0  0  -0.789458  0  2.037208  0  0  -0.57523  -0.751812  0  2.08875  0
O  O43  1  0.75190107  0.13374281  0.71863223  1  0  -0.82856  0  1.864603  0  0  -0.767546  0  2.068749  0  0  -0.789472  0  2.037224  0  0  -0.575226  -0.751823  0  2.088776  0
F  F44  1  0.70864686  0.24863147  0.06916498  1  0  -0.201419  0  1.22045  0  0  -0.134477  0  1.371157  0  0  -0.151532  0  1.370096  0  0  -0.087749  -0.127504  0  1.377175  0
F  F45  1  0.29136241  0.75137240  0.93083000  1  0  -0.201445  0  1.22045  0  0  -0.134505  0  1.371175  0  0  -0.151565  0  1.370118  0  0  -0.087782  -0.127533  0  1.377191  0
