# generated using pymatgen
data_Zn8H41C78N9O26
_symmetry_space_group_name_H-M   'P 1'
_cell_length_a   18.22168693
_cell_length_b   18.66185044
_cell_length_c   18.33408087
_cell_angle_alpha   60.27028922
_cell_angle_beta   60.09634622
_cell_angle_gamma   60.19847643
_symmetry_Int_Tables_number   1
_chemical_formula_structural   Zn8H41C78N9O26
_chemical_formula_sum   'Zn8 H41 C78 N9 O26'
_cell_volume   4427.25018244
_cell_formula_units_Z   1
loop_
 _symmetry_equiv_pos_site_id
 _symmetry_equiv_pos_as_xyz
  1  'x, y, z'
loop_
 _atom_site_type_symbol
 _atom_site_label
 _atom_site_symmetry_multiplicity
 _atom_site_fract_x
 _atom_site_fract_y
 _atom_site_fract_z
 _atom_site_occupancy
 _atom_site_pbe_bader_charge
 _atom_site_pbe_bader_spin_density
 _atom_site_pbe_cm5_charge
 _atom_site_pbe_ddec_charge
 _atom_site_pbe_ddec_spin_density
 _atom_site_pbe_ddec_sum_bond_order
 _atom_site_pbe_magmom
Zn  Zn0  1  0.53931456  0.86940304  0.05385958  1  1.313649  0  0.682269  0.970664  0  2.34386  0
Zn  Zn1  1  0.55351999  0.03808344  0.87333406  1  1.30891  0  0.670417  0.955625  0  2.370655  0
Zn  Zn2  1  0.54562736  0.03803915  0.05114673  1  1.31735  0  0.681608  0.956792  0  2.410219  0
Zn  Zn3  1  0.37119030  0.04608563  0.04228421  1  1.315952  0  0.67244  0.953021  0  2.384552  0
Zn  Zn4  1  0.95639667  0.63139496  0.46436182  1  1.327782  0  0.680679  0.973218  0  2.350087  0
Zn  Zn5  1  0.95328252  0.46076766  0.45868054  1  1.316519  0  0.682177  0.969129  0  2.339604  0
Zn  Zn6  1  0.95858507  0.45801141  0.63106936  1  1.299966  0  0.672655  0.953184  0  2.384815  0
Zn  Zn7  1  0.13240128  0.46306027  0.44901367  1  1.314426  0  0.673779  0.96604  0  2.357787  0
H  H8  1  0.40654787  0.69962605  0.21243702  1  0.113752  0  0.121553  0.132324  0  0.976628  0
H  H9  1  0.18060813  0.98722217  0.16754548  1  0.124631  0  0.108067  0.129369  0  1.031138  0
H  H10  1  0.33129265  0.30262192  0.57677671  1  0.107783  0  0.116253  0.123701  0  0.979249  0
H  H11  1  0.13885739  0.14487780  0.95173011  1  0.128785  0  0.129618  0.130603  0  0.931014  0
H  H12  1  0.74528453  0.35254462  0.81007973  1  0.080796  0  0.109133  0.119074  0  0.995356  0
H  H13  1  0.92490528  0.16812222  0.59314643  1  0.100545  0  0.118803  0.109271  0  0.940581  0
H  H14  1  0.74272762  0.16007563  0.63693149  1  0.078712  0  0.108926  0.090024  0  0.947778  0
H  H15  1  0.74225686  0.59259223  0.81784630  1  0.117162  0  0.124234  0.137983  0  0.970211  0
H  H16  1  0.81044118  0.92114966  0.68539593  1  0.060557  0  0.103065  0.121956  0  1.008817  0
H  H17  1  0.73111919  0.95995463  0.63291899  1  0.085092  0  0.112029  0.13819  0  0.958895  0
H  H18  1  0.31627411  0.59848788  0.30290117  1  0.12495  0  0.119622  0.127021  0  0.972682  0
H  H19  1  0.74288184  0.87462279  0.35316970  1  0.059445  0  0.096528  0.116773  0  0.992821  0
H  H20  1  0.66710752  0.81398278  0.42755107  1  0.032253  0  0.089795  0.095127  0  0.990735  0
H  H21  1  0.06651586  0.16597465  0.85622354  1  0.04296  0  0.098571  0.136715  0  0.987857  0
H  H22  1  0.97112346  0.22255969  0.92947087  1  0.057  0  0.104277  0.148434  0  0.976383  0
H  H23  1  0.99285887  0.27071808  0.81208820  1  0.056101  0  0.102093  0.15691  0  0.996246  0
H  H24  1  0.56363572  0.27163012  0.95063113  1  0.060387  0  0.094944  0.138866  0  0.99071  0
H  H25  1  0.65535004  0.20720413  0.98862829  1  0.084263  0  0.103438  0.157046  0  0.978265  0
H  H26  1  0.63188747  0.32232174  0.93835988  1  0.030473  0  0.095009  0.133033  0  0.991033  0
H  H27  1  0.04926062  0.10781738  0.15473826  1  0.054643  0  0.096225  0.136787  0  1.004516  0
H  H28  1  0.97357165  0.09709344  0.12859621  1  0.073502  0  0.098795  0.137658  0  0.992571  0
H  H29  1  0.95246082  0.08034553  0.23952235  1  0.069212  0  0.109137  0.156948  0  0.960553  0
H  H30  1  0.57394553  0.90502915  0.32650646  1  0.041491  0  0.089231  0.092951  0  0.991805  0
H  H31  1  0.88989659  0.03414523  0.72412853  1  0.022663  0  0.091262  0.122497  0  0.996056  0
H  H32  1  0.79376634  0.01311737  0.74810740  1  0.074166  0  0.092685  0.132965  0  1.010183  0
H  H33  1  0.87771794  0.02226695  0.64043719  1  0.040949  0  0.089083  0.118484  0  1.007122  0
H  H34  1  0.97273746  0.86557411  0.55475535  1  0.037309  0  0.097136  0.134541  0  0.98953  0
H  H35  1  0.95131234  0.78622184  0.66363459  1  0.063785  0  0.099551  0.138965  0  0.983712  0
H  H36  1  0.99003667  0.75756270  0.56785115  1  0.030153  0  0.100475  0.149353  0  0.987267  0
H  H37  1  0.77235404  0.74501112  0.04999168  1  0.060924  0  0.085235  0.128266  0  1.042792  0
H  H38  1  0.88685371  0.70903879  0.03933994  1  0.056916  0  0.090088  0.120697  0  1.005351  0
H  H39  1  0.82538471  0.63626760  0.10939870  1  0.06064  0  0.102754  0.14925  0  0.970918  0
H  H40  1  0.96708601  0.63099175  0.12109007  1  0.02384  0  0.088937  0.122607  0  1.006299  0
H  H41  1  0.64932316  0.96611909  0.25296583  1  0.093635  0  0.09936  0.116394  0  0.979171  0
H  H42  1  0.97715309  0.58840437  0.22721319  1  0.062672  0  0.084826  0.12568  0  1.030501  0
H  H43  1  0.91709432  0.55183133  0.20819440  1  0.087714  0  0.093271  0.146866  0  1.02806  0
H  H44  1  0.31346881  0.30982993  0.28827793  1  0.130022  0  0.121198  0.135257  0  0.97713  0
H  H45  1  0.03074864  0.22994827  0.36891076  1  0.124306  0  0.118981  0.110113  0  0.956424  0
H  H46  1  0.13048273  0.13114260  0.27619429  1  0.059482  0  0.103491  0.119025  0  0.971554  0
H  H47  1  0.12259344  0.22384835  0.17687973  1  0.154602  0  0.104777  0.138331  0  1.029032  0
H  H48  1  0.42720947  0.20485738  0.67290739  1  0.102608  0  0.115885  0.123066  0  0.979449  0
C  C49  1  0.37325542  0.13613496  0.85531094  1  1.554253  0  0.230043  0.608002  0  4.178564  0
C  C50  1  0.71798568  0.80761147  0.17911489  1  0.00902  0  -0.018596  -0.14776  0  3.970931  0
C  C51  1  0.79308353  0.73251046  0.16317925  1  0.042929  0  0.001332  0.10032  0  3.875227  0
C  C52  1  0.65145543  0.86013072  0.13207302  1  1.496354  0  0.232062  0.62514  0  4.144946  0
C  C53  1  0.84742315  0.68260752  0.21824859  1  -0.017488  0  0.007976  0.113012  0  3.859104  0
C  C54  1  0.82471061  0.70417301  0.29293165  1  0.021537  0  -0.010884  -0.128902  0  3.948169  0
C  C55  1  0.75582949  0.78221540  0.30193497  1  -0.003241  0  -0.008936  0.057479  0  3.920698  0
C  C56  1  0.70361421  0.84256925  0.35708413  1  -0.001078  0  -0.153467  -0.196213  0  3.872797  0
C  C57  1  0.64509293  0.90009283  0.29362619  1  -0.040194  0  -0.15298  -0.195017  0  3.880465  0
C  C58  1  0.20952018  0.21215471  0.23644134  1  0.001974  0  0.007297  0.081821  0  3.901191  0
C  C59  1  0.30231798  0.19149353  0.20000688  1  -0.017523  0  0.003192  -0.100845  0  3.908329  0
C  C60  1  0.06722842  0.82524475  0.23327010  1  0.140016  0  0.025534  0.007326  0  4.013492  0
C  C61  1  0.33899783  0.22903930  0.21989600  1  0.046975  0  0.020578  0.055365  0  4.035313  0
C  C62  1  0.28337836  0.28243900  0.27397197  1  0.026475  0  -0.059371  -0.116779  0  3.882279  0
C  C63  1  0.18970911  0.30279736  0.30964546  1  -0.023035  0  -0.001849  -0.052786  0  3.970194  0
C  C64  1  0.62972693  0.85833195  0.87099200  1  1.574929  0  0.229699  0.606418  0  4.180843  0
C  C65  1  0.15490623  0.26660682  0.28855143  1  0.009493  0  0.012743  0.035982  0  3.844821  0
C  C66  1  0.06845782  0.26116143  0.30002445  1  0.095262  0  -0.041068  -0.034812  0  3.883019  0
C  C67  1  0.13217570  0.19834132  0.24095220  1  -0.038458  0  -0.13849  -0.228678  0  3.801299  0
C  C68  1  0.22368186  0.21915927  0.83116032  1  0.0622  0  0.00446  0.036024  0  3.908179  0
C  C69  1  0.31708684  0.19270048  0.79650403  1  0.013269  0  -0.003761  -0.056772  0  3.957009  0
C  C70  1  0.35436667  0.22384414  0.70292649  1  -0.037887  0  -0.068774  -0.081899  0  3.935261  0
C  C71  1  0.15286621  0.79069021  0.24328055  1  -0.015436  0  0.014676  0.02952  0  3.911868  0
C  C72  1  0.30051006  0.27863517  0.64894126  1  0.033646  0  -0.067901  -0.081951  0  3.93362  0
C  C73  1  0.20612448  0.30512803  0.68514111  1  0.00565  0  -0.003198  -0.049489  0  3.948716  0
C  C74  1  0.17022599  0.27267532  0.77774877  1  -0.071819  0  0.005245  -0.002114  0  3.869419  0
C  C75  1  0.08139856  0.27410778  0.85602040  1  0.14312  0  0.038355  0.137469  0  3.831044  0
C  C76  1  0.35855600  0.13490680  0.14292991  1  1.600725  0  0.230551  0.606629  0  4.186473  0
C  C77  1  0.14489964  0.21060653  0.91804047  1  0.075584  0  -0.033529  -0.097598  0  3.865692  0
C  C78  1  0.75329949  0.19437075  0.72941548  1  -0.071717  0  -0.003713  0.023793  0  3.921544  0
C  C79  1  0.69580625  0.19529732  0.81542987  1  0.053266  0  -0.010103  -0.129722  0  3.909815  0
C  C80  1  0.69261486  0.25489143  0.84484352  1  0.015383  0  0.014313  0.178278  0  3.909512  0
C  C81  1  0.74752427  0.30758263  0.78689698  1  -0.023171  0  -0.080731  -0.162022  0  3.908614  0
C  C82  1  0.19899867  0.85084912  0.20767266  1  -0.012707  0  0.009962  0.079395  0  3.949824  0
C  C83  1  0.80527060  0.30603504  0.70035293  1  0.007482  0  -0.009056  -0.051931  0  4.005043  0
C  C84  1  0.80582658  0.24788717  0.67347379  1  0.020056  0  -0.005131  0.012516  0  3.918839  0
C  C85  1  0.85352279  0.20622350  0.60089267  1  0.073202  0  -0.046384  -0.077761  0  3.903315  0
C  C86  1  0.79125876  0.14566385  0.66530006  1  0.02479  0  -0.062413  0.028225  0  3.807062  0
C  C87  1  0.74442135  0.82628539  0.73078091  1  -0.079689  0  0.003066  0.077466  0  3.930447  0
C  C88  1  0.64249898  0.13496566  0.87049011  1  1.530805  0  0.230379  0.613554  0  4.165553  0
C  C89  1  0.68515760  0.79942606  0.81594805  1  0.112328  0  0.005255  -0.098028  0  3.900591  0
C  C90  1  0.68501065  0.71287644  0.84590725  1  0.036969  0  0.024858  0.060089  0  4.019396  0
C  C91  1  0.74359107  0.65865890  0.79250345  1  0.027774  0  -0.051572  -0.107794  0  3.857791  0
C  C92  1  0.80401741  0.68706604  0.70738473  1  0.023842  0  0.002008  -0.038782  0  3.95443  0
C  C93  1  0.29346082  0.81526677  0.19494604  1  0.007811  0  -0.006051  -0.081634  0  3.895811  0
C  C94  1  0.80187521  0.77226074  0.67866201  1  0.046903  0  0.011793  0.006762  0  3.831841  0
C  C95  1  0.84974464  0.83856831  0.60479969  1  0.139582  0  0.026474  0.151572  0  3.854709  0
C  C96  1  0.77915635  0.90153259  0.66349535  1  -0.011027  0  -0.137116  -0.26004  0  3.801597  0
C  C97  1  0.13370827  0.36036902  0.36608711  1  1.597057  0  0.230898  0.606912  0  4.1845  0
C  C98  1  0.86566216  0.62993320  0.65072111  1  1.589455  0  0.233288  0.605835  0  4.176543  0
C  C99  1  0.86701973  0.64547887  0.36300678  1  1.501805  0  0.234922  0.630804  0  4.138173  0
C  C100  1  0.35341292  0.86997972  0.14379992  1  1.589766  0  0.231835  0.608453  0  4.151309  0
C  C101  1  0.14785330  0.36554048  0.62855623  1  1.559923  0  0.231378  0.608012  0  4.175481  0
C  C102  1  0.86259301  0.36259174  0.64297291  1  1.527358  0  0.229486  0.609379  0  4.178913  0
C  C103  1  0.14142890  0.63872025  0.34911983  1  1.593639  0  0.229294  0.600914  0  4.177625  0
C  C104  1  0.33457586  0.72529860  0.22499579  1  -0.00947  0  -0.06281  -0.062073  0  3.939511  0
C  C105  1  0.14811332  0.94167733  0.18784302  1  -0.047593  0  -0.085455  -0.190866  0  3.919385  0
C  C106  1  0.05961962  0.97460452  0.19290543  1  0.052692  0  0.007177  0.150027  0  3.973148  0
C  C107  1  0.02083894  0.91531506  0.20978926  1  0.111829  0  0.024834  -0.010986  0  4.000705  0
C  C108  1  0.43265856  0.21702421  0.18580501  1  0.870171  0  0.174797  0.233459  0  4.033633  0
C  C109  1  0.00732635  0.34190770  0.25970240  1  0.879947  0  0.180356  0.264657  0  3.962201  0
C  C110  1  0.02776123  0.36049607  0.86541925  1  0.898023  0  0.17344  0.222289  0  3.946234  0
C  C111  1  0.02410120  0.23057097  0.86399772  1  -0.029752  0  -0.227037  -0.421931  0  3.893886  0
C  C112  1  0.13451292  0.24021294  0.98319567  1  0.844181  0  0.181617  0.261418  0  3.995361  0
C  C113  1  0.63283220  0.26479412  0.93500890  1  -0.049045  0  -0.238348  -0.421075  0  3.96819  0
C  C114  1  0.84459664  0.25918083  0.51347310  1  0.843763  0  0.168918  0.245432  0  4.004064  0
C  C115  1  0.28481424  0.66814693  0.27271238  1  -0.098004  0  -0.065681  -0.072755  0  3.946617  0
C  C116  1  0.00658149  0.07011241  0.17752656  1  -0.073673  0  -0.230353  -0.418435  0  3.954264  0
C  C117  1  0.84127490  0.04805831  0.69611213  1  -0.088611  0  -0.239734  -0.392141  0  3.96798  0
C  C118  1  0.62413670  0.67755639  0.92971018  1  0.862139  0  0.174236  0.238182  0  4.026322  0
C  C119  1  0.94747102  0.81012431  0.59710021  1  -0.02639  0  -0.226931  -0.414273  0  3.894748  0
C  C120  1  0.84274793  0.87134788  0.51712478  1  0.837803  0  0.17581  0.22799  0  3.944113  0
C  C121  1  0.93600841  0.94852930  0.19951534  1  0.833324  0  0.181726  0.23568  0  4.031289  0
C  C122  1  0.03622052  0.76871436  0.23317606  1  0.825832  0  0.180543  0.235937  0  4.041474  0
C  C123  1  0.81996673  0.70496719  0.08627542  1  -0.094203  0  -0.242474  -0.410771  0  3.977974  0
C  C124  1  0.93128255  0.60941170  0.19320234  1  -0.056337  0  -0.248345  -0.41593  0  3.975342  0
C  C125  1  0.19465169  0.69954834  0.28349786  1  0.045388  0  -0.00104  -0.058179  0  3.912602  0
C  C126  1  0.70467018  0.83287137  0.24602793  1  -0.039525  0  -0.011674  0.053863  0  3.928075  0
N  N127  1  0.50669034  0.21355244  0.16162131  1  -1.101608  0  -0.302424  -0.345262  0  2.691946  0
N  N128  1  0.96027565  0.40553461  0.22364017  1  -1.138737  0  -0.298313  -0.356528  0  2.7576  0
N  N129  1  0.98477467  0.43035127  0.87090061  1  -1.125347  0  -0.311335  -0.348511  0  2.684065  0
N  N130  1  0.12504396  0.26376716  0.03641938  1  -1.107547  0  -0.28869  -0.347686  0  2.77111  0
N  N131  1  0.83666140  0.29808562  0.44320601  1  -1.134514  0  -0.315334  -0.372737  0  2.740748  0
N  N132  1  0.57508725  0.64453545  0.99527683  1  -1.108788  0  -0.313882  -0.353453  0  2.663587  0
N  N133  1  0.83916433  0.89980719  0.44572616  1  -1.125369  0  -0.314608  -0.366988  0  2.725196  0
N  N134  1  0.86700992  0.97785947  0.18925156  1  -1.080301  0  -0.2868  -0.327963  0  2.667351  0
N  N135  1  0.01810795  0.72196796  0.22472909  1  -1.087081  0  -0.284552  -0.329813  0  2.745381  0
O  O136  1  0.50183530  0.99839098  0.00325061  1  -1.21939  0  -0.573694  -1.03285  0  2.550647  0
O  O137  1  0.06363568  0.38283262  0.67101646  1  -1.169436  0  -0.303002  -0.53871  0  2.366937  0
O  O138  1  0.88565749  0.38268048  0.55900562  1  -1.153728  0  -0.305832  -0.536078  0  2.328561  0
O  O139  1  0.32939041  0.11724243  0.93882007  1  -1.169447  0  -0.306408  -0.538159  0  2.347574  0
O  O140  1  0.18268821  0.55740009  0.35956052  1  -1.155999  0  -0.30802  -0.532236  0  2.315591  0
O  O141  1  0.88409497  0.38531376  0.68290217  1  -1.158972  0  -0.313926  -0.543459  0  2.338813  0
O  O142  1  0.06076893  0.67314684  0.39356748  1  -1.182986  0  -0.306439  -0.548055  0  2.37561  0
O  O143  1  0.87102723  0.68139333  0.40463320  1  -1.160141  0  -0.315601  -0.551627  0  2.337566  0
O  O144  1  0.18627070  0.39419193  0.54479578  1  -1.171687  0  -0.308974  -0.537842  0  2.317924  0
O  O145  1  0.04912277  0.38030773  0.39104155  1  -1.159195  0  -0.297943  -0.522476  0  2.324227  0
O  O146  1  0.87504928  0.54883723  0.68768781  1  -1.155612  0  -0.30341  -0.525751  0  2.328068  0
O  O147  1  0.59201418  0.82492829  0.95372791  1  -1.167806  0  -0.295814  -0.522619  0  2.352194  0
O  O148  1  0.63185570  0.82241990  0.10496139  1  -1.175166  0  -0.31283  -0.546418  0  2.352968  0
O  O149  1  0.62721669  0.93803591  0.82854539  1  -1.172205  0  -0.309756  -0.537587  0  2.319015  0
O  O150  1  0.44291779  0.11527669  0.11758820  1  -1.155279  0  -0.295762  -0.524142  0  2.396626  0
O  O151  1  0.62857495  0.10848127  0.82730630  1  -1.167502  0  -0.313975  -0.550796  0  2.335541  0
O  O152  1  0.31973398  0.95162119  0.10539996  1  -1.185142  0  -0.310817  -0.542928  0  2.386664  0
O  O153  1  0.61626290  0.11346745  0.95471977  1  -1.159278  0  -0.297788  -0.520106  0  2.375679  0
O  O154  1  0.43526110  0.83021503  0.14014192  1  -1.170994  0  -0.308418  -0.538197  0  2.330041  0
O  O155  1  0.31660241  0.11123247  0.12443707  1  -1.16153  0  -0.306059  -0.529141  0  2.321494  0
O  O156  1  0.45812490  0.11212140  0.81817362  1  -1.17157  0  -0.308475  -0.536517  0  2.321974  0
O  O157  1  0.61477729  0.94118187  0.12543790  1  -1.174921  0  -0.313008  -0.544588  0  2.357122  0
O  O158  1  0.00159292  0.50226061  0.50104663  1  -1.219127  0  -0.57176  -1.033151  0  2.527937  0
O  O159  1  0.17590505  0.38363481  0.38435740  1  -1.174499  0  -0.311801  -0.542325  0  2.339198  0
O  O160  1  0.90361522  0.66859837  0.56928083  1  -1.174063  0  -0.302316  -0.537774  0  2.345477  0
O  O161  1  0.89181534  0.56320805  0.38014357  1  -1.151089  0  -0.308041  -0.53698  0  2.366283  0
