# generated using pymatgen
data_Ni2H24C36S2Br2N4O9
_symmetry_space_group_name_H-M   'P 1'
_cell_length_a   13.84987571
_cell_length_b   15.50208752
_cell_length_c   16.03133524
_cell_angle_alpha   78.88042628
_cell_angle_beta   64.42491024
_cell_angle_gamma   63.46607626
_symmetry_Int_Tables_number   1
_chemical_formula_structural   Ni2H24C36S2Br2N4O9
_chemical_formula_sum   'Ni4 H48 C72 S4 Br4 N8 O18'
_cell_volume   2777.69751775
_cell_formula_units_Z   2
loop_
 _symmetry_equiv_pos_site_id
 _symmetry_equiv_pos_as_xyz
  1  'x, y, z'
loop_
 _atom_site_type_symbol
 _atom_site_label
 _atom_site_symmetry_multiplicity
 _atom_site_fract_x
 _atom_site_fract_y
 _atom_site_fract_z
 _atom_site_occupancy
 _atom_site_pbe_bader_charge
 _atom_site_pbe_bader_spin_density
 _atom_site_pbe_cm5_charge
 _atom_site_pbe_ddec_charge
 _atom_site_pbe_ddec_spin_density
 _atom_site_pbe_ddec_sum_bond_order
 _atom_site_pbe_magmom
Ni  Ni0  1  0.73845085  0.30322285  0.47246240  1  1.170233  -0.007194  0.637657  0.785189  -0.009967  2.542967  -0.007
Ni  Ni1  1  0.95825617  0.30323743  0.52755999  1  1.168748  0.00757  0.638257  0.786278  0.010542  2.542635  0.008
Ni  Ni2  1  0.23581344  0.80323750  0.97246341  1  1.170903  0.015363  0.637913  0.786088  0.022025  2.546784  0.016
Ni  Ni3  1  0.96087012  0.80324275  0.02762891  1  1.172763  -0.015605  0.63699  0.783628  -0.022563  2.546451  -0.016
H  H4  1  0.73488227  0.42515741  0.55381804  1  0.643219  -0.000177  0.285422  0.368606  -0.000185  0.98125  0.0
H  H5  1  0.83984821  0.42516675  0.44622025  1  0.642949  0.000182  0.285084  0.368112  0.000181  0.982757  0.0
H  H6  1  0.03607492  0.92518708  0.05382012  1  0.646267  0.000293  0.285704  0.369009  0.000267  0.981263  0.0
H  H7  1  0.03873811  0.92517647  0.94621599  1  0.644297  -0.000301  0.284696  0.366843  -0.000281  0.985092  0.0
H  H8  1  0.42761214  0.58611740  0.75886067  1  0.102373  0.000251  0.103799  0.111303  0.0002  1.021851  0.0
H  H9  1  0.98605308  0.58621185  0.24130243  1  0.112686  -0.000252  0.103109  0.109686  -0.0002  1.024443  0.0
H  H10  1  0.97756108  0.08608208  0.25869883  1  0.121611  -0.000141  0.103255  0.110036  -9.9e-05  1.023897  0.0
H  H11  1  0.93633545  0.08612986  0.74125337  1  0.100081  0.000141  0.103735  0.110559  9.9e-05  1.02297  0.0
H  H12  1  0.07561710  0.63535430  0.80815962  1  0.113661  0.000302  0.10817  0.128071  0.000204  1.002847  0.0
H  H13  1  0.28901950  0.63524334  0.19184126  1  0.120495  -0.000301  0.108578  0.128887  -0.000202  1.002086  0.0
H  H14  1  0.23094467  0.13541668  0.30802375  1  0.122271  -0.000283  0.108239  0.12806  -0.000218  1.003271  0.0
H  H15  1  0.63368332  0.13529510  0.69193225  1  0.139314  0.000281  0.108055  0.127834  0.000218  1.00326  0.0
H  H16  1  0.37366172  0.43684760  0.59425129  1  0.088008  6.4e-05  0.100488  0.11402  3.4e-05  1.030354  0.0
H  H17  1  0.18960235  0.43661906  0.40561841  1  0.09187  -6.7e-05  0.100476  0.1143  -3.5e-05  1.030748  0.0
H  H18  1  0.34536077  0.93669461  0.09425799  1  0.088431  0.000122  0.100524  0.113244  0.000121  1.031334  0.0
H  H19  1  0.71803353  0.93665870  0.90572994  1  0.094627  -0.000114  0.100764  0.114534  -0.000117  1.029984  0.0
H  H20  1  0.51407514  0.35674481  0.45544078  1  0.123196  -0.001338  0.114431  0.087945  -0.000789  1.027019  -0.001
H  H21  1  0.12912583  0.35684517  0.54456406  1  0.12545  0.001335  0.114288  0.087724  0.000787  1.027303  0.001
H  H22  1  0.42388739  0.85670342  0.95547151  1  0.089165  -0.000809  0.11403  0.087239  -0.000513  1.028487  0.0
H  H23  1  0.71966275  0.85665425  0.04445282  1  0.086175  0.000783  0.114395  0.087098  0.0005  1.027924  0.0
H  H24  1  0.42245462  0.27933146  0.40648417  1  0.101714  -0.000622  0.103569  0.11813  -0.000404  1.014067  0.0
H  H25  1  0.29828796  0.27931435  0.59340781  1  0.088019  0.000631  0.103748  0.118873  0.000403  1.014324  0.0
H  H26  1  0.64186603  0.77930282  0.90650702  1  0.091997  -0.000358  0.104603  0.120217  -0.000221  1.013506  0.0
H  H27  1  0.57902712  0.77931112  0.09332416  1  0.114668  0.000338  0.10391  0.117948  0.000211  1.014116  0.0
H  H28  1  0.71249409  0.00688123  0.40401598  1  0.116233  -0.00068  0.110731  0.126596  -0.000442  0.988881  0.0
H  H29  1  0.28031873  0.00697388  0.59611536  1  0.117555  0.000682  0.111329  0.126497  0.00044  0.989092  0.0
H  H30  1  0.62677215  0.50684123  0.90397477  1  0.113283  -0.000355  0.111107  0.126491  -0.000214  0.989092  0.0
H  H31  1  0.86646957  0.50681905  0.09610736  1  0.067923  0.000344  0.110784  0.126761  0.000206  0.988945  0.0
H  H32  1  0.79354551  0.09747923  0.44929439  1  0.126871  -0.001584  0.127561  0.106402  -0.000973  0.974693  -0.001
H  H33  1  0.10873819  0.09762862  0.55074747  1  0.115887  0.001596  0.127536  0.106437  0.000974  0.974918  0.001
H  H34  1  0.40984757  0.59746457  0.94927324  1  0.121047  -0.000748  0.127226  0.106418  -0.00047  0.972255  0.0
H  H35  1  0.99288560  0.59737707  0.05073528  1  0.113175  0.000718  0.128021  0.106621  0.000451  0.97374  0.0
H  H36  1  0.82614833  0.01522183  0.06515684  1  0.122228  0.001947  0.126529  0.099553  0.001169  0.982207  0.001
H  H37  1  0.15893231  0.01512731  0.93496866  1  0.125191  -0.001932  0.126496  0.100282  -0.001164  0.983297  -0.001
H  H38  1  0.84364182  0.51518297  0.56506325  1  0.126581  -0.002963  0.126723  0.100497  -0.001912  0.981673  -0.001
H  H39  1  0.64128495  0.51520209  0.43490756  1  0.129919  0.002958  0.126441  0.099388  0.001911  0.982448  0.001
H  H40  1  0.64505608  0.12297829  0.18903775  1  0.075652  0.00102  0.114766  0.13019  0.000639  0.974639  0.0
H  H41  1  0.23207372  0.12293258  0.81103721  1  0.071752  -0.001015  0.114722  0.129812  -0.000641  0.974551  0.0
H  H42  1  0.79303664  0.62293450  0.68899545  1  0.118718  -0.001367  0.114846  0.130443  -0.000868  0.974857  -0.001
H  H43  1  0.58409809  0.62301803  0.31101213  1  0.122094  0.001357  0.114651  0.129672  0.000862  0.975026  0.001
H  H44  1  0.63723865  0.86819130  0.35320306  1  0.102762  0.0011  0.111521  0.124314  0.000702  0.984333  0.0
H  H45  1  0.49452129  0.86820871  0.64677012  1  0.098264  -0.001104  0.111718  0.12477  -0.000705  0.984895  0.0
H  H46  1  0.89130805  0.36819350  0.85324884  1  0.067864  -0.001307  0.111671  0.124731  -0.00083  0.98486  0.0
H  H47  1  0.74040143  0.36831704  0.14675007  1  0.092835  0.001287  0.112095  0.125844  0.000822  0.983776  0.0
H  H48  1  0.82177076  0.77073026  0.22276366  1  0.109493  0.001956  0.125029  0.101789  0.00118  0.989624  0.001
H  H49  1  0.40751945  0.77069097  0.77718235  1  0.105353  -0.001936  0.125049  0.101406  -0.001173  0.988995  -0.001
H  H50  1  0.93460022  0.27070647  0.72282438  1  0.10525  -0.002129  0.125004  0.101519  -0.001237  0.989692  -0.001
H  H51  1  0.79453571  0.27078419  0.27715943  1  0.155402  0.0021  0.124838  0.101724  0.001235  0.989602  0.001
C  C52  1  0.54364348  0.45747108  0.61480257  1  1.567562  -0.001082  0.207107  0.571622  -0.001578  4.186803  -0.001
C  C53  1  0.99876228  0.45744489  0.38520533  1  1.565848  0.001076  0.205854  0.569709  0.001577  4.190169  0.001
C  C54  1  0.13412830  0.95734642  0.11475893  1  1.565848  0.001456  0.208799  0.575081  0.002958  4.180054  0.001
C  C55  1  0.90861211  0.95729462  0.88520894  1  1.573889  -0.001519  0.209011  0.573038  -0.002977  4.185267  -0.001
C  C56  1  0.41359306  0.50675833  0.67109874  1  -0.000494  -0.001544  -0.017216  -0.013152  -0.001444  3.962804  -0.001
C  C57  1  0.07952205  0.50673462  0.32896682  1  -0.005778  0.001557  -0.016189  -0.011827  0.001452  3.961506  0.001
C  C58  1  0.15870880  0.00669143  0.17094256  1  0.033219  0.006308  -0.017136  -0.015396  0.005525  3.963019  0.005
C  C59  1  0.83475781  0.00662076  0.82896534  1  -0.067338  -0.006303  -0.018039  -0.015965  -0.005495  3.961538  -0.005
C  C60  1  0.36801053  0.57146279  0.74220031  1  -0.041628  -0.000349  -0.082112  -0.119505  -0.000261  3.934342  0.0
C  C61  1  0.06035818  0.57152956  0.25792506  1  -0.071708  0.000339  -0.079864  -0.116473  0.000271  3.931605  0.0
C  C62  1  0.06847743  0.07145113  0.24201877  1  -0.060482  0.000272  -0.081622  -0.119526  0.000218  3.933515  0.0
C  C63  1  0.86011951  0.07142679  0.75792769  1  0.018133  -0.000258  -0.080966  -0.117735  -0.000213  3.928422  0.0
C  C64  1  0.24644924  0.61672098  0.79195496  1  -0.00706  0.013629  -0.015251  -0.01625  0.011717  3.954268  0.01
C  C65  1  0.13668167  0.61676796  0.20815966  1  0.02529  -0.013495  -0.015322  -0.012844  -0.011624  3.948686  -0.01
C  C66  1  0.09501845  0.11672153  0.29178376  1  0.014066  -0.009598  -0.014665  -0.010936  -0.008273  3.947847  -0.007
C  C67  1  0.78828459  0.11664865  0.70817883  1  -0.028515  0.009621  -0.015496  -0.012292  0.008258  3.946891  0.007
C  C68  1  0.16983914  0.59864537  0.76949371  1  -0.028716  0.000661  -0.088745  -0.147641  0.000531  3.950311  0.0
C  C69  1  0.23148492  0.59857485  0.23052048  1  -0.019357  -0.000647  -0.089138  -0.149507  -0.00053  3.947222  0.0
C  C70  1  0.21213481  0.09867715  0.26934019  1  -0.002942  -0.000405  -0.088648  -0.149078  -0.000337  3.949124  0.0
C  C71  1  0.68922370  0.09858510  0.73063332  1  -0.036876  0.000389  -0.08842  -0.148456  0.000326  3.950103  0.0
C  C72  1  0.21690619  0.53462802  0.69814076  1  -0.114357  0.000878  -0.020256  0.111836  0.000698  3.999291  0.001
C  C73  1  0.24849874  0.53442740  0.30175273  1  -0.100835  -0.000884  -0.020615  0.112251  -0.000699  3.998898  -0.001
C  C74  1  0.30040008  0.03457287  0.19808206  1  -0.16441  -0.000285  -0.020484  0.112147  -0.000237  3.996438  0.0
C  C75  1  0.66504794  0.03452314  0.80192737  1  -0.109635  0.000287  -0.019675  0.113424  0.000241  3.999777  0.0
C  C76  1  0.33720602  0.48769780  0.64929551  1  0.029267  -0.000624  -0.093216  -0.152119  -0.000553  3.967205  0.0
C  C77  1  0.17509027  0.48753641  0.35064543  1  0.00848  0.00062  -0.094319  -0.154397  0.000548  3.969984  0.0
C  C78  1  0.27589874  0.98760499  0.14921676  1  0.002514  0.000334  -0.093201  -0.150326  0.000316  3.966064  0.0
C  C79  1  0.73660488  0.98756202  0.85073786  1  0.039172  -0.000333  -0.09397  -0.153087  -0.000322  3.967933  0.0
C  C80  1  0.19438433  0.68569312  0.87039715  1  1.586648  0.002778  0.218699  0.59269  0.005422  4.16007  0.002
C  C81  1  0.11984293  0.68573042  0.12969872  1  1.592428  -0.002789  0.21651  0.585069  -0.005406  4.165343  -0.002
C  C82  1  0.99964337  0.18566967  0.37025408  1  1.576406  -0.002197  0.219145  0.592199  -0.004166  4.160484  -0.002
C  C83  1  0.81466027  0.18561572  0.62973807  1  1.565996  0.002227  0.215054  0.583213  0.00418  4.164489  0.002
C  C84  1  0.55456183  0.27929517  0.44332367  1  0.475293  -5.2e-05  0.044903  0.089913  -0.00069  3.943182  0.0
C  C85  1  0.16606443  0.27938669  0.55667497  1  0.460998  0.000111  0.046154  0.092069  0.00069  3.947607  0.0
C  C86  1  0.47299152  0.77923711  0.94337020  1  0.493822  -0.000414  0.045069  0.090604  -0.000439  3.951101  0.0
C  C87  1  0.74799980  0.77920017  0.05653583  1  0.508032  0.000403  0.044771  0.091553  0.000419  3.94781  0.0
C  C88  1  0.50336842  0.23569755  0.41706010  1  -0.023068  -0.003646  -0.095027  -0.188512  -0.003015  3.988691  -0.003
C  C89  1  0.26087532  0.23574962  0.58290673  1  0.023927  0.0036  -0.09524  -0.189369  0.00303  3.991759  0.003
C  C90  1  0.59403293  0.73567165  0.91705339  1  0.021802  -0.000518  -0.096005  -0.191319  -0.000478  3.991874  0.0
C  C91  1  0.67051074  0.73566722  0.08279866  1  -0.017168  0.000462  -0.0951  -0.187852  0.000428  3.988489  0.0
C  C92  1  0.56025088  0.13609169  0.40147133  1  -0.146902  0.001497  0.002795  0.096041  0.001232  4.03876  0.001
C  C93  1  0.30347152  0.13616090  0.59859211  1  -0.192322  -0.001513  0.001568  0.092489  -0.001245  4.041924  -0.001
C  C94  1  0.65231172  0.63608163  0.90146365  1  -0.187011  -0.000207  0.00274  0.096301  -0.000153  4.040832  0.0
C  C95  1  0.71175045  0.63608645  0.09850615  1  -0.151705  0.000228  0.002507  0.096009  0.000171  4.038526  0.0
C  C96  1  0.66570943  0.08460710  0.41430975  1  -0.071723  -0.003172  -0.089289  -0.183488  -0.002646  3.9727  -0.002
C  C97  1  0.24941053  0.08469979  0.58581236  1  -0.033349  0.003169  -0.087302  -0.178835  0.002645  3.975645  0.002
C  C98  1  0.58556763  0.58455984  0.91426028  1  -0.030329  -0.000977  -0.088721  -0.181006  -0.000813  3.978818  -0.001
C  C99  1  0.83003787  0.58455150  0.08574060  1  0.01756  0.00088  -0.090243  -0.185347  0.000754  3.976105  0.001
C  C100  1  0.71106880  0.13418417  0.43982743  1  0.511257  1e-05  0.055178  0.108169  -0.000462  3.915908  0.0
C  C101  1  0.15450706  0.13430903  0.56026218  1  0.521963  -2.2e-05  0.055025  0.10757  0.000447  3.91904  0.0
C  C102  1  0.46511204  0.63414362  0.93982375  1  0.525611  -0.000452  0.054009  0.105266  -0.000675  3.92167  0.0
C  C103  1  0.90094804  0.63408265  0.06019028  1  0.470977  0.000461  0.055869  0.11035  0.000663  3.916215  0.0
C  C104  1  0.78206238  0.98564469  0.13022999  1  0.541242  0.001628  0.056094  0.118847  0.001971  3.905131  0.001
C  C105  1  0.23250655  0.98557113  0.86985255  1  0.48666  -0.00167  0.055484  0.115172  -0.001927  3.909685  -0.001
C  C106  1  0.85214407  0.48559899  0.63017855  1  0.492169  -0.001452  0.056147  0.119169  -0.001987  3.90618  0.0
C  C107  1  0.66230351  0.48565526  0.36979345  1  0.529367  0.001382  0.056752  0.119339  0.001997  3.903491  0.001
C  C108  1  0.68145506  0.04518167  0.19898589  1  -0.005862  0.003426  -0.082941  -0.16947  0.002891  3.952695  0.002
C  C109  1  0.27346694  0.04514475  0.80107021  1  0.013785  -0.00334  -0.081952  -0.165447  -0.002872  3.953818  -0.002
C  C110  1  0.82445683  0.54514587  0.69894038  1  0.003817  -0.004561  -0.082887  -0.169482  -0.003828  3.954805  -0.003
C  C111  1  0.63044487  0.54524097  0.30102980  1  -0.025983  0.004635  -0.082359  -0.166922  0.003834  3.951854  0.003
C  C112  1  0.62697721  0.00340291  0.28066354  1  -0.162726  0.000445  0.003502  0.094519  0.00031  4.045115  0.0
C  C113  1  0.36957785  0.00339991  0.71933413  1  -0.134127  -0.000428  0.003324  0.09259  -0.000296  4.047903  0.0
C  C114  1  0.83896610  0.50339093  0.78066251  1  -0.169142  0.000451  0.003632  0.094343  0.000424  4.047701  0.0
C  C115  1  0.65763172  0.50350836  0.21932102  1  -0.146728  -0.000461  0.003954  0.093314  -0.000433  4.04764  0.0
C  C116  1  0.67651847  0.90325161  0.29035588  1  0.019039  0.003219  -0.085718  -0.179415  0.002778  3.972887  0.002
C  C117  1  0.42018790  0.90325527  0.70963414  1  0.036241  -0.00321  -0.086826  -0.181247  -0.002775  3.975404  -0.002
C  C118  1  0.87981392  0.40325360  0.79039232  1  0.022292  -0.004685  -0.086118  -0.179836  -0.004007  3.973676  -0.003
C  C119  1  0.71686845  0.40336165  0.20960774  1  -0.020156  0.00467  -0.086963  -0.181052  0.003996  3.976772  0.003
C  C120  1  0.77825419  0.84894076  0.21824846  1  0.460638  0.000949  0.052732  0.102321  0.001289  3.921554  0.0
C  C121  1  0.37284267  0.84889841  0.78173679  1  0.464706  -0.000928  0.053257  0.104218  -0.001279  3.919398  0.0
C  C122  1  0.90446704  0.34891756  0.71829759  1  0.488942  -0.000921  0.053735  0.104273  -0.001451  3.920339  0.0
C  C123  1  0.74650838  0.34899464  0.28170534  1  0.432029  0.000942  0.052516  0.101497  0.001439  3.922933  0.0
S  S124  1  0.49702035  0.07819218  0.36875692  1  0.12959  0.000199  0.022552  -0.03513  0.00018  2.702575  0.0
S  S125  1  0.42467710  0.07820053  0.63120790  1  0.12165  -0.000192  0.021792  -0.034936  -0.000171  2.703951  0.0
S  S126  1  0.80613219  0.57817058  0.86874863  1  0.121946  4.3e-05  0.022058  -0.036077  1.5e-05  2.703989  0.0
S  S127  1  0.61577055  0.57824578  0.13119704  1  0.128058  -2.9e-05  0.021845  -0.035944  -2e-06  2.703071  0.0
Br  Br128  1  0.11337332  0.51035277  0.66560176  1  -0.10811  0.000952  0.006682  -0.10195  0.000965  1.462816  0.001
Br  Br129  1  0.37674079  0.50961854  0.33391585  1  -0.112794  -0.000961  0.00699  -0.101946  -0.000971  1.462235  -0.001
Br  Br130  1  0.46074856  0.01008227  0.16576517  1  -0.107593  -0.000198  0.006028  -0.103408  -0.000215  1.46217  0.0
Br  Br131  1  0.52914310  0.01008969  0.83446201  1  -0.110898  0.000203  0.006399  -0.102732  0.000219  1.463024  0.0
N  N132  1  0.82958714  0.88903019  0.13913058  1  -1.207669  0.064755  -0.31939  -0.214111  0.054588  3.568484  0.053
N  N133  1  0.28151373  0.88896326  0.86091743  1  -1.205014  -0.06422  -0.319387  -0.214007  -0.054154  3.567402  -0.053
N  N134  1  0.89224408  0.38899753  0.63913674  1  -1.197979  -0.082477  -0.32031  -0.21731  -0.06975  3.568685  -0.068
N  N135  1  0.71870694  0.38904732  0.36086738  1  -1.201918  0.082535  -0.319269  -0.214145  0.069803  3.565738  0.068
N  N136  1  0.65713693  0.23021811  0.45333399  1  -1.17853  -0.053587  -0.320151  -0.201383  -0.045039  3.556299  -0.044
N  N137  1  0.11251418  0.23033518  0.54668197  1  -1.193073  0.053672  -0.321121  -0.203011  0.045215  3.559839  0.044
N  N138  1  0.40948345  0.73015523  0.95341726  1  -1.203296  -0.020428  -0.320692  -0.202684  -0.01712  3.56217  -0.017
N  N139  1  0.86053626  0.73008859  0.04658359  1  -1.18847  0.019432  -0.321224  -0.204553  0.016241  3.560496  0.016
O  O140  1  0.57275902  0.39538034  0.55659819  1  -1.144537  -0.034353  -0.312191  -0.553423  -0.02808  2.393234  -0.03
O  O141  1  0.03175041  0.39534141  0.44339589  1  -1.150281  0.034344  -0.313127  -0.554406  0.028118  2.393946  0.03
O  O142  1  0.22526908  0.89512673  0.05664158  1  -1.149481  0.079933  -0.311803  -0.553007  0.065598  2.391243  0.07
O  O143  1  0.87955577  0.89517885  0.94341313  1  -1.145876  -0.079632  -0.312129  -0.552806  -0.065402  2.393093  -0.07
O  O144  1  0.61385489  0.48130705  0.62625819  1  -1.172686  0.001603  -0.333534  -0.549592  0.001446  2.134011  0.002
O  O145  1  0.90471714  0.48130795  0.37374618  1  -1.173048  -0.001611  -0.331825  -0.547152  -0.001454  2.137749  -0.002
O  O146  1  0.02860821  0.98127572  0.12623296  1  -1.172003  0.000541  -0.33451  -0.550665  0.000102  2.131644  0.0
O  O147  1  0.99021273  0.98117106  0.87375884  1  -1.179296  -0.000591  -0.333515  -0.547679  -0.000135  2.135096  0.0
O  O148  1  0.26615226  0.70721894  0.88248400  1  -1.14565  0.074893  -0.306024  -0.555712  0.061314  2.403823  0.066
O  O149  1  0.02657272  0.70714059  0.11759120  1  -1.149333  -0.074672  -0.305278  -0.553033  -0.061137  2.405058  -0.066
O  O150  1  0.89430085  0.20705594  0.38240234  1  -1.146113  -0.021477  -0.307086  -0.558091  -0.017365  2.402114  -0.018
O  O151  1  0.89861121  0.20700825  0.61760344  1  -1.147115  0.021364  -0.306213  -0.555097  0.017247  2.403538  0.018
O  O152  1  0.08453060  0.71486249  0.91611890  1  -1.145783  0.054595  -0.304103  -0.527561  0.044763  2.36722  0.047
O  O153  1  0.20045195  0.71495065  0.08398285  1  -1.154184  -0.053939  -0.303255  -0.524724  -0.044198  2.369822  -0.047
O  O154  1  0.03459127  0.21490962  0.41596127  1  -1.141318  -0.070461  -0.304663  -0.528055  -0.058024  2.367764  -0.062
O  O155  1  0.75048378  0.21486552  0.58402275  1  -1.126743  0.070428  -0.302281  -0.522804  0.057994  2.366708  0.062
O  O156  1  0.80894714  0.38202241  0.49999048  1  -1.221659  1.7e-05  -0.54772  -0.756506  3e-05  2.466731  0.0
O  O157  1  0.05906105  0.88204315  0.99996600  1  -1.22582  -0.000773  -0.548468  -0.757078  -0.000641  2.468631  -0.001
