# generated using pymatgen
data_CeH20C21N4O9
_symmetry_space_group_name_H-M   'P 1'
_cell_length_a   10.03031439
_cell_length_b   11.53575899
_cell_length_c   13.67054492
_cell_angle_alpha   67.09772136
_cell_angle_beta   86.05816720
_cell_angle_gamma   75.25022768
_symmetry_Int_Tables_number   1
_chemical_formula_structural   CeH20C21N4O9
_chemical_formula_sum   'Ce2 H40 C42 N8 O18'
_cell_volume   1408.25691135
_cell_formula_units_Z   2
loop_
 _symmetry_equiv_pos_site_id
 _symmetry_equiv_pos_as_xyz
  1  'x, y, z'
loop_
 _atom_site_type_symbol
 _atom_site_label
 _atom_site_symmetry_multiplicity
 _atom_site_fract_x
 _atom_site_fract_y
 _atom_site_fract_z
 _atom_site_occupancy
 _atom_site_pbe_bader_charge
 _atom_site_pbe_bader_spin_density
 _atom_site_pbe_cm5_charge
 _atom_site_pbe_ddec_charge
 _atom_site_pbe_ddec_spin_density
 _atom_site_pbe_ddec_sum_bond_order
 _atom_site_pbe_magmom
Ce  Ce0  1  0.23407861  0.52799368  0.50142257  1  2.293881  0.864971  1.320841  2.049365  0.978732  2.394752  0.844
Ce  Ce1  1  0.76405247  0.47158422  0.49938468  1  2.295769  0.865416  1.319777  2.047055  0.978559  2.39639  0.843
H  H2  1  0.94795752  0.71758588  0.42047084  1  0.64997  3.7e-05  0.30085  0.395696  -7e-05  0.946194  0.0
H  H3  1  0.02466342  0.77846820  0.47957264  1  0.603438  0.000524  0.330802  0.410434  0.000132  0.874768  0.0
H  H4  1  0.41732654  0.27934203  0.51072139  1  0.639174  3e-06  0.290709  0.377007  -2.9e-05  0.973133  0.0
H  H5  1  0.49820772  0.38161963  0.43640694  1  0.613794  4.5e-05  0.306495  0.38378  -2.4e-05  0.951373  0.0
H  H6  1  0.70623194  0.16686472  0.84011224  1  0.143855  0.00012  0.115022  0.128445  -3.4e-05  1.005158  0.0
H  H7  1  0.29230003  0.41313417  0.79069416  1  0.100065  7.1e-05  0.107868  0.110504  -5.8e-05  1.051775  0.0
H  H8  1  0.25935038  0.30359537  0.98581584  1  0.091801  0.00018  0.107972  0.079135  3.2e-05  0.99514  0.0
H  H9  1  0.53984014  0.99381669  0.18217077  1  0.133853  3.7e-05  0.109121  0.117576  2e-06  1.02948  0.0
H  H10  1  0.95912868  0.75940388  0.24349971  1  0.106508  0.000281  0.112161  0.122406  5.1e-05  1.022838  0.0
H  H11  1  0.00692134  0.88481986  0.05575858  1  0.110276  6.4e-05  0.106876  0.073679  1.8e-05  1.033909  0.0
H  H12  1  0.90092258  0.45406760  0.16436681  1  0.093831  0.000117  0.104253  0.104661  -5.9e-05  1.06311  0.0
H  H13  1  0.24236314  0.58326059  0.22661311  1  0.118973  0.000265  0.112371  0.114059  -5.3e-05  1.046423  0.0
H  H14  1  0.31097053  0.62042778  0.03934220  1  0.083097  -1.9e-05  0.108326  0.076653  -7.3e-05  0.99147  0.0
H  H15  1  0.21763470  0.65116946  0.70180793  1  0.100823  1e-05  0.127009  0.053744  -6.4e-05  1.034062  0.0
H  H16  1  0.36970853  0.89532177  0.50941261  1  0.125693  9e-06  0.117622  0.143578  -2.7e-05  0.988008  0.0
H  H17  1  0.48719166  0.87149302  0.61224249  1  0.081153  6.1e-05  0.113027  0.13417  6e-06  0.963002  0.0
H  H18  1  0.33010291  0.99376722  0.58764585  1  0.067247  4.2e-05  0.104594  0.122605  9e-06  1.006764  0.0
H  H19  1  0.21339343  0.89144659  0.76772484  1  0.065341  7.9e-05  0.103368  0.121137  1.7e-05  0.988785  0.0
H  H20  1  0.38697731  0.79936134  0.80431859  1  0.074526  6.6e-05  0.108887  0.130073  1.8e-05  0.985842  0.0
H  H21  1  0.25163462  0.71783899  0.82195599  1  0.086221  2e-05  0.107939  0.120915  -7e-06  1.025462  0.0
H  H22  1  0.05193238  0.28196079  0.57990349  1  0.650933  0.000181  0.300861  0.394769  2.2e-05  0.947126  0.0
H  H23  1  0.97334813  0.22018823  0.52280569  1  0.593309  0.000161  0.329952  0.408924  -2.2e-05  0.874586  0.0
H  H24  1  0.58429642  0.72100369  0.48976366  1  0.639211  1.5e-05  0.290943  0.377672  -8e-06  0.972604  0.0
H  H25  1  0.50222849  0.61945507  0.56347950  1  0.621165  0.000139  0.30554  0.383015  3.3e-05  0.952758  0.0
H  H26  1  0.29384892  0.83402834  0.16012322  1  0.137553  3.9e-05  0.115552  0.128878  -3.5e-05  1.004226  0.0
H  H27  1  0.70659102  0.58545812  0.20981752  1  0.111029  0.00011  0.108308  0.110597  -1.9e-05  1.052872  0.0
H  H28  1  0.73966018  0.69402440  0.01451563  1  0.091843  0.000158  0.108151  0.079725  3.9e-05  0.99584  0.0
H  H29  1  0.46072272  0.00582955  0.81819622  1  0.134237  2.2e-05  0.109391  0.117898  2e-06  1.028348  0.0
H  H30  1  0.04151490  0.24046695  0.75627303  1  0.109059  0.000327  0.112339  0.123184  6.1e-05  1.022214  0.0
H  H31  1  0.99320115  0.11506414  0.94384346  1  0.111172  0.000107  0.107391  0.074405  3.3e-05  1.032832  0.0
H  H32  1  0.09888980  0.54611947  0.83513804  1  0.093735  7.3e-05  0.104054  0.104499  -0.0001  1.063381  0.0
H  H33  1  0.75666661  0.41779108  0.77290757  1  0.122686  0.000401  0.112329  0.113862  -4.7e-05  1.047202  0.0
H  H34  1  0.68848100  0.38035528  0.96019128  1  0.091349  3.8e-05  0.107874  0.076303  -8e-05  0.992153  0.0
H  H35  1  0.78437343  0.34826696  0.29765896  1  0.113986  7.2e-05  0.127496  0.055101  -4.7e-05  1.035008  0.0
H  H36  1  0.63129685  0.10508024  0.49037488  1  0.091542  1.1e-05  0.117552  0.142944  -1.4e-05  0.987961  0.0
H  H37  1  0.51253265  0.13033784  0.38790658  1  0.065121  4.1e-05  0.113069  0.134195  2e-06  0.963337  0.0
H  H38  1  0.66879855  0.00718554  0.41162514  1  0.07342  6.9e-05  0.104596  0.122873  1.6e-05  1.006623  0.0
H  H39  1  0.78597248  0.10870031  0.23182429  1  0.06655  5e-05  0.103653  0.121957  1e-05  0.988296  0.0
H  H40  1  0.61247843  0.20116512  0.19553146  1  0.074316  0.000128  0.109254  0.130404  3.7e-05  0.984604  0.0
H  H41  1  0.74826599  0.28230534  0.17736904  1  0.093803  3.2e-05  0.108168  0.120889  -9e-06  1.025195  0.0
C  C42  1  0.52833476  0.36918887  0.68577761  1  1.574601  0.015024  0.242093  0.639837  0.00507  4.129622  0.01
C  C43  1  0.57672434  0.14128072  0.97658532  1  0.528683  4.9e-05  0.11644  0.165281  -0.000563  4.000724  -0.001
C  C44  1  0.60584383  0.20001050  0.86914859  1  -0.02106  0.004949  -0.068951  -0.156547  0.001496  3.883854  0.003
C  C45  1  0.50325990  0.30030897  0.80086407  1  -0.049345  0.003062  -0.003622  -0.007874  0.000615  3.956014  0.001
C  C46  1  0.37541875  0.33765217  0.84243720  1  -0.010179  0.005559  -0.08266  -0.150487  0.00173  3.948645  0.003
C  C47  1  0.35712106  0.27527281  0.95070136  1  0.470002  0.000731  0.039733  0.09613  -0.000198  4.014114  0.0
C  C48  1  0.70810892  0.79502247  0.33976970  1  1.575915  0.001073  0.223626  0.583006  0.000291  4.176778  0.001
C  C49  1  0.68048053  0.03266765  0.05277940  1  0.484483  0.000449  0.116625  0.167623  0.000126  4.002557  0.0
C  C50  1  0.64444238  0.96682464  0.15701286  1  0.039171  0.000482  -0.075699  -0.171777  0.000129  3.935151  0.0
C  C51  1  0.74454073  0.86695202  0.22764649  1  -0.073698  0.000343  -0.008916  -0.013392  2.7e-05  3.992643  0.0
C  C52  1  0.87731048  0.83552775  0.19115292  1  -0.093259  0.000826  -0.081757  -0.144574  0.000256  3.934639  0.0
C  C53  1  0.90353851  0.90565206  0.08587481  1  0.529526  0.000182  0.041106  0.093172  5.4e-05  3.992984  0.0
C  C54  1  0.01615243  0.49378648  0.32035730  1  1.570088  0.021075  0.238641  0.631089  0.007101  4.15929  0.014
C  C55  1  0.03818929  0.51337279  0.03727369  1  0.466875  0.003444  0.113738  0.167161  0.000786  4.009845  0.001
C  C56  1  0.99284998  0.49035886  0.14055881  1  0.009999  0.005996  -0.077913  -0.164939  0.001779  3.918582  0.003
C  C57  1  0.06571102  0.51497866  0.21062392  1  -0.068896  0.006845  -0.002454  -0.003333  0.001811  3.964341  0.003
C  C58  1  0.18322041  0.56197780  0.17459543  1  -0.071694  0.013578  -0.076345  -0.13941  0.004197  3.921183  0.008
C  C59  1  0.22036651  0.58277725  0.06995506  1  0.553971  0.000147  0.041033  0.093597  -0.001003  4.007167  -0.001
C  C60  1  0.26697916  0.71764291  0.63757815  1  1.364313  0.001458  0.181313  0.300589  0.000421  4.095293  0.001
C  C61  1  0.37775548  0.89660321  0.58841918  1  0.2248  -2e-05  -0.130306  -0.274602  -6e-05  3.870342  0.0
C  C62  1  0.28920578  0.80246910  0.77054805  1  0.253319  -1e-05  -0.128113  -0.276193  -3e-05  3.882848  0.0
C  C63  1  0.47084648  0.63120764  0.31460824  1  1.560147  0.009598  0.245521  0.644344  0.003154  4.123449  0.007
C  C64  1  0.42318679  0.85835151  0.02362046  1  0.523362  0.000559  0.116771  0.165254  1.3e-05  3.999947  0.0
C  C65  1  0.39401560  0.80020853  0.13111504  1  -0.01236  0.002527  -0.068756  -0.156597  0.000755  3.885345  0.001
C  C66  1  0.49621233  0.69956998  0.19940712  1  -0.032149  0.001586  -0.003197  -0.006522  0.000222  3.953663  0.0
C  C67  1  0.62379293  0.66128038  0.15797853  1  -0.077994  0.003991  -0.083127  -0.151746  0.001226  3.947409  0.002
C  C68  1  0.64219670  0.72316620  0.04962687  1  0.509311  -5.8e-05  0.041532  0.098103  -0.000457  4.011122  0.0
C  C69  1  0.29310125  0.20464887  0.66043592  1  1.578756  0.000336  0.224758  0.582798  -1.5e-05  4.177686  0.0
C  C70  1  0.31967638  0.96705611  0.94731136  1  0.488771  0.000302  0.116066  0.166762  8.4e-05  4.002934  0.0
C  C71  1  0.35601850  0.03281405  0.84317377  1  0.036305  0.000246  -0.074585  -0.170192  6.1e-05  3.933989  0.0
C  C72  1  0.25611027  0.13272708  0.77241139  1  -0.076438  -1.6e-05  -0.008806  -0.014241  -0.000115  3.992978  0.0
C  C73  1  0.12322620  0.16426714  0.80868360  1  -0.08855  0.000771  -0.081324  -0.143436  0.000245  3.932982  0.0
C  C74  1  0.09668214  0.09417293  0.91390304  1  0.532089  0.000114  0.041163  0.092819  3.1e-05  3.992153  0.0
C  C75  1  0.98356353  0.50625698  0.67939466  1  1.556156  0.031656  0.23394  0.624236  0.010716  4.161412  0.021
C  C76  1  0.96156959  0.48701809  0.96220485  1  0.501036  0.003818  0.111357  0.162983  0.000655  4.014648  0.001
C  C77  1  0.00687235  0.50997657  0.85898212  1  0.014533  0.007386  -0.077978  -0.164509  0.002166  3.921634  0.004
C  C78  1  0.93383091  0.48562152  0.78876213  1  -0.072666  0.010549  -0.003317  -0.004093  0.002869  3.965823  0.004
C  C79  1  0.81610683  0.43879335  0.82492900  1  -0.076999  0.019034  -0.077241  -0.140297  0.005881  3.921123  0.01
C  C80  1  0.77914967  0.41790015  0.92957500  1  0.537199  5.1e-05  0.03954  0.091839  -0.001874  4.01084  -0.002
C  C81  1  0.73470335  0.28218221  0.36191625  1  1.359247  0.001504  0.1808  0.298078  0.00045  4.095973  0.001
C  C82  1  0.62223409  0.10431654  0.41129841  1  0.258835  -1.7e-05  -0.129104  -0.272618  -4.4e-05  3.868997  0.0
C  C83  1  0.71054095  0.19787136  0.22899982  1  0.251647  -1e-05  -0.127797  -0.275508  -2.8e-05  3.879475  0.0
N  N84  1  0.45455494  0.17960758  0.01704965  1  -1.215214  0.00804  -0.3169  -0.301111  0.002393  3.309959  0.006
N  N85  1  0.80847846  0.00234953  0.01761100  1  -1.198601  0.000632  -0.311865  -0.294376  0.000173  3.308406  0.0
N  N86  1  0.15086947  0.55992660  0.00180159  1  -1.193744  0.01665  -0.316448  -0.308269  0.005014  3.316879  0.013
N  N87  1  0.30965317  0.80225445  0.66398310  1  -1.211035  0.001025  -0.272645  0.044813  0.000262  3.711449  0.001
N  N88  1  0.54507150  0.81909952  0.98324097  1  -1.196001  0.005203  -0.31571  -0.299046  0.001556  3.308311  0.004
N  N89  1  0.19158433  0.99743790  0.98229201  1  -1.199108  0.000444  -0.311111  -0.293611  0.000122  3.308296  0.0
N  N90  1  0.84875088  0.44061569  0.99781547  1  -1.195111  0.025003  -0.318163  -0.310666  0.007516  3.31763  0.019
N  N91  1  0.69072798  0.19822613  0.33558033  1  -1.20763  0.000828  -0.272815  0.044599  0.000204  3.714344  0.001
O  O92  1  0.42480849  0.44857630  0.62579307  1  -1.214212  0.00214  -0.381611  -0.685389  -0.00181  2.369032  -0.003
O  O93  1  0.65085061  0.34994127  0.65371610  1  -1.183321  0.002527  -0.359276  -0.608501  -0.001451  2.227095  -0.002
O  O94  1  0.79959725  0.69198590  0.39699886  1  -1.210834  -0.000703  -0.373275  -0.662932  -0.002247  2.325248  -0.002
O  O95  1  0.59303690  0.83601677  0.37299799  1  -1.167177  0.000244  -0.292664  -0.513246  -6.2e-05  2.143462  0.0
O  O96  1  0.08892660  0.51053431  0.38434483  1  -1.205202  0.003465  -0.388938  -0.65751  -0.001348  2.35017  -0.002
O  O97  1  0.90248762  0.46152397  0.34478038  1  -1.191028  0.004303  -0.359068  -0.643116  -0.00094  2.328057  -0.001
O  O98  1  0.27909923  0.71130690  0.54730583  1  -1.174661  0.001814  -0.335012  -0.528571  -0.000702  2.329186  -0.001
O  O99  1  0.03863076  0.73353846  0.43119430  1  -1.235678  0.001075  -0.603022  -0.813677  -0.000992  2.040343  -0.002
O  O100  1  0.40708226  0.36321365  0.44612083  1  -1.254828  -0.001105  -0.6196  -0.829801  -0.002116  2.061161  -0.002
O  O101  1  0.57468135  0.55219930  0.37462910  1  -1.213679  0.001111  -0.38434  -0.686534  -0.001282  2.364349  -0.001
O  O102  1  0.34856611  0.65021181  0.34652572  1  -1.179757  -0.000578  -0.353862  -0.604682  -0.004107  2.224936  -0.005
O  O103  1  0.20153427  0.30744416  0.60287873  1  -1.215842  -0.001237  -0.375531  -0.662672  -0.002521  2.325369  -0.003
O  O104  1  0.40855355  0.16400666  0.62760093  1  -1.163444  -0.000262  -0.292045  -0.511474  -0.000415  2.144373  0.0
O  O105  1  0.91170812  0.48859192  0.61535064  1  -1.20779  0.006963  -0.38867  -0.658577  -0.000258  2.353856  -0.001
O  O106  1  0.09736908  0.53884393  0.65481941  1  -1.18946  0.007839  -0.365736  -0.647589  0.000401  2.33059  0.001
O  O107  1  0.72351487  0.28833588  0.45230905  1  -1.181651  0.000156  -0.336404  -0.528309  -0.00142  2.325657  -0.002
O  O108  1  0.96084143  0.26623991  0.57029169  1  -1.2266  0.001887  -0.602002  -0.812418  -0.000598  2.043549  -0.001
O  O109  1  0.59377860  0.63706178  0.55427273  1  -1.26155  -0.001211  -0.619477  -0.82792  -0.002354  2.062447  -0.002
