# generated using pymatgen
data_CoH16C16N2(ClO)6
_symmetry_space_group_name_H-M   'P 1'
_cell_length_a   7.09235369
_cell_length_b   9.34725353
_cell_length_c   9.25776920
_cell_angle_alpha   106.76036596
_cell_angle_beta   111.19694399
_cell_angle_gamma   92.32200147
_symmetry_Int_Tables_number   1
_chemical_formula_structural   CoH16C16N2(ClO)6
_chemical_formula_sum   'Co1 H16 C16 N2 Cl6 O6'
_cell_volume   540.64996058
_cell_formula_units_Z   1
loop_
 _symmetry_equiv_pos_site_id
 _symmetry_equiv_pos_as_xyz
  1  'x, y, z'
loop_
 _atom_site_type_symbol
 _atom_site_label
 _atom_site_symmetry_multiplicity
 _atom_site_fract_x
 _atom_site_fract_y
 _atom_site_fract_z
 _atom_site_occupancy
 _atom_site_hse06_10hf_ddec_charge
 _atom_site_hse06_10hf_ddec_spin_density
 _atom_site_hse06_10hf_ddec_sum_bond_order
 _atom_site_hse06_10hf_magmom
 _atom_site_hse06_ddec_charge
 _atom_site_hse06_ddec_spin_density
 _atom_site_hse06_ddec_sum_bond_order
 _atom_site_hse06_magmom
 _atom_site_pbe_cm5_charge
 _atom_site_pbe_ddec_charge
 _atom_site_pbe_ddec_spin_density
 _atom_site_pbe_ddec_sum_bond_order
 _atom_site_pbe_magmom
Co  Co0  1  0.00000031  0.00000185  0.99999760  1  0.737928  1.033424  2.806021  0.973  0.812939  1.021439  2.731005  0.968  0.651991  0.70442  1.04463  2.847107  0.975
H  H1  1  0.27195851  0.82832921  0.10169790  1  0.330521  9.2e-05  0.987494  0.0  0.340548  -2e-06  0.976265  0.0  0.292994  0.32399  0.000226  0.994803  0.0
H  H2  1  0.72802955  0.17166694  0.89829768  1  0.33044  9.1e-05  0.98745  0.0  0.340463  -1e-06  0.976228  0.0  0.292979  0.323912  0.000226  0.994751  0.0
H  H3  1  0.26648578  0.70787332  0.83421867  1  0.065282  -0.000204  1.048971  0.0  0.065563  -0.000178  1.048787  0.0  0.071865  0.065592  -0.000205  1.048764  0.0
H  H4  1  0.73351792  0.29212529  0.16578281  1  0.065279  -0.000205  1.048978  0.0  0.06556  -0.000179  1.048793  0.0  0.071869  0.065587  -0.000205  1.048774  0.0
H  H5  1  0.51680830  0.81417196  0.96869444  1  0.089552  0.000915  1.032112  0.001  0.089687  0.000616  1.032932  0.001  0.083131  0.0902  0.001252  1.030787  0.002
H  H6  1  0.48318976  0.18582775  0.03131235  1  0.089559  0.000916  1.032075  0.001  0.089696  0.000616  1.032895  0.001  0.083152  0.090206  0.001252  1.030752  0.002
H  H7  1  0.33726593  0.89409852  0.83462273  1  0.104316  -9e-06  1.027113  0.0  0.105087  -2.6e-05  1.026832  0.0  0.090183  0.103795  1.4e-05  1.0276  0.0
H  H8  1  0.66274176  0.10589785  0.16537590  1  0.104293  -9e-06  1.027103  0.0  0.105063  -2.6e-05  1.026823  0.0  0.090167  0.103772  1.4e-05  1.02759  0.0
H  H9  1  0.33286029  0.04780991  0.31382566  1  0.087867  -0.000337  1.033068  0.0  0.09003  -0.000382  1.029957  0.0  0.112936  0.085835  -0.00036  1.03604  0.0
H  H10  1  0.66713502  0.95219199  0.68617564  1  0.087858  -0.000337  1.033053  0.0  0.090023  -0.000382  1.029938  0.0  0.112909  0.085826  -0.00036  1.036024  0.0
H  H11  1  0.56678324  0.26360913  0.54059063  1  0.117405  -6.4e-05  1.060312  0.0  0.121082  -4.2e-05  1.058355  0.0  0.097701  0.114323  -6.6e-05  1.062456  0.0
H  H12  1  0.43321610  0.73639054  0.45940892  1  0.117404  -6.3e-05  1.060276  0.0  0.12108  -4.2e-05  1.058319  0.0  0.097697  0.114321  -6.6e-05  1.06242  0.0
H  H13  1  0.24779887  0.55542629  0.27726105  1  0.121314  -7.2e-05  1.060586  0.0  0.125129  -8.3e-05  1.058479  0.0  0.098827  0.118603  -6.4e-05  1.062283  0.0
H  H14  1  0.75219941  0.44457455  0.72274612  1  0.12125  -7.2e-05  1.060599  0.0  0.125062  -8.2e-05  1.058497  0.0  0.09881  0.11854  -6.4e-05  1.062292  0.0
H  H15  1  0.02773506  0.32802692  0.06365559  1  0.084293  -0.000368  1.036728  0.0  0.086298  -0.000415  1.034146  0.0  0.113764  0.082306  -0.0004  1.039454  0.0
H  H16  1  0.97226902  0.67197393  0.93634447  1  0.084317  -0.000367  1.036762  0.0  0.08632  -0.000415  1.034179  0.0  0.113757  0.082332  -0.0004  1.039485  0.0
C  C17  1  0.35373468  0.82169296  0.91114540  1  -0.107834  0.001537  3.889583  0.002  -0.10096  0.001023  3.894526  0.001  -0.163247  -0.112416  0.002016  3.884538  0.002
C  C18  1  0.64626469  0.17830672  0.08885524  1  -0.107849  0.001539  3.889591  0.002  -0.100976  0.001023  3.894536  0.001  -0.163256  -0.112433  0.002017  3.884551  0.002
C  C19  1  0.31940371  0.16221944  0.31033336  1  0.092797  -0.006237  3.945791  -0.004  0.104242  -0.004054  3.96067  -0.002  0.038013  0.08437  -0.007779  3.938636  -0.004
C  C20  1  0.68059889  0.83778140  0.68966739  1  0.09278  -0.006236  3.945784  -0.004  0.104228  -0.004048  3.960661  -0.002  0.038038  0.084357  -0.007778  3.938624  -0.004
C  C21  1  0.45090147  0.28539732  0.43768053  1  -0.183095  -0.000464  3.965801  0.0  -0.190598  -5.4e-05  3.983727  0.0  -0.090988  -0.178831  -0.001561  3.955821  0.0
C  C22  1  0.54909916  0.71460124  0.56231904  1  -0.183059  -0.000465  3.965728  0.0  -0.190561  -5.7e-05  3.983654  0.0  -0.091007  -0.178796  -0.001561  3.955745  0.0
C  C23  1  0.43214852  0.43318347  0.43281493  1  0.108752  -0.006466  3.9654  -0.004  0.115228  -0.003597  3.982646  -0.002  0.004724  0.10357  -0.009699  3.955244  -0.005
C  C24  1  0.56785686  0.56681519  0.56719240  1  0.108599  -0.006465  3.965335  -0.004  0.115074  -0.003593  3.98258  -0.002  0.004661  0.103417  -0.009698  3.955179  -0.005
C  C25  1  0.27563361  0.44618204  0.29323957  1  -0.18012  -0.000409  3.958807  0.0  -0.187426  -4.6e-05  3.976646  0.0  -0.089718  -0.175941  -0.001487  3.948401  0.0
C  C26  1  0.72437366  0.55381888  0.70676674  1  -0.179924  -0.000409  3.958687  0.0  -0.187227  -4.9e-05  3.976526  0.0  -0.089654  -0.175757  -0.001488  3.94831  0.0
C  C27  1  0.14982275  0.31784256  0.17079640  1  0.081766  -0.006314  3.952597  -0.004  0.092251  -0.004435  3.968909  -0.002  0.035225  0.073396  -0.007725  3.945897  -0.004
C  C28  1  0.85018597  0.68215837  0.82920814  1  0.081721  -0.006315  3.95269  -0.004  0.092207  -0.004428  3.969002  -0.002  0.035249  0.073338  -0.007724  3.946003  -0.004
C  C29  1  0.98826677  0.17195442  0.77533832  1  0.523611  -0.002277  4.25627  -0.001  0.558367  -0.000413  4.251761  0.001  0.20026  0.500398  -0.003149  4.257973  -0.002
C  C30  1  0.01172731  0.82804968  0.22465789  1  0.523642  -0.002276  4.256318  -0.001  0.558401  -0.000415  4.251809  0.001  0.20029  0.500431  -0.003149  4.258026  -0.002
C  C31  1  0.12409049  0.23391588  0.69692274  1  0.158037  -0.000106  3.837389  0.0  0.163896  0.000131  3.842124  0.0  0.08327  0.153301  -9.2e-05  3.834664  0.0
C  C32  1  0.87590778  0.76608712  0.30306992  1  0.158021  -0.000105  3.837353  0.0  0.163873  0.000132  3.842108  0.0  0.083272  0.153285  -9.2e-05  3.834629  0.0
N  N33  1  0.16950368  0.17594413  0.17678489  1  -0.198967  -0.014084  3.640497  -0.01  -0.227218  -0.010413  3.659548  -0.007  -0.342466  -0.185335  -0.016631  3.631025  -0.012
N  N34  1  0.83049692  0.82405442  0.82321359  1  -0.198949  -0.014086  3.640494  -0.01  -0.227205  -0.010417  3.659546  -0.007  -0.342439  -0.185315  -0.016632  3.631021  -0.012
Cl  Cl35  1  0.28533221  0.10467381  0.64915882  1  -0.034014  -0.00017  1.653234  0.0  -0.035349  -0.000342  1.644743  0.0  0.022515  -0.033167  -0.000253  1.659596  0.0
Cl  Cl36  1  0.71465916  0.89532460  0.35083288  1  -0.034018  -0.00017  1.653172  0.0  -0.035354  -0.000341  1.644685  0.0  0.0225  -0.033173  -0.000253  1.659534  0.0
Cl  Cl37  1  0.28035698  0.40603685  0.85240688  1  -0.071857  -0.000331  1.514625  0.0  -0.074477  -0.000125  1.506438  0.0  -0.004694  -0.070331  -0.00045  1.521095  0.0
Cl  Cl38  1  0.71964684  0.59396286  0.14759170  1  -0.071839  -0.000331  1.514614  0.0  -0.074459  -0.000125  1.50643  0.0  -0.004696  -0.070314  -0.00045  1.521084  0.0
Cl  Cl39  1  0.97548478  0.27748896  0.52014795  1  -0.056414  0.000124  1.626066  0.0  -0.060793  0.000146  1.621712  0.0  0.014073  -0.052631  0.000205  1.629016  0.0
Cl  Cl40  1  0.02450847  0.72251063  0.47984890  1  -0.056413  0.000124  1.626012  0.0  -0.060789  0.000147  1.621662  0.0  0.01409  -0.05263  0.000205  1.628962  0.0
O  O41  1  0.27765001  0.89217461  0.03389978  1  -0.465501  0.019477  2.544042  0.033  -0.48973  0.01605  2.53374  0.028  -0.400973  -0.447627  0.023436  2.54881  0.04
O  O42  1  0.72235291  0.10782738  0.96610463  1  -0.465374  0.019477  2.544049  0.033  -0.489601  0.01605  2.533755  0.028  -0.40094  -0.447502  0.023434  2.548818  0.04
O  O43  1  0.06865735  0.07943832  0.84684288  1  -0.505123  0.000591  2.523078  0.002  -0.542475  -0.002866  2.517001  -0.002  -0.289041  -0.480671  0.002159  2.525444  0.004
O  O44  1  0.93134569  0.92056479  0.15315863  1  -0.505098  0.000591  2.52317  0.002  -0.542434  -0.002862  2.517056  -0.002  -0.289033  -0.480639  0.002158  2.525515  0.004
O  O45  1  0.82641045  0.22506729  0.76683679  1  -0.531541  -0.001538  2.243442  -0.001  -0.554843  -0.001217  2.234793  -0.001  -0.30436  -0.51492  -0.001704  2.248547  -0.001
O  O46  1  0.17357738  0.77492199  0.23314379  1  -0.531616  -0.001538  2.243202  -0.001  -0.554923  -0.00122  2.234554  -0.001  -0.304398  -0.514993  -0.001704  2.248308  -0.001
