# generated using pymatgen
data_CuH4C6NCl
_symmetry_space_group_name_H-M   'P 1'
_cell_length_a   3.68056694
_cell_length_b   8.82147921
_cell_length_c   9.26373524
_cell_angle_alpha   112.56628292
_cell_angle_beta   95.13629970
_cell_angle_gamma   99.44715353
_symmetry_Int_Tables_number   1
_chemical_formula_structural   CuH4C6NCl
_chemical_formula_sum   'Cu2 H8 C12 N2 Cl2'
_cell_volume   270.11241461
_cell_formula_units_Z   2
loop_
 _symmetry_equiv_pos_site_id
 _symmetry_equiv_pos_as_xyz
  1  'x, y, z'
loop_
 _atom_site_type_symbol
 _atom_site_label
 _atom_site_symmetry_multiplicity
 _atom_site_fract_x
 _atom_site_fract_y
 _atom_site_fract_z
 _atom_site_occupancy
 _atom_site_pbe_bader_spin_density
 _atom_site_pbe_cm5_charge
 _atom_site_pbe_ddec_charge
 _atom_site_pbe_ddec_spin_density
 _atom_site_pbe_ddec_sum_bond_order
 _atom_site_pbe_magmom
Cu  Cu0  1  0.38224659  0.55785239  0.16030969  1  0  0.394351  0.388879  0  2.363925  0
Cu  Cu1  1  0.61773347  0.44213674  0.83962369  1  0  0.394594  0.389115  0  2.364341  0
H  H2  1  0.18329815  0.02785816  0.63922672  1  0  0.095524  0.1001  0  1.030193  0
H  H3  1  0.81662711  0.97213834  0.36080522  1  0  0.095621  0.100092  0  1.030327  0
H  H4  1  0.26149088  0.80444513  0.38604300  1  0  0.089104  0.098772  0  1.079576  0
H  H5  1  0.73846023  0.19558826  0.61394236  1  0  0.089089  0.098573  0  1.08005  0
H  H6  1  0.43869957  0.72806796  0.89172989  1  0  0.086415  0.103322  0  1.078369  0
H  H7  1  0.56128092  0.27190298  0.10824016  1  0  0.086437  0.103325  0  1.078231  0
H  H8  1  0.26253960  0.98811348  0.88957306  1  0  0.098774  0.106234  0  1.010575  0
H  H9  1  0.73747274  0.01190610  0.11047251  1  0  0.098824  0.106276  0  1.010767  0
C  C10  1  0.74149626  0.08698793  0.36242990  1  0  -0.084395  -0.048582  0  3.965052  0
C  C11  1  0.25861002  0.91300357  0.63753975  1  0  -0.084353  -0.048771  0  3.96491  0
C  C12  1  0.69668187  0.20928845  0.50192344  1  0  -0.097041  -0.167124  0  3.968723  0
C  C13  1  0.30337227  0.79069419  0.49805474  1  0  -0.097063  -0.167325  0  3.968753  0
C  C14  1  0.59840427  0.35916435  0.50517552  1  0  0.105051  0.164488  0  3.972461  0
C  C15  1  0.40153175  0.64080555  0.49482441  1  0  0.105236  0.164799  0  3.972008  0
C  C16  1  0.54316776  0.38069635  0.35891160  1  0  0.107296  0.168384  0  3.968  0
C  C17  1  0.45687276  0.61931727  0.64114438  1  0  0.107162  0.168543  0  3.967791  0
C  C18  1  0.59633765  0.25265304  0.21753044  1  0  -0.094301  -0.161655  0  3.964712  0
C  C19  1  0.40370431  0.74738998  0.78248648  1  0  -0.094162  -0.161744  0  3.965397  0
C  C20  1  0.69377147  0.10929469  0.21904464  1  0  -0.082732  -0.048504  0  3.957787  0
C  C21  1  0.30614281  0.89070011  0.78095942  1  0  -0.082662  -0.048297  0  3.957146  0
N  N22  1  0.55789625  0.47893403  0.64570164  1  0  -0.354331  -0.277355  0  3.60299  0
N  N23  1  0.44211543  0.52105534  0.35432547  1  0  -0.354039  -0.277044  0  3.602203  0
Cl  Cl24  1  0.90296911  0.68838229  0.09576952  1  0  -0.264231  -0.427267  0  1.86354  0
Cl  Cl25  1  0.09709938  0.31161535  0.90420576  1  0  -0.264169  -0.427235  0  1.863582  0
