# generated using pymatgen
data_CuH20C24N2O9
_symmetry_space_group_name_H-M   'P 1'
_cell_length_a   7.64087324
_cell_length_b   12.28986186
_cell_length_c   12.28980214
_cell_angle_alpha   78.18902773
_cell_angle_beta   76.13822560
_cell_angle_gamma   76.13895414
_symmetry_Int_Tables_number   1
_chemical_formula_structural   CuH20C24N2O9
_chemical_formula_sum   'Cu2 H40 C48 N4 O18'
_cell_volume   1074.47570153
_cell_formula_units_Z   2
loop_
 _symmetry_equiv_pos_site_id
 _symmetry_equiv_pos_as_xyz
  1  'x, y, z'
loop_
 _atom_site_type_symbol
 _atom_site_label
 _atom_site_symmetry_multiplicity
 _atom_site_fract_x
 _atom_site_fract_y
 _atom_site_fract_z
 _atom_site_occupancy
 _atom_site_pbe_cm5_charge
 _atom_site_pbe_ddec_charge
 _atom_site_pbe_ddec_spin_density
 _atom_site_pbe_ddec_sum_bond_order
 _atom_site_pbe_magmom
Cu  Cu0  1  0.31323275  0.89755223  0.66268979  1  0.694026  0.920589  -0.732539  2.08839  -0.568
Cu  Cu1  1  0.81322550  0.66269074  0.89755407  1  0.693984  0.920564  -0.732543  2.08841  -0.568
H  H2  1  0.89204531  0.72575488  0.47352530  1  0.117546  0.136064  8.2e-05  1.012908  0.0
H  H3  1  0.39206058  0.47351823  0.72574507  1  0.117557  0.13605  8.2e-05  1.012891  0.0
H  H4  1  0.91882408  0.83369692  0.61350924  1  0.135187  0.133325  -6.8e-05  1.009525  0.0
H  H5  1  0.41882233  0.61350445  0.83369152  1  0.135197  0.133378  -6.8e-05  1.009533  0.0
H  H6  1  0.24643132  0.92410575  0.21954619  1  0.112645  0.120346  0.000102  1.031548  0.0
H  H7  1  0.74643058  0.21954485  0.92410312  1  0.112647  0.120348  0.000102  1.03155  0.0
H  H8  1  0.24725598  0.02827741  0.37307747  1  0.135021  0.120275  0.00019  1.025138  0.0
H  H9  1  0.74724631  0.37307773  0.02827553  1  0.135024  0.120316  0.00019  1.024985  0.0
H  H10  1  0.21235363  0.83977538  0.09662363  1  0.118365  0.130689  4.2e-05  0.993438  0.0
H  H11  1  0.71236002  0.09662226  0.83976960  1  0.118412  0.130766  4.2e-05  0.993341  0.0
H  H12  1  0.20276158  0.71459683  0.96605646  1  0.136125  0.130889  0.000134  0.991288  0.0
H  H13  1  0.70276272  0.96605651  0.71458805  1  0.136068  0.130828  0.000134  0.991298  0.0
H  H14  1  0.95529737  0.60935555  0.37107547  1  0.110995  0.114334  5.7e-05  1.047091  0.0
H  H15  1  0.45529887  0.37107017  0.60934683  1  0.110991  0.114376  5.7e-05  1.04701  0.0
H  H16  1  0.95573854  0.49408372  0.22881652  1  0.137549  0.129824  5.1e-05  0.996508  0.0
H  H17  1  0.45573866  0.22881183  0.49407816  1  0.137564  0.129828  5.1e-05  0.996448  0.0
H  H18  1  0.56118357  0.75112025  0.36585091  1  0.098558  0.100799  -0.00028  1.042884  0.0
H  H19  1  0.06118687  0.36585352  0.75112006  1  0.098533  0.100785  -0.00028  1.042867  0.0
H  H20  1  0.61616525  0.65748735  0.19533987  1  0.099443  0.121562  -8.2e-05  1.046219  0.0
H  H21  1  0.11616975  0.19534377  0.65748635  1  0.099444  0.121555  -8.2e-05  1.046266  0.0
H  H22  1  0.29279477  0.41406832  0.39100833  1  0.105408  0.126393  -0.000113  0.99009  0.0
H  H23  1  0.79280280  0.39100320  0.41406693  1  0.105396  0.126382  -0.000113  0.990152  0.0
H  H24  1  0.26007077  0.19167310  0.80331975  1  0.097598  0.091698  -0.000324  1.061499  0.0
H  H25  1  0.76006670  0.80332053  0.19168234  1  0.097636  0.091755  -0.000324  1.061388  0.0
H  H26  1  0.53928849  0.52329994  0.12198513  1  0.298848  0.338913  -0.000615  0.991651  0.0
H  H27  1  0.03929823  0.12198413  0.52330050  1  0.298831  0.338941  -0.000615  0.991629  0.0
H  H28  1  0.20105911  0.34535716  0.92049218  1  0.100583  0.121211  -4.4e-05  1.023259  0.0
H  H29  1  0.70105561  0.92049477  0.34536322  1  0.100548  0.121163  -4.4e-05  1.023345  0.0
H  H30  1  0.88202790  0.15052416  0.19350141  1  0.105046  0.12851  -9.8e-05  0.992471  0.0
H  H31  1  0.38203247  0.19350323  0.15052943  1  0.105095  0.128522  -9.8e-05  0.99247  0.0
H  H32  1  0.23335598  0.51218634  0.55910753  1  0.097168  0.093782  1.9e-05  1.056866  0.0
H  H33  1  0.73335502  0.55910129  0.51218567  1  0.097182  0.093761  1.9e-05  1.056918  0.0
H  H34  1  0.03445538  0.41306086  0.08151927  1  0.291017  0.328418  -6e-06  1.01662  0.0
H  H35  1  0.53446278  0.08151987  0.41306672  1  0.291042  0.328455  -6e-06  1.016609  0.0
H  H36  1  0.93286811  0.00079889  0.07249199  1  0.096474  0.096929  -5e-06  1.056825  0.0
H  H37  1  0.43287800  0.07249292  0.00080317  1  0.096426  0.096847  -5e-06  1.056809  0.0
H  H38  1  0.50769040  0.83451214  0.82309027  1  0.284392  0.37994  -0.000588  0.973362  -0.001
H  H39  1  0.00768468  0.82309079  0.83451042  1  0.284352  0.379879  -0.000589  0.973453  -0.001
H  H40  1  0.58751460  0.75233751  0.72435315  1  0.286866  0.379011  -0.000215  0.974159  0.0
H  H41  1  0.08750882  0.72435286  0.75233801  1  0.286861  0.379031  -0.000215  0.974136  0.0
C  C42  1  0.97600605  0.79008686  0.44373495  1  -0.067932  -0.1379  0.006064  3.90924  0.004
C  C43  1  0.47601382  0.44373133  0.79007916  1  -0.067928  -0.137822  0.006064  3.909134  0.004
C  C44  1  0.07462461  0.81019175  0.33151702  1  0.018141  0.098945  -0.013602  3.96588  -0.013
C  C45  1  0.57463289  0.33151385  0.81018602  1  0.018162  0.098904  -0.0136  3.965932  -0.013
C  C46  1  0.98366777  0.85079612  0.52453390  1  0.054718  0.000533  -0.009824  3.830864  -0.01
C  C47  1  0.48366943  0.52452937  0.85079297  1  0.054661  0.000344  -0.009822  3.830936  -0.01
C  C48  1  0.16892249  0.90062704  0.30437472  1  -0.066926  -0.13571  0.006326  3.9267  0.004
C  C49  1  0.66892402  0.30437281  0.90062064  1  -0.066877  -0.135606  0.006326  3.926713  0.004
C  C50  1  0.17312402  0.95994536  0.38716116  1  0.055196  0.002194  -0.011203  3.827713  -0.011
C  C51  1  0.67312064  0.38716146  0.95994053  1  0.055174  0.002064  -0.011203  3.827599  -0.011
C  C52  1  0.08064190  0.73838362  0.24851982  1  0.004482  0.069407  0.003336  3.987669  0.003
C  C53  1  0.58064604  0.24851900  0.73837575  1  0.004498  0.069474  0.003336  3.987576  0.003
C  C54  1  0.15486523  0.76423529  0.13222206  1  -0.062278  -0.116511  -0.003706  3.908591  -0.004
C  C55  1  0.65487135  0.13221852  0.76422780  1  -0.062394  -0.116696  -0.003706  3.908838  -0.004
C  C56  1  0.15232048  0.69580495  0.05676069  1  0.049437  -0.008946  0.002488  3.815704  0.002
C  C57  1  0.65232014  0.05676613  0.69580040  1  0.049542  -0.008732  0.002487  3.81613  0.002
C  C58  1  0.01025108  0.63829634  0.28261535  1  -0.071226  -0.134283  -0.003473  3.977616  -0.003
C  C59  1  0.51025602  0.28261080  0.63828954  1  -0.071248  -0.134436  -0.003472  3.977665  -0.003
C  C60  1  0.00986563  0.57155923  0.20551258  1  0.043243  -0.034995  0.002409  3.840064  0.002
C  C61  1  0.50987116  0.20551133  0.57155067  1  0.043202  -0.034932  0.00241  3.839869  0.002
C  C62  1  0.50632032  0.67585398  0.37131386  1  -0.09139  -0.069797  -7.7e-05  4.009  0.0
C  C63  1  0.00632189  0.37131444  0.67585317  1  -0.091363  -0.069752  -7.7e-05  4.009186  0.0
C  C64  1  0.53756711  0.62344818  0.27651038  1  -0.117786  -0.247405  -3e-05  3.989247  0.0
C  C65  1  0.03757006  0.27651061  0.62345021  1  -0.11778  -0.247376  -3e-05  3.989303  0.0
C  C66  1  0.39824558  0.63609720  0.47442616  1  -0.04194  -0.088473  -0.005656  4.028707  -0.006
C  C67  1  0.89824899  0.47442339  0.63609691  1  -0.041969  -0.088611  -0.005656  4.028787  -0.006
C  C68  1  0.46053041  0.52849950  0.28355219  1  0.085045  0.336475  0.000117  4.081866  0.0
C  C69  1  0.96053386  0.28354909  0.52849986  1  0.085023  0.33646  0.000117  4.081836  0.0
C  C70  1  0.35550530  0.48602981  0.38720068  1  -0.108554  -0.213287  -0.001007  3.960835  -0.001
C  C71  1  0.85550717  0.38719588  0.48603113  1  -0.108491  -0.213207  -0.001006  3.960886  -0.001
C  C72  1  0.34888593  0.69908611  0.57241432  1  0.20285  0.564909  0.000666  4.208458  0.003
C  C73  1  0.84888653  0.57240961  0.69908790  1  0.20292  0.565053  0.000666  4.208346  0.003
C  C74  1  0.17663121  0.18355175  0.88843588  1  -0.088572  -0.067069  -0.000115  4.017728  0.0
C  C75  1  0.67662769  0.88843794  0.18355779  1  -0.088627  -0.067259  -0.000115  4.018006  0.0
C  C76  1  0.14587086  0.26848983  0.95393644  1  -0.11432  -0.238488  -0.000153  3.976413  0.0
C  C77  1  0.64586831  0.95393763  0.26849708  1  -0.114312  -0.238396  -0.000153  3.976641  0.0
C  C78  1  0.03797811  0.25726932  0.06412712  1  0.084428  0.329268  0.00031  4.08305  0.0
C  C79  1  0.53798079  0.06413215  0.25727343  1  0.084396  0.329235  0.000309  4.083083  0.0
C  C80  1  0.96546136  0.15855906  0.10791789  1  -0.106555  -0.211719  -0.000511  3.949214  -0.001
C  C81  1  0.46546614  0.10791721  0.15856539  1  -0.106646  -0.211769  -0.000511  3.949489  -0.001
C  C82  1  0.32364927  0.54057673  0.48068270  1  -0.091458  -0.083818  -0.000351  4.015221  -0.001
C  C83  1  0.82365300  0.48067871  0.54057488  1  -0.091489  -0.083807  -0.000351  4.015179  -0.001
C  C84  1  0.99471458  0.07526950  0.04036388  1  -0.087991  -0.082678  -0.000433  4.006221  -0.001
C  C85  1  0.49472036  0.04036565  0.07527555  1  -0.08795  -0.082565  -0.000434  4.005917  -0.001
C  C86  1  0.12779276  0.99825350  0.85639662  1  0.206747  0.581456  0.000312  4.18187  0.002
C  C87  1  0.62779068  0.85639931  0.99825626  1  0.206798  0.581605  0.000312  4.181986  0.002
C  C88  1  0.09995120  0.08660339  0.92935486  1  -0.039014  -0.08892  -0.005095  4.014673  -0.006
C  C89  1  0.59995634  0.92935523  0.08661124  1  -0.038938  -0.088842  -0.005097  4.014452  -0.006
N  N90  1  0.08602716  0.93216481  0.49588640  1  -0.127546  0.303501  0.005699  3.91112  0.007
N  N91  1  0.58602222  0.49588404  0.93216088  1  -0.127502  0.303681  0.005697  3.911113  0.007
N  N92  1  0.07886835  0.60078035  0.09282448  1  -0.109728  0.329849  -0.003399  3.965962  -0.004
N  N93  1  0.57887871  0.09282191  0.60077409  1  -0.109754  0.329705  -0.003399  3.965941  -0.004
O  O94  1  0.23332188  0.01459469  0.75716625  1  -0.337579  -0.55442  -0.056901  2.379745  -0.079
O  O95  1  0.73330796  0.75716909  0.01459671  1  -0.337584  -0.554479  -0.056896  2.379939  -0.079
O  O96  1  0.10725045  0.98362310  0.57728150  1  -0.242495  -0.505431  -0.046266  2.164144  -0.064
O  O97  1  0.60724308  0.57727927  0.98362140  1  -0.242489  -0.505468  -0.046267  2.164126  -0.064
O  O98  1  0.07230595  0.53903772  0.01866960  1  -0.220375  -0.481635  -0.005858  1.983702  -0.009
O  O99  1  0.57232183  0.01866881  0.53902883  1  -0.22031  -0.481568  -0.005857  1.983741  -0.009
O  O100  1  0.40135881  0.79526087  0.55311167  1  -0.335271  -0.548886  -0.063736  2.375855  -0.089
O  O101  1  0.90135997  0.55311011  0.79526273  1  -0.335275  -0.548931  -0.063741  2.375863  -0.089
O  O102  1  0.47839002  0.47830107  0.19231822  1  -0.362078  -0.457977  -0.001638  2.307848  -0.002
O  O103  1  0.97839884  0.19231776  0.47830048  1  -0.362041  -0.458021  -0.001638  2.307839  -0.002
O  O104  1  0.99563433  0.34115922  0.12798629  1  -0.363193  -0.466649  -9.7e-05  2.315733  0.0
O  O105  1  0.49564018  0.12798925  0.34116609  1  -0.363191  -0.466686  -9.7e-05  2.315577  0.0
O  O106  1  0.25509737  0.65924930  0.66500169  1  -0.312352  -0.545606  -0.002974  2.236156  -0.005
O  O107  1  0.75509562  0.66499597  0.65924969  1  -0.312398  -0.545671  -0.002975  2.236095  -0.005
O  O108  1  0.47282490  0.79920605  0.76549135  1  -0.585592  -0.794575  -0.053989  2.256396  -0.075
O  O109  1  0.97281731  0.76549063  0.79920538  1  -0.585538  -0.794539  -0.05399  2.256349  -0.075
O  O110  1  0.04826035  0.91524353  0.89377189  1  -0.311011  -0.544817  -0.003331  2.230119  -0.006
O  O111  1  0.54825883  0.89378156  0.91524649  1  -0.311054  -0.544928  -0.003332  2.230033  -0.006
