# generated using pymatgen
data_VH4C5SeNO4
_symmetry_space_group_name_H-M   'P 1'
_cell_length_a   7.18350810
_cell_length_b   10.80659523
_cell_length_c   11.04963466
_cell_angle_alpha   115.12405691
_cell_angle_beta   107.52867727
_cell_angle_gamma   92.71919575
_symmetry_Int_Tables_number   1
_chemical_formula_structural   VH4C5SeNO4
_chemical_formula_sum   'V4 H16 C20 Se4 N4 O16'
_cell_volume   725.13047136
_cell_formula_units_Z   4
loop_
 _symmetry_equiv_pos_site_id
 _symmetry_equiv_pos_as_xyz
  1  'x, y, z'
loop_
 _atom_site_type_symbol
 _atom_site_label
 _atom_site_symmetry_multiplicity
 _atom_site_fract_x
 _atom_site_fract_y
 _atom_site_fract_z
 _atom_site_occupancy
 _atom_site_hle17_ddec_charge
 _atom_site_hle17_ddec_spin_density
 _atom_site_hle17_ddec_sum_bond_order
 _atom_site_hle17_magmom
 _atom_site_hse06_10hf_ddec_charge
 _atom_site_hse06_10hf_ddec_spin_density
 _atom_site_hse06_10hf_ddec_sum_bond_order
 _atom_site_hse06_10hf_magmom
 _atom_site_hse06_ddec_charge
 _atom_site_hse06_ddec_spin_density
 _atom_site_hse06_ddec_sum_bond_order
 _atom_site_hse06_magmom
 _atom_site_pbe_cm5_charge
 _atom_site_pbe_ddec_charge
 _atom_site_pbe_ddec_spin_density
 _atom_site_pbe_ddec_sum_bond_order
 _atom_site_pbe_magmom
V  V0  1  0.24341247  0.32493372  0.96654215  1  1.709122  1.236145  2.661005  1.187  1.712256  1.015518  3.095934  0.981  1.811561  1.076555  3.032076  1.04  1.314902  1.647032  0.940866  3.143865  0.908
V  V1  1  0.75658652  0.67506776  0.03345858  1  1.709177  -1.236153  2.660876  -1.187  1.71228  -1.015527  3.095861  -0.981  1.811629  -1.076552  3.031925  -1.04  1.314902  1.647071  -0.940885  3.143765  -0.908
V  V2  1  0.23595644  0.82106130  0.48989433  1  1.706492  1.223252  2.694399  1.173  1.709008  0.999556  3.135877  0.964  1.808043  1.069079  3.067721  1.031  1.319577  1.646401  0.914991  3.182804  0.882
V  V3  1  0.76404197  0.17893810  0.51010541  1  1.706435  -1.223271  2.694425  -1.173  1.709004  -0.999543  3.135848  -0.964  1.808046  -1.069085  3.067671  -1.031  1.319572  1.646392  -0.914985  3.182766  -0.882
H  H4  1  0.46360846  0.09223988  0.92021027  1  0.092507  -0.000201  0.944459  -0.001  0.098282  0.000357  1.011721  0.0  0.101676  0.000228  1.008243  0.0  0.118158  0.095243  0.000518  1.015033  0.0
H  H5  1  0.53638965  0.90775846  0.07978988  1  0.092477  0.000201  0.944477  0.001  0.098251  -0.000358  1.011743  0.0  0.101645  -0.000228  1.008265  0.0  0.118133  0.095226  -0.000518  1.015038  0.0
H  H6  1  0.78998400  0.04229011  0.02792735  1  0.122944  0.00044  0.939101  0.0  0.136442  0.000174  0.991991  0.0  0.139953  0.000192  0.991108  0.0  0.112824  0.133751  0.00012  0.993039  0.0
H  H7  1  0.21001411  0.95770824  0.97207190  1  0.122953  -0.00044  0.939098  0.0  0.136454  -0.000174  0.991983  0.0  0.139964  -0.000192  0.9911  0.0  0.112824  0.133763  -0.00012  0.993031  0.0
H  H8  1  0.96759446  0.47945141  0.34057133  1  0.129286  -0.000408  0.957099  0.0  0.142303  -0.000613  1.011543  0.0  0.147168  -0.000589  1.008477  0.0  0.109982  0.138214  -0.000597  1.014636  0.0
H  H9  1  0.03240658  0.52054695  0.65942940  1  0.12929  0.000407  0.957113  0.0  0.142293  0.000613  1.011565  0.0  0.147158  0.000589  1.008499  0.0  0.109971  0.138207  0.000597  1.014656  0.0
H  H10  1  0.63123810  0.50839560  0.22442594  1  0.097341  -0.000631  0.956567  -0.001  0.10189  -0.000206  1.023373  0.0  0.106054  -0.000219  1.018665  0.0  0.116759  0.09791  -0.000211  1.02797  0.0
H  H11  1  0.36876352  0.49160485  0.77557487  1  0.097325  0.000632  0.956586  0.001  0.101856  0.000206  1.023399  0.0  0.10602  0.000219  1.018691  0.0  0.116734  0.097877  0.000211  1.027991  0.0
H  H12  1  0.34612671  0.99454647  0.32951975  1  0.082657  0.000744  0.963741  0.001  0.081255  0.00015  1.045519  0.0  0.085005  0.000153  1.04084  0.0  0.11275  0.077479  0.000125  1.050285  0.0
H  H13  1  0.65387433  0.00545190  0.67048008  1  0.082634  -0.000744  0.963762  -0.001  0.081255  -0.00015  1.045505  0.0  0.085005  -0.000153  1.040827  0.0  0.112752  0.077481  -0.000125  1.05027  0.0
H  H14  1  0.00828416  0.02034859  0.21521712  1  0.135378  0.000327  0.959312  0.0  0.144776  0.000689  1.018793  0.0  0.150153  0.000612  1.014998  0.0  0.110013  0.140129  0.000741  1.022425  0.0
H  H15  1  0.99171717  0.97965082  0.78478320  1  0.135371  -0.000327  0.959285  0.0  0.144782  -0.000689  1.018756  0.0  0.150159  -0.000612  1.014962  0.0  0.110015  0.140138  -0.000741  1.022389  0.0
H  H16  1  0.26762706  0.43903554  0.31921475  1  0.124005  -0.000261  0.951256  0.0  0.130391  0.000153  1.016571  0.0  0.134793  6.7e-05  1.013869  0.0  0.11334  0.126677  0.000262  1.019288  0.0
H  H17  1  0.73237106  0.56096281  0.68078541  1  0.123981  0.000262  0.95127  0.0  0.130373  -0.000153  1.016583  0.0  0.134775  -6.7e-05  1.013879  0.0  0.11333  0.126661  -0.000262  1.019297  0.0
H  H18  1  0.59592049  0.39697342  0.43462621  1  0.078357  0.000744  0.957594  0.001  0.087242  0.000222  1.022931  0.0  0.089475  0.000178  1.021567  0.0  0.117847  0.084994  0.000266  1.025174  0.0
H  H19  1  0.40408084  0.60302599  0.56537320  1  0.078367  -0.000744  0.957586  -0.001  0.08725  -0.000222  1.022917  0.0  0.08948  -0.000178  1.021559  0.0  0.117838  0.084992  -0.000266  1.025172  0.0
C  C20  1  0.57772215  0.17348184  0.01644924  1  0.11541  0.013534  3.720341  0.011  0.084549  0.008681  3.986485  0.007  0.093229  0.007444  4.003907  0.006  0.037582  0.076751  0.011526  3.97953  0.009
C  C21  1  0.42227801  0.82651860  0.98355219  1  0.115471  -0.013546  3.720232  -0.011  0.084617  -0.008676  3.986384  -0.007  0.093297  -0.007443  4.00381  -0.006  0.037638  0.076832  -0.011526  3.9794  -0.009
C  C22  1  0.76052020  0.14694951  0.07655375  1  -0.1424  -0.013041  3.672119  -0.01  -0.158948  -0.006532  3.915732  -0.004  -0.165353  -0.006129  3.93292  -0.004  -0.07477  -0.155509  -0.00823  3.907069  -0.006
C  C23  1  0.23947674  0.85304988  0.92344570  1  -0.142427  0.013056  3.672103  0.01  -0.158996  0.00653  3.915705  0.004  -0.165402  0.006128  3.932895  0.004  -0.074802  -0.155563  0.008229  3.907048  0.006
C  C24  1  0.90839450  0.25670418  0.19524609  1  0.116366  0.01366  3.723893  0.011  0.126325  0.008556  3.952541  0.007  0.132744  0.007233  3.968217  0.006  0.020948  0.119954  0.012124  3.945565  0.01
C  C25  1  0.09160828  0.74329523  0.80475361  1  0.11635  -0.013673  3.723921  -0.011  0.126353  -0.008555  3.952497  -0.007  0.132771  -0.00723  3.968176  -0.006  0.020995  0.119984  -0.012121  3.945515  -0.01
C  C26  1  0.86144743  0.38927520  0.24857718  1  -0.125075  -0.01309  3.639665  -0.01  -0.142882  -0.006409  3.881394  -0.005  -0.147892  -0.006179  3.895043  -0.005  -0.07396  -0.141754  -0.007539  3.876996  -0.006
C  C27  1  0.13854951  0.61072419  0.75142228  1  -0.12509  0.013107  3.639673  0.01  -0.142907  0.006406  3.881343  0.005  -0.147915  0.006179  3.894988  0.005  -0.073972  -0.141778  0.007539  3.876939  0.006
C  C28  1  0.67364280  0.40728368  0.18492604  1  0.140464  0.011869  3.680949  0.01  0.108668  0.007283  3.949291  0.006  0.117965  0.006255  3.964071  0.006  0.043752  0.100796  0.009882  3.944297  0.008
C  C29  1  0.32635999  0.59271573  0.81507366  1  0.140464  -0.011882  3.681019  -0.01  0.108727  -0.00728  3.94928  -0.006  0.118026  -0.006256  3.964058  -0.006  0.043787  0.100858  -0.009882  3.944291  -0.008
C  C30  1  0.32164918  0.09228674  0.32695299  1  0.122146  -0.018168  3.706729  -0.015  0.090294  -0.012995  3.976668  -0.01  0.099757  -0.009857  3.99306  -0.008  0.037385  0.081489  -0.018488  3.971449  -0.014
C  C31  1  0.67835040  0.90771161  0.67304655  1  0.122175  0.018183  3.706691  0.015  0.090316  0.012993  3.976631  0.01  0.099777  0.009853  3.993025  0.008  0.037385  0.081516  0.018487  3.971405  0.014
C  C32  1  0.13261292  0.10767107  0.26202722  1  -0.142503  0.017  3.659416  0.013  -0.161838  0.008153  3.905017  0.006  -0.168135  0.008056  3.919269  0.006  -0.076441  -0.159187  0.009474  3.900592  0.008
C  C33  1  0.86738811  0.89232730  0.73797170  1  -0.142476  -0.01702  3.659234  -0.013  -0.161837  -0.008152  3.904866  -0.006  -0.168131  -0.008059  3.919119  -0.006  -0.076429  -0.159188  -0.009473  3.900448  -0.008
C  C34  1  0.10604874  0.23467571  0.26054952  1  0.123188  -0.020811  3.721594  -0.016  0.135644  -0.016006  3.945069  -0.012  0.144231  -0.012274  3.959152  -0.009  0.020371  0.127361  -0.023274  3.939361  -0.017
C  C35  1  0.89395083  0.76532265  0.73945002  1  0.123145  0.020826  3.721503  0.016  0.135589  0.016001  3.944978  0.012  0.144174  0.012278  3.959063  0.009  0.020332  0.127309  0.023272  3.939269  0.017
C  C36  1  0.27652496  0.34077956  0.32386068  1  -0.14299  0.016376  3.663016  0.012  -0.161201  0.007644  3.909959  0.006  -0.167788  0.007979  3.925384  0.006  -0.074417  -0.158211  0.007897  3.903453  0.006
C  C37  1  0.72347636  0.65921985  0.67613873  1  -0.142938  -0.016393  3.663047  -0.012  -0.161155  -0.007642  3.909991  -0.006  -0.167742  -0.007984  3.925416  -0.006  -0.07441  -0.158166  -0.007896  3.903481  -0.006
C  C38  1  0.46053254  0.31772350  0.38640086  1  0.134066  -0.019593  3.693011  -0.015  0.105913  -0.013356  3.947201  -0.01  0.115498  -0.01139  3.963583  -0.009  0.042265  0.098239  -0.017248  3.940027  -0.012
C  C39  1  0.53946586  0.68227589  0.61359798  1  0.13406  0.019608  3.693  0.015  0.105917  0.013354  3.947174  0.01  0.115503  0.011392  3.963558  0.009  0.042293  0.098254  0.017248  3.940003  0.012
Se  Se40  1  0.21148124  0.65074912  0.14913545  1  1.354718  0.036011  3.35015  0.026  1.312623  0.040052  3.818651  0.028  1.364266  0.02965  3.793783  0.022  0.662523  1.275242  0.050176  3.832696  0.033
Se  Se41  1  0.78851776  0.34925237  0.85086528  1  1.354718  -0.036008  3.350121  -0.026  1.312625  -0.040047  3.818623  -0.028  1.364265  -0.029648  3.793757  -0.022  0.662525  1.275241  -0.050171  3.832668  -0.033
Se  Se42  1  0.20986722  0.14946435  0.62932855  1  1.337605  0.029988  3.38775  0.021  1.295955  0.033188  3.854686  0.023  1.346434  0.024512  3.830509  0.018  0.657674  1.259223  0.041826  3.869211  0.028
Se  Se43  1  0.79013265  0.85053505  0.37067148  1  1.337663  -0.029982  3.387781  -0.021  1.296016  -0.033193  3.854713  -0.023  1.346496  -0.024542  3.830537  -0.018  0.657694  1.259284  -0.041822  3.869245  -0.028
N  N44  1  0.53265637  0.30168266  0.07053634  1  -0.39202  -0.017944  3.33856  -0.03  -0.351111  -0.004195  3.632562  -0.018  -0.376471  -0.005466  3.656689  -0.018  -0.390647  -0.337606  -0.003103  3.62156  -0.017
N  N45  1  0.46734204  0.69831674  0.92946340  1  -0.391987  0.017955  3.33868  0.03  -0.351108  0.004195  3.632677  0.018  -0.376477  0.005467  3.656806  0.018  -0.390645  -0.337634  0.003104  3.621707  0.017
N  N46  1  0.48454936  0.19570221  0.38994626  1  -0.366939  0.020913  3.311261  0.034  -0.320825  0.005877  3.593791  0.02  -0.344617  0.008038  3.614015  0.021  -0.393217  -0.308678  0.002464  3.584725  0.018
N  N47  1  0.51545050  0.80429720  0.61005196  1  -0.366959  -0.020921  3.311295  -0.034  -0.320836  -0.005871  3.593821  -0.02  -0.34463  -0.008035  3.614048  -0.021  -0.393208  -0.308689  -0.002461  3.584755  -0.018
O  O48  1  0.30521469  0.50045812  0.13519498  1  -0.810556  -0.004709  1.829087  -0.02  -0.785884  0.009561  2.137658  -0.007  -0.822384  0.008153  2.121843  -0.008  -0.47248  -0.75776  0.010422  2.146586  -0.006
O  O49  1  0.69478547  0.49954233  0.86480463  1  -0.810593  0.004707  1.829085  0.02  -0.785919  -0.009556  2.137663  0.007  -0.822426  -0.008161  2.121842  0.008  -0.4725  -0.757796  -0.010423  2.146583  0.006
O  O50  1  0.33426019  0.27038868  0.80616708  1  -0.806606  0.001605  1.853939  -0.012  -0.783767  0.014995  2.166117  0.0  -0.819583  0.013641  2.149124  0.0  -0.470374  -0.75619  0.015589  2.177026  0.0
O  O51  1  0.66574085  0.72960967  0.19383455  1  -0.806652  -0.00161  1.853997  0.012  -0.783795  -0.014994  2.166161  0.0  -0.819622  -0.013627  2.149164  0.0  -0.470385  -0.756219  -0.01559  2.177067  0.0
O  O52  1  0.11788172  0.19801764  0.96707830  1  -0.72781  -0.211574  1.371079  -0.21  -0.746914  -0.092673  1.658791  -0.095  -0.792965  -0.116098  1.651518  -0.12  -0.588288  -0.710226  -0.076641  1.662347  -0.078
O  O53  1  0.88211056  0.80198591  0.03292107  1  -0.727835  0.211576  1.370972  0.21  -0.746924  0.092676  1.658683  0.095  -0.792989  0.1161  1.651395  0.12  -0.588284  -0.710241  0.076641  1.662233  0.078
O  O54  1  0.09957288  0.70669004  0.50129733  1  -0.73431  -0.205903  1.359232  -0.205  -0.751144  -0.089841  1.64132  -0.092  -0.798347  -0.113298  1.632523  -0.117  -0.589257  -0.713656  -0.073533  1.645484  -0.075
O  O55  1  0.90042582  0.29331040  0.49870291  1  -0.734293  0.205918  1.359259  0.205  -0.751135  0.089834  1.641303  0.092  -0.798344  0.113313  1.632516  0.117  -0.589246  -0.713646  0.073534  1.645466  0.075
O  O56  1  0.33463029  0.74767589  0.33371022  1  -0.824882  -0.000645  1.803867  -0.015  -0.802863  0.013816  2.114178  -0.002  -0.83873  0.012016  2.095329  -0.003  -0.481827  -0.775261  0.015127  2.124758  -0.001
O  O57  1  0.66536871  0.25232559  0.66629051  1  -0.82487  0.000645  1.803885  0.015  -0.802847  -0.013817  2.114155  0.002  -0.838726  -0.012016  2.095339  0.003  -0.481816  -0.775241  -0.015126  2.12473  0.001
O  O58  1  0.97013107  0.60224466  0.13411273  1  -0.842836  -0.005577  1.88056  0.006  -0.821501  -0.015557  2.188399  -0.004  -0.857718  -0.015323  2.17639  -0.004  -0.453212  -0.793831  -0.014022  2.195121  -0.003
O  O59  1  0.02986938  0.39775683  0.86588738  1  -0.842804  0.00558  1.880484  -0.006  -0.821458  0.015549  2.18828  0.004  -0.857681  0.015322  2.176311  0.004  -0.453215  -0.793784  0.014022  2.195001  0.003
O  O60  1  0.96924233  0.11270220  0.62447266  1  -0.850454  -0.007649  1.893488  0.004  -0.825028  -0.017631  2.199121  -0.006  -0.861611  -0.0171  2.187092  -0.005  -0.454023  -0.797331  -0.016038  2.206163  -0.005
O  O61  1  0.03075608  0.88729720  0.37552798  1  -0.850446  0.007649  1.893424  -0.004  -0.825011  0.017631  2.199066  0.006  -0.861599  0.017113  2.187036  0.005  -0.454035  -0.797316  0.016039  2.206111  0.005
O  O62  1  0.30430007  0.00755443  0.64418961  1  -0.812672  -0.007202  1.800925  -0.021  -0.789956  0.007065  2.107939  -0.008  -0.826443  0.005671  2.091989  -0.009  -0.475759  -0.761743  0.008267  2.116821  -0.007
O  O63  1  0.69569980  0.99244497  0.35581133  1  -0.812688  0.007199  1.800969  0.021  -0.789982  -0.007062  2.107987  0.008  -0.826473  -0.005676  2.092041  0.009  -0.475749  -0.761765  -0.008267  2.116867  0.007
