# generated using pymatgen
data_CuH11Pt(C2N)7
_symmetry_space_group_name_H-M   'P 1'
_cell_length_a   10.63598925
_cell_length_b   10.64224089
_cell_length_c   14.89000000
_cell_angle_alpha   74.36276636
_cell_angle_beta   74.35333964
_cell_angle_gamma   80.38430921
_symmetry_Int_Tables_number   1
_chemical_formula_structural   CuH11Pt(C2N)7
_chemical_formula_sum   'Cu4 H44 Pt4 C56 N28'
_cell_volume   1554.77580471
_cell_formula_units_Z   4
loop_
 _symmetry_equiv_pos_site_id
 _symmetry_equiv_pos_as_xyz
  1  'x, y, z'
loop_
 _atom_site_type_symbol
 _atom_site_label
 _atom_site_symmetry_multiplicity
 _atom_site_fract_x
 _atom_site_fract_y
 _atom_site_fract_z
 _atom_site_occupancy
 _atom_site_hle17_ddec_charge
 _atom_site_hle17_ddec_spin_density
 _atom_site_hle17_ddec_sum_bond_order
 _atom_site_hle17_magmom
 _atom_site_hse06_10hf_ddec_charge
 _atom_site_hse06_10hf_ddec_spin_density
 _atom_site_hse06_10hf_ddec_sum_bond_order
 _atom_site_hse06_10hf_magmom
 _atom_site_hse06_ddec_charge
 _atom_site_hse06_ddec_spin_density
 _atom_site_hse06_ddec_sum_bond_order
 _atom_site_hse06_magmom
 _atom_site_pbe_bader_charge
 _atom_site_pbe_bader_spin_density
 _atom_site_pbe_cm5_charge
 _atom_site_pbe_ddec_charge
 _atom_site_pbe_ddec_spin_density
 _atom_site_pbe_ddec_sum_bond_order
 _atom_site_pbe_magmom
Cu  Cu0  1  0.69049901  0.21880066  0.59034723  1  0.805482  -0.740347  2.067049  -0.518  0.768364  -0.810064  2.489923  -0.621  0.843966  -0.885275  2.42796  -0.704  1.047977  -0.56945  0.800639  0.727002  -0.756872  2.529367  -0.567
Cu  Cu1  1  0.78115209  0.30946908  0.90961429  1  0.806085  0.740278  2.065829  0.518  0.768929  0.810104  2.488671  0.621  0.844429  0.885364  2.426892  0.704  1.048618  0.569402  0.800623  0.727098  0.756857  2.528785  0.567
Cu  Cu2  1  0.30950770  0.78119831  0.40965302  1  0.805462  0.740335  2.067183  0.518  0.768356  0.810064  2.490053  0.621  0.84394  0.885259  2.428072  0.704  1.047886  0.569415  0.800669  0.727  0.756847  2.529486  0.567
Cu  Cu3  1  0.21884007  0.69052891  0.09038626  1  0.80585  -0.74029  2.066299  -0.518  0.768679  -0.810098  2.489143  -0.621  0.844224  -0.885364  2.42733  -0.704  1.048485  -0.569435  0.800541  0.727056  -0.75689  2.528938  -0.567
H  H4  1  0.76248837  0.46941049  0.61601692  1  0.097431  -0.001921  0.95559  -0.003  0.101741  -0.001511  1.021582  -0.002  0.101879  -0.001056  1.022411  -0.002  0.164227  -0.0038  0.12124  0.101729  -0.001921  1.020919  -0.003
H  H5  1  0.53038798  0.23743006  0.88395837  1  0.0975  0.001918  0.955531  0.003  0.101782  0.001511  1.021609  0.002  0.101893  0.001055  1.022502  0.002  0.168356  0.003791  0.121315  0.101783  0.001921  1.020904  0.003
H  H6  1  0.23751638  0.53058848  0.38398237  1  0.097466  0.00192  0.955604  0.003  0.101777  0.001511  1.021615  0.002  0.101912  0.001056  1.022446  0.002  0.164145  0.003799  0.121236  0.101773  0.00192  1.020921  0.003
H  H7  1  0.46960067  0.76256400  0.11604764  1  0.097445  -0.001919  0.955534  -0.003  0.101726  -0.001511  1.021633  -0.002  0.101834  -0.001055  1.02253  -0.002  0.168237  -0.00379  0.121275  0.101726  -0.001921  1.02093  -0.003
H  H8  1  0.96714782  0.54024795  0.63360240  1  0.106968  -0.000661  0.949166  -0.001  0.121355  -0.000594  1.00055  -0.001  0.123147  -0.00041  1.001855  -0.001  0.070741  -0.001511  0.110447  0.118751  -0.000784  1.002373  -0.001
H  H9  1  0.45953431  0.03285575  0.86639454  1  0.10714  0.000659  0.949639  0.001  0.12158  0.000593  1.000887  0.001  0.123374  0.00041  1.002185  0.001  0.068774  0.00151  0.110581  0.118964  0.000783  1.002723  0.001
H  H10  1  0.03285546  0.45975592  0.36639354  1  0.106915  0.000666  0.949135  0.001  0.121236  0.000592  1.000598  0.001  0.12303  0.00041  1.001901  0.001  0.070754  0.00151  0.110384  0.118637  0.000783  1.002421  0.001
H  H11  1  0.54045504  0.96713144  0.13362006  1  0.107014  -0.00066  0.949809  -0.001  0.121478  -0.000594  1.001028  -0.001  0.123285  -0.00041  1.002291  -0.001  0.068793  -0.00151  0.110577  0.118854  -0.000783  1.002881  -0.001
H  H12  1  0.16609781  0.37707265  0.63895551  1  0.098002  -0.000328  0.959318  -0.001  0.097689  -3e-05  1.038464  0.0  0.101225  9e-06  1.034003  0.0  0.129896  -0.000171  0.102617  0.095289  -0.000101  1.041235  0.0
H  H13  1  0.62281178  0.83402136  0.86105454  1  0.097746  0.00033  0.959681  0.001  0.097502  3.1e-05  1.038788  0.0  0.101035  -9e-06  1.034328  0.0  0.130041  0.000171  0.102515  0.0951  0.000101  1.041551  0.0
H  H14  1  0.83390701  0.62293514  0.36104206  1  0.098008  0.00033  0.959448  0.001  0.097678  3e-05  1.038635  0.0  0.101214  -9e-06  1.034178  0.0  0.130035  0.00017  0.102627  0.095281  0.0001  1.041399  0.0
H  H15  1  0.37718068  0.16597368  0.13895055  1  0.097832  -0.000332  0.959637  -0.001  0.0976  -3e-05  1.038727  0.0  0.101133  8e-06  1.034268  0.0  0.130137  -0.000172  0.102568  0.095197  -0.000101  1.04149  0.0
H  H16  1  0.15180909  0.14759047  0.63464281  1  0.121492  -0.000945  0.951391  -0.001  0.128728  -0.000787  1.01512  -0.001  0.131912  -0.000533  1.013661  -0.001  0.133306  -0.001948  0.111793  0.126609  -0.001021  1.016004  -0.001
H  H17  1  0.85240899  0.84833010  0.86537346  1  0.121827  0.000941  0.951625  0.001  0.128956  0.000786  1.015366  0.001  0.132142  0.000531  1.013905  0.001  0.134416  0.001945  0.111909  0.12687  0.00102  1.016219  0.001
H  H18  1  0.84819819  0.85241242  0.36536061  1  0.121549  0.000934  0.951307  0.001  0.12874  0.000786  1.01507  0.001  0.131971  0.000532  1.013562  0.001  0.133359  0.001947  0.111777  0.126606  0.001021  1.015972  0.001
H  H19  1  0.14758667  0.15167181  0.13462029  1  0.121829  -0.000942  0.951605  -0.001  0.128967  -0.000785  1.015337  -0.001  0.132154  -0.000531  1.013873  -0.001  0.134656  -0.001945  0.111902  0.126878  -0.00102  1.016192  -0.001
H  H20  1  0.11458600  0.95504533  0.64552771  1  0.121188  -0.000707  0.969357  -0.001  0.127444  -0.000541  1.033908  -0.001  0.130368  -0.000358  1.033295  0.0  0.157225  -0.001384  0.110168  0.125554  -0.000726  1.034293  -0.001
H  H21  1  0.04498712  0.88552123  0.85449306  1  0.121938  0.000703  0.968589  0.001  0.127607  0.000541  1.033663  0.001  0.130533  0.000358  1.033069  0.0  0.15743  0.001382  0.110234  0.125762  0.000726  1.034002  0.001
H  H22  1  0.88542441  0.04495560  0.35447547  1  0.121354  0.000698  0.969406  0.001  0.127471  0.000541  1.034034  0.001  0.130486  0.000358  1.033323  0.0  0.15734  0.001383  0.110199  0.125581  0.000726  1.034419  0.001
H  H23  1  0.95500834  0.11448264  0.14550237  1  0.121947  -0.000704  0.968524  -0.001  0.127668  -0.00054  1.033583  -0.001  0.130597  -0.000358  1.032978  0.0  0.15741  -0.001381  0.110241  0.125826  -0.000725  1.033908  -0.001
H  H24  1  0.05964134  0.74031621  0.64049065  1  0.100359  -0.000251  0.967029  0.0  0.110584  -4.4e-05  1.026025  0.0  0.111973  -2.1e-05  1.025725  0.0  0.120614  -0.000113  0.107145  0.10928  -8.1e-05  1.027053  0.0
H  H25  1  0.25986332  0.94041978  0.85951940  1  0.10022  0.000254  0.967067  0.0  0.110462  4.3e-05  1.026047  0.0  0.111834  2.1e-05  1.02578  0.0  0.11938  0.000113  0.107125  0.10919  8.1e-05  1.02706  0.0
H  H26  1  0.94037082  0.25968668  0.35951115  1  0.100238  0.000257  0.967131  0.0  0.110468  4.3e-05  1.026142  0.0  0.111859  2.2e-05  1.025833  0.0  0.120704  0.000113  0.10709  0.109214  8.1e-05  1.027111  0.0
H  H27  1  0.74013097  0.05958606  0.14047453  1  0.100222  -0.000256  0.967126  0.0  0.110435  -4.3e-05  1.026135  0.0  0.111806  -2.1e-05  1.025871  0.0  0.119282  -0.000113  0.10712  0.10915  -8.1e-05  1.027161  0.0
H  H28  1  0.83600232  0.72644199  0.61417993  1  0.108409  -0.000486  0.97164  -0.001  0.11638  -0.0004  1.033513  -0.001  0.118482  -0.000272  1.034278  0.0  0.103966  -0.001061  0.106908  0.113792  -0.000559  1.035407  -0.001
H  H29  1  0.27373678  0.16395704  0.88582838  1  0.10845  0.00049  0.971611  0.001  0.11632  0.000399  1.033632  0.001  0.118389  0.000273  1.034417  0.0  0.101905  0.00106  0.106874  0.11376  0.000557  1.035503  0.001
H  H30  1  0.16400947  0.27355501  0.38582577  1  0.10838  0.000484  0.971664  0.001  0.116317  0.000399  1.033565  0.001  0.118417  0.000273  1.034329  0.0  0.103836  0.001061  0.106884  0.113733  0.000558  1.03545  0.001
H  H31  1  0.72625586  0.83604585  0.11417113  1  0.108425  -0.000487  0.971743  -0.001  0.116297  -0.000399  1.033768  -0.001  0.118365  -0.000272  1.034556  0.0  0.101795  -0.001061  0.106857  0.113736  -0.000558  1.035637  -0.001
H  H32  1  0.68332558  0.92629348  0.59394460  1  0.080003  -0.001115  0.960738  -0.002  0.087433  -0.000823  1.027744  -0.001  0.089433  -0.000542  1.025517  -0.001  0.109347  -0.002478  0.117291  0.086164  -0.001094  1.028757  -0.002
H  H33  1  0.07378886  0.31655773  0.90604725  1  0.080387  0.001111  0.960139  0.002  0.087567  0.000824  1.027347  0.001  0.089577  0.000542  1.025111  0.001  0.110337  0.002478  0.117293  0.086262  0.001095  1.028394  0.002
H  H34  1  0.31668270  0.07369960  0.40606387  1  0.079995  0.001109  0.960521  0.002  0.087404  0.000823  1.027564  0.001  0.089404  0.000541  1.025342  0.001  0.109377  0.002477  0.117282  0.086154  0.001094  1.028557  0.002
H  H35  1  0.92620485  0.68344418  0.09395158  1  0.080298  -0.00112  0.960149  -0.002  0.087431  -0.000824  1.02741  -0.001  0.089479  -0.000543  1.025132  -0.001  0.11022  -0.002479  0.11727  0.086125  -0.001096  1.028457  -0.002
H  H36  1  0.59333948  0.10815219  0.49443533  1  0.332165  0.000396  0.900714  0.001  0.322431  -0.000826  0.960502  -0.001  0.327934  -0.0005  0.958855  0.0  0.458625  -0.000849  0.287153  0.318622  -0.001069  0.961819  -0.001
H  H37  1  0.89186207  0.40663077  0.00554415  1  0.332172  -0.000398  0.900878  -0.001  0.322547  0.000825  0.960536  0.001  0.328035  0.000499  0.9589  0.0  0.459564  0.000843  0.287212  0.318753  0.001069  0.961825  0.001
H  H38  1  0.40666722  0.89184678  0.50556291  1  0.332189  -0.000398  0.900689  -0.001  0.322432  0.000826  0.960498  0.001  0.327934  0.0005  0.958853  0.0  0.458528  0.000849  0.287171  0.318618  0.00107  0.961816  0.001
H  H39  1  0.10813234  0.59336428  0.99445990  1  0.332208  0.000397  0.900912  0.001  0.322557  -0.000825  0.960616  -0.001  0.32804  -0.0005  0.958992  0.0  0.459607  -0.000843  0.287185  0.318758  -0.001069  0.961914  -0.001
H  H40  1  0.48469689  0.22166378  0.53449664  1  0.34886  0.001541  0.896747  0.003  0.338201  8e-05  0.952514  0.001  0.34419  0.000222  0.950397  0.001  0.479605  0.000661  0.290784  0.334044  -2.7e-05  0.954143  0.0
H  H41  1  0.77828352  0.51518707  0.96549759  1  0.348901  -0.001546  0.896537  -0.003  0.338257  -8.3e-05  0.952358  -0.001  0.344244  -0.000224  0.950236  -0.001  0.477948  -0.000661  0.290776  0.3341  2.5e-05  0.953979  0.0
H  H42  1  0.51531079  0.77833519  0.46550275  1  0.348845  -0.001542  0.896753  -0.003  0.33818  -8e-05  0.952528  -0.001  0.344168  -0.000222  0.950413  -0.001  0.479525  -0.000662  0.290775  0.33402  2.8e-05  0.954158  0.0
H  H43  1  0.22171294  0.48480700  0.03450491  1  0.348961  0.001546  0.896435  0.003  0.338332  8.3e-05  0.952232  0.001  0.344321  0.000224  0.95011  0.001  0.477908  0.00066  0.290787  0.334173  -2.5e-05  0.953861  0.0
H  H44  1  0.50021964  0.07527388  0.60580232  1  0.331174  0.000283  0.90349  0.0  0.323978  -0.000873  0.959833  -0.001  0.329625  -0.000555  0.957605  0.0  0.42798  -0.001083  0.287  0.320124  -0.00112  0.961523  -0.001
H  H45  1  0.92476170  0.49969934  0.89418964  1  0.331017  -0.000286  0.903462  0.0  0.323854  0.000873  0.959786  0.001  0.329499  0.000554  0.957562  0.0  0.428909  0.001085  0.286963  0.320004  0.001121  0.961453  0.001
H  H46  1  0.49978628  0.92472313  0.39419577  1  0.331179  -0.000287  0.903458  0.0  0.323996  0.000872  0.95976  0.001  0.32964  0.000554  0.957534  0.0  0.428542  0.001081  0.287015  0.320125  0.00112  0.961468  0.001
H  H47  1  0.07523487  0.50029374  0.10581437  1  0.330939  0.00028  0.903581  0.0  0.323794  -0.000873  0.959864  -0.001  0.329437  -0.000556  0.957643  0.0  0.428965  -0.001082  0.286926  0.319944  -0.001121  0.961532  -0.001
Pt  Pt48  1  0.30091729  0.49564546  0.75319503  1  0.052155  -0.001783  4.153972  -0.002  0.064576  -0.000445  4.751587  -0.001  0.054734  -0.000115  4.721795  -0.001  0.504654  -0.001047  0.520219  0.073869  -0.001066  4.769358  -0.001
Pt  Pt49  1  0.50437834  0.69903490  0.74680758  1  0.051688  0.001789  4.154283  0.002  0.064112  0.000446  4.751882  0.001  0.054292  0.000116  4.722078  0.001  0.504504  0.001044  0.519908  0.073376  0.001062  4.769659  0.001
Pt  Pt50  1  0.69907994  0.50435056  0.24680560  1  0.05231  0.001784  4.154051  0.002  0.064707  0.000444  4.751727  0.001  0.054863  0.000115  4.721931  0.001  0.504823  0.001043  0.520255  0.074003  0.001059  4.769495  0.001
Pt  Pt51  1  0.49562376  0.30097093  0.25318619  1  0.051959  -0.001788  4.154089  -0.002  0.064336  -0.000447  4.751769  -0.001  0.054512  -0.000117  4.721965  -0.001  0.504473  -0.001048  0.519998  0.073597  -0.00107  4.769541  -0.001
C  C52  1  0.45554090  0.38538443  0.69758877  1  0.13205  0.006484  3.577223  0.002  0.111628  0.00086  3.920439  -0.002  0.129106  0.002193  3.926308  0.0  0.85529  0.001131  0.013537  0.100213  -0.000315  3.915979  -0.004
C  C53  1  0.61460179  0.54439599  0.80239582  1  0.132056  -0.006468  3.577179  -0.002  0.111607  -0.000863  3.920417  0.002  0.129082  -0.002192  3.926274  0.0  0.853477  -0.00113  0.013502  0.100188  0.000313  3.915931  0.004
C  C54  1  0.54446170  0.61461650  0.30240988  1  0.132116  -0.006487  3.577014  -0.002  0.1117  -0.00086  3.920234  0.002  0.129174  -0.002198  3.926107  0.0  0.85523  -0.001132  0.013568  0.100279  0.000314  3.915775  0.004
C  C55  1  0.38539642  0.45560003  0.19759790  1  0.132076  0.006473  3.576898  0.002  0.111637  0.000861  3.920128  -0.002  0.129116  0.002194  3.92599  0.0  0.853491  0.001128  0.01348  0.100218  -0.000315  3.915656  -0.004
C  C56  1  0.31636387  0.39895654  0.88438975  1  0.047526  -0.000337  3.658253  0.0  0.027276  -0.000246  4.011642  0.0  0.036027  -0.000101  4.0196  0.0  0.785752  -0.000215  -0.018287  0.019844  -0.000259  4.007624  0.0
C  C57  1  0.60108957  0.68358150  0.61558772  1  0.047531  0.000341  3.659193  0.0  0.02727  0.000246  4.012517  0.0  0.03596  0.000106  4.020563  0.0  0.785869  0.000213  -0.018166  0.019853  0.000258  4.008485  0.0
C  C58  1  0.68363287  0.60104438  0.11560735  1  0.047506  0.000336  3.658286  0.0  0.027257  0.000244  4.011683  0.0  0.036011  0.00011  4.019632  0.0  0.78573  0.000214  -0.018314  0.019832  0.000259  4.00766  0.0
C  C59  1  0.39892071  0.31643021  0.38440603  1  0.047437  -0.000332  3.658998  0.0  0.027189  -0.000245  4.012324  0.0  0.035881  -0.000106  4.020368  0.0  0.785472  -0.000215  -0.018256  0.01977  -0.000259  4.008302  0.0
C  C60  1  0.14517521  0.60237246  0.81234769  1  0.060451  0.000248  3.646039  0.0  0.035829  0.00023  4.000985  0.0  0.045332  0.000126  4.007353  0.0  0.800091  -1.6e-05  -0.016742  0.028336  -5.3e-05  3.996926  0.0
C  C61  1  0.39768325  0.85476059  0.68767812  1  0.060876  -0.000255  3.646023  0.0  0.036205  -0.000229  4.001005  0.0  0.04572  -0.00014  4.007376  0.0  0.798887  1.3e-05  -0.016369  0.028775  5.1e-05  3.996823  0.0
C  C62  1  0.85482526  0.39762062  0.18765355  1  0.060483  -0.000254  3.646127  0.0  0.035871  -0.000225  4.001094  0.0  0.045374  -0.000143  4.007463  0.0  0.800226  1.5e-05  -0.01676  0.028367  5.2e-05  3.99706  0.0
C  C63  1  0.60232343  0.14524818  0.31231890  1  0.060929  0.000259  3.646099  0.0  0.036275  0.000228  4.001083  0.0  0.045789  0.000139  4.007465  0.0  0.798825  -1.5e-05  -0.016339  0.028873  -5.3e-05  3.996852  0.0
C  C64  1  0.28442496  0.59455994  0.62304099  1  0.10523  -0.003167  3.605726  -0.002  0.088978  -0.001049  3.949949  0.0  0.10436  -0.00157  3.956084  -0.001  0.84235  -0.00139  0.003835  0.079057  -0.000519  3.944831  0.001
C  C65  1  0.40545063  0.71556331  0.87696797  1  0.105515  0.003167  3.60605  0.002  0.089282  0.001047  3.950216  0.0  0.104679  0.001573  3.95632  0.001  0.84193  0.001386  0.004084  0.07936  0.000518  3.945086  -0.001
C  C66  1  0.71557245  0.40544393  0.37695205  1  0.105151  0.003182  3.60505  0.002  0.088896  0.001046  3.949322  0.0  0.104291  0.001576  3.955451  0.001  0.842142  0.001388  0.003809  0.07897  0.000517  3.944214  -0.001
C  C67  1  0.59454738  0.28443467  0.12303012  1  0.10532  -0.003173  3.606199  -0.002  0.089081  -0.001047  3.950398  0.0  0.10448  -0.001576  3.956502  -0.001  0.841933  -0.001387  0.003944  0.079152  -0.000519  3.945257  0.001
C  C68  1  0.84973679  0.40104969  0.62279862  1  0.152306  0.008164  3.663133  0.009  0.120519  0.001295  3.92501  0.003  0.13062  0.002543  3.943913  0.004  0.486191  0.001888  0.059289  0.113998  0.000336  3.912707  0.002
C  C69  1  0.59879757  0.15023682  0.87718082  1  0.152311  -0.008135  3.664038  -0.009  0.120394  -0.001295  3.925878  -0.003  0.130495  -0.002534  3.944761  -0.004  0.479292  -0.001874  0.058976  0.113876  -0.00033  3.913561  -0.002
C  C70  1  0.15026971  0.59895124  0.37719995  1  0.152357  -0.008158  3.663027  -0.009  0.120533  -0.001295  3.924863  -0.003  0.130635  -0.002538  3.943764  -0.004  0.486192  -0.001889  0.059424  0.114011  -0.000337  3.912571  -0.002
C  C71  1  0.40119293  0.84975822  0.12282196  1  0.152518  0.00817  3.663764  0.009  0.120574  0.001292  3.925632  0.003  0.130675  0.002544  3.944513  0.004  0.479714  0.001877  0.05907  0.114052  0.000333  3.913332  0.002
C  C72  1  0.96416666  0.43945807  0.63150465  1  -0.112857  -0.011006  3.698731  -0.012  -0.126293  -0.005004  3.947163  -0.006  -0.134558  -0.004345  3.969071  -0.005  -0.0485  -0.007726  -0.076269  -0.120709  -0.005437  3.934461  -0.006
C  C73  1  0.56037276  0.03585521  0.86848545  1  -0.11349  0.011001  3.69872  0.012  -0.126903  0.005018  3.94715  0.006  -0.135166  0.004341  3.969058  0.005  -0.045654  0.007729  -0.076264  -0.121315  0.005441  3.934461  0.006
C  C74  1  0.03583564  0.56054580  0.36849349  1  -0.112863  0.010988  3.698552  0.012  -0.126204  0.005013  3.946988  0.006  -0.134466  0.004339  3.968893  0.005  -0.048394  0.007723  -0.076278  -0.120634  0.005435  3.934302  0.006
C  C75  1  0.43961717  0.96413591  0.13152559  1  -0.113292  -0.011039  3.698829  -0.012  -0.126706  -0.00501  3.947249  -0.006  -0.134966  -0.004351  3.969163  -0.005  -0.045998  -0.007731  -0.076307  -0.121119  -0.005442  3.934557  -0.006
C  C76  1  0.07425354  0.34838162  0.63544738  1  0.014936  0.008667  3.702278  0.008  -0.005524  0.002884  3.958621  0.003  -0.00096  0.003099  3.975896  0.003  0.005486  0.004132  -0.059403  -0.008691  0.002776  3.946745  0.003
C  C77  1  0.65150458  0.92581973  0.86455640  1  0.01551  -0.008645  3.702287  -0.008  -0.005089  -0.002885  3.958526  -0.003  -0.00053  -0.003102  3.975797  -0.003  0.003235  -0.004131  -0.059555  -0.008255  -0.002774  3.94666  -0.003
C  C78  1  0.92575159  0.65162323  0.36455137  1  0.014847  -0.008656  3.702512  -0.008  -0.005654  -0.002885  3.958849  -0.003  -0.0011  -0.003103  3.976143  -0.003  0.005501  -0.004132  -0.05953  -0.00882  -0.002775  3.946964  -0.003
C  C79  1  0.34848993  0.07417434  0.13544647  1  0.015248  0.00869  3.702168  0.008  -0.00537  0.002883  3.958419  0.003  -0.000815  0.003104  3.975699  0.003  0.003092  0.004132  -0.059608  -0.008538  0.002775  3.946553  0.003
C  C80  1  0.06641300  0.22004536  0.63294051  1  -0.12319  -0.007591  3.666044  -0.008  -0.140658  -0.003382  3.907587  -0.004  -0.14776  -0.002996  3.928831  -0.003  -0.016827  -0.00506  -0.071742  -0.135989  -0.003728  3.893229  -0.004
C  C81  1  0.77989856  0.93367246  0.86706726  1  -0.123535  0.007575  3.666491  0.008  -0.140824  0.003377  3.907848  0.004  -0.147889  0.003017  3.92912  0.003  -0.013916  0.005059  -0.071641  -0.136207  0.003728  3.893465  0.004
C  C82  1  0.93359125  0.77995851  0.36706062  1  -0.123094  0.0076  3.665851  0.008  -0.140471  0.003379  3.907371  0.004  -0.147613  0.003015  3.928591  0.003  -0.016964  0.005057  -0.071612  -0.135798  0.003726  3.893019  0.004
C  C83  1  0.22009447  0.06632650  0.13293159  1  -0.123449  -0.007614  3.666341  -0.008  -0.140741  -0.003385  3.907688  -0.004  -0.147807  -0.003001  3.928957  -0.003  -0.014605  -0.005059  -0.071642  -0.136128  -0.003729  3.893298  -0.004
C  C84  1  0.94810317  0.18708858  0.62607206  1  0.160438  0.002957  3.768232  0.003  0.159076  -0.000968  4.011662  0.0  0.16696  0.00037  4.032661  0.001  0.469433  -0.001422  0.113925  0.154026  -0.001992  3.998014  -0.001
C  C85  1  0.81285883  0.05192459  0.87393675  1  0.160533  -0.002947  3.768451  -0.003  0.159233  0.000976  4.0116  0.0  0.167017  -0.000393  4.032721  -0.001  0.467679  0.001425  0.113972  0.154222  0.00199  3.997898  0.001
C  C86  1  0.05190323  0.81291333  0.37392768  1  0.160346  -0.002941  3.768386  -0.003  0.158955  0.000975  4.011825  0.0  0.166836  -0.000387  4.032834  -0.001  0.469366  0.001422  0.113909  0.153905  0.001991  3.998172  0.001
C  C87  1  0.18713498  0.94807634  0.12606225  1  0.160387  0.002971  3.768825  0.003  0.159103  -0.000966  4.011931  0.0  0.166884  0.000373  4.033053  0.001  0.468427  -0.001427  0.1139  0.154103  -0.001991  3.998224  -0.001
C  C88  1  0.92671455  0.05578622  0.62302268  1  0.171076  0.002076  3.773411  0.002  0.168492  -0.000711  4.018651  0.0  0.176125  0.000252  4.039877  0.001  0.434419  -0.000974  0.115623  0.163343  -0.001394  4.005018  -0.001
C  C89  1  0.94422331  0.07329745  0.87698862  1  0.171233  -0.002076  3.77362  -0.002  0.168485  0.000717  4.018758  0.0  0.176155  -0.000267  4.040006  -0.001  0.435628  0.000969  0.115474  0.163328  0.001392  4.005084  0.001
C  C90  1  0.07329108  0.94421373  0.37698094  1  0.171167  -0.002066  3.773526  -0.002  0.168586  0.00072  4.018744  0.0  0.176213  -0.000267  4.039993  -0.001  0.43442  0.000972  0.115639  0.163435  0.001393  4.005106  0.001
C  C91  1  0.05576737  0.92670544  0.12300859  1  0.171381  0.002047  3.77376  0.002  0.168637  -0.000711  4.018882  0.0  0.17631  0.000252  4.040127  0.001  0.435348  -0.000971  0.115582  0.163472  -0.001394  4.005225  -0.001
C  C92  1  0.01918671  0.94650501  0.63472234  1  -0.124077  -0.005435  3.653452  -0.005  -0.140833  -0.002271  3.898223  -0.002  -0.148156  -0.002019  3.918907  -0.002  -0.042017  -0.00346  -0.072242  -0.136716  -0.002608  3.885295  -0.003
C  C93  1  0.05355330  0.98086245  0.86530396  1  -0.125124  0.005438  3.653887  0.005  -0.141297  0.002264  3.898648  0.002  -0.148641  0.002034  3.919324  0.002  -0.041189  0.00346  -0.072383  -0.137226  0.002605  3.885712  0.003
C  C94  1  0.98081881  0.05349592  0.36528111  1  -0.12439  0.005435  3.653679  0.005  -0.140962  0.002265  3.898386  0.002  -0.148363  0.002035  3.91902  0.002  -0.042121  0.003459  -0.072284  -0.136851  0.002607  3.885475  0.003
C  C95  1  0.94643913  0.01914240  0.13469052  1  -0.125161  -0.005402  3.65359  -0.005  -0.141426  -0.002271  3.89837  -0.002  -0.148772  -0.002014  3.919041  -0.002  -0.04116  -0.00346  -0.072415  -0.137353  -0.002605  3.885436  -0.003
C  C96  1  0.98800502  0.82576745  0.63212470  1  0.018724  0.007035  3.689548  0.007  -0.002475  0.002612  3.937676  0.002  0.00304  0.002602  3.954739  0.003  -0.004036  0.003977  -0.061759  -0.006967  0.002638  3.928211  0.002
C  C97  1  0.17436826  0.01201353  0.86788655  1  0.019216  -0.007037  3.689029  -0.007  -0.001899  -0.002611  3.936897  -0.002  0.003628  -0.002606  3.953942  -0.003  -0.003487  -0.003979  -0.06144  -0.00644  -0.002639  3.927443  -0.002
C  C98  1  0.01200432  0.17423446  0.36787851  1  0.019047  -0.00703  3.689516  -0.007  -0.002165  -0.002611  3.937588  -0.002  0.003348  -0.002603  3.954675  -0.003  -0.004132  -0.003977  -0.061649  -0.006697  -0.002638  3.928105  -0.002
C  C99  1  0.82562525  0.98799034  0.13210925  1  0.019172  0.007011  3.688966  0.007  -0.001879  0.002612  3.936828  0.002  0.003647  0.002599  3.953873  0.003  -0.003586  0.003979  -0.061474  -0.006413  0.002639  3.927379  0.002
C  C100  1  0.86600924  0.81741644  0.61765249  1  -0.119744  -0.007956  3.720608  -0.008  -0.133896  -0.003444  3.971755  -0.004  -0.141761  -0.003002  3.993034  -0.004  0.033683  -0.005268  -0.080888  -0.128476  -0.003795  3.958827  -0.004
C  C101  1  0.18272187  0.13395754  0.88235950  1  -0.119771  0.007946  3.719976  0.008  -0.13392  0.003446  3.971236  0.004  -0.141761  0.002993  3.9925  0.004  0.034745  0.005263  -0.080789  -0.128526  0.003791  3.958338  0.004
C  C102  1  0.13399941  0.18258253  0.38235208  1  -0.119981  0.007953  3.72056  0.008  -0.134099  0.00345  3.971766  0.004  -0.141961  0.002992  3.993042  0.004  0.034021  0.005265  -0.080953  -0.128688  0.003793  3.958862  0.004
C  C103  1  0.81727056  0.86604731  0.11763699  1  -0.119786  -0.007924  3.720162  -0.008  -0.133973  -0.003442  3.971397  -0.004  -0.141815  -0.003001  3.992671  -0.004  0.034859  -0.005264  -0.080806  -0.128574  -0.003793  3.958492  -0.004
C  C104  1  0.77885244  0.93031009  0.60590582  1  0.133805  0.006647  3.712841  0.007  0.104432  0.001521  3.974477  0.003  0.113834  0.002255  3.9924  0.003  0.412042  0.00245  0.049405  0.098998  0.000986  3.961125  0.002
C  C105  1  0.06977072  0.22107232  0.89409714  1  0.133609  -0.006635  3.712905  -0.007  0.104494  -0.001523  3.97448  -0.003  0.113913  -0.002247  3.992355  -0.003  0.412386  -0.002453  0.049395  0.099078  -0.000986  3.961127  -0.002
C  C106  1  0.22115642  0.06968692  0.39409977  1  0.133977  -0.006633  3.712519  -0.007  0.10463  -0.001526  3.974228  -0.003  0.114034  -0.002247  3.992138  -0.003  0.411726  -0.002451  0.049447  0.099172  -0.000987  3.960873  -0.002
C  C107  1  0.93022192  0.77893057  0.10590171  1  0.133764  0.006627  3.712876  0.007  0.104701  0.00152  3.974426  0.003  0.114089  0.002255  3.992288  0.003  0.412308  0.002452  0.049442  0.099285  0.000986  3.961076  0.002
N  N108  1  0.54894860  0.32072342  0.66653223  1  -0.441945  -0.042402  3.107707  -0.052  -0.400713  -0.029326  3.424386  -0.038  -0.425454  -0.025277  3.428978  -0.034  -1.340745  -0.044927  -0.400871  -0.386004  -0.031685  3.421592  -0.04
N  N109  1  0.67921193  0.45099098  0.83344821  1  -0.441998  0.04238  3.107748  0.052  -0.400713  0.029315  3.424459  0.038  -0.425429  0.025264  3.429072  0.034  -1.339291  0.044909  -0.40065  -0.385908  0.031673  3.421713  0.04
N  N110  1  0.45105184  0.67927947  0.33346780  1  -0.442022  0.042408  3.1076  0.052  -0.400783  0.029328  3.424286  0.038  -0.425518  0.025287  3.42887  0.034  -1.34072  0.044935  -0.400904  -0.386076  0.03169  3.421492  0.04
N  N111  1  0.32078070  0.54901190  0.16654661  1  -0.442005  -0.042398  3.107596  -0.052  -0.40072  -0.02932  3.424301  -0.038  -0.42545  -0.025271  3.428914  -0.034  -1.339213  -0.04491  -0.400642  -0.385961  -0.031674  3.421529  -0.04
N  N112  1  0.32218242  0.34330667  0.96310530  1  -0.422914  -0.001265  2.730293  -0.002  -0.380066  -0.000374  2.967105  0.0  -0.392183  -0.000208  2.980845  0.0  -1.309048  -0.001078  -0.360813  -0.370821  -0.000595  2.95762  -0.001
N  N113  1  0.65671739  0.67778660  0.53687454  1  -0.422847  0.001257  2.731612  0.002  -0.379957  0.000374  2.968437  0.0  -0.392067  0.000202  2.982196  0.0  -1.30952  0.001077  -0.36085  -0.370711  0.000594  2.958946  0.001
N  N114  1  0.67781257  0.65669230  0.03689452  1  -0.422953  0.001265  2.730408  0.002  -0.38009  0.000376  2.967217  0.0  -0.392208  0.000198  2.980956  0.0  -1.309184  0.00108  -0.360808  -0.370852  0.000596  2.957733  0.001
N  N115  1  0.34329535  0.32222021  0.46312371  1  -0.422834  -0.001265  2.73145  -0.002  -0.379943  -0.000374  2.968266  0.0  -0.392056  -0.000201  2.982022  0.0  -1.309128  -0.001078  -0.360779  -0.370702  -0.000595  2.958781  -0.001
N  N116  1  0.05317774  0.66230182  0.85128924  1  -0.45468  0.000491  2.760891  0.0  -0.40736  0.00051  3.002967  0.0  -0.418395  0.000374  3.013965  0.0  -1.351355  0.000813  -0.368354  -0.398757  0.000665  2.994957  0.0
N  N117  1  0.33778443  0.94675317  0.64874171  1  -0.454905  -0.000484  2.761173  0.0  -0.407614  -0.000512  3.003342  0.0  -0.418665  -0.000361  3.014353  0.0  -1.35048  -0.000814  -0.368615  -0.399013  -0.000666  2.995299  0.0
N  N118  1  0.94682047  0.33769420  0.14871590  1  -0.454704  -0.000487  2.761046  0.0  -0.407408  -0.000514  3.003143  0.0  -0.418446  -0.000356  3.014139  0.0  -1.35149  -0.000814  -0.368334  -0.398803  -0.000665  2.995137  0.0
N  N119  1  0.66221727  0.05325659  0.35125206  1  -0.455013  0.000478  2.761412  0.0  -0.407717  0.000512  3.003566  0.0  -0.418784  0.000361  3.0146  0.0  -1.350371  0.000812  -0.368678  -0.399127  0.000664  2.995521  0.0
N  N120  1  0.27412570  0.65647357  0.54689395  1  -0.440301  0.014546  3.020897  0.019  -0.39834  0.011374  3.317361  0.016  -0.420078  0.009212  3.32384  0.014  -1.346984  0.017649  -0.388438  -0.384774  0.0129  3.312867  0.017
N  N121  1  0.34354770  0.72589369  0.95312240  1  -0.440465  -0.014526  3.021192  -0.019  -0.398532  -0.011352  3.317725  -0.016  -0.42025  -0.009196  3.324195  -0.014  -1.346611  -0.017608  -0.388689  -0.384922  -0.012875  3.313266  -0.017
N  N122  1  0.72587729  0.34352343  0.45311076  1  -0.440288  -0.014565  3.019905  -0.019  -0.398328  -0.011374  3.316386  -0.016  -0.420073  -0.00922  3.322869  -0.014  -1.346758  -0.017649  -0.388428  -0.384765  -0.012901  3.311902  -0.017
N  N123  1  0.65644984  0.27409939  0.04687404  1  -0.440398  0.014536  3.02126  0.019  -0.398452  0.011356  3.317791  0.016  -0.420166  0.009203  3.324271  0.014  -1.346687  0.017624  -0.388592  -0.384797  0.012885  3.313352  0.017
N  N124  1  0.84279779  0.27775504  0.62028246  1  -0.309099  -0.097072  3.300402  -0.118  -0.271134  -0.069108  3.596876  -0.09  -0.302084  -0.055917  3.617814  -0.076  -1.202772  -0.113216  -0.335477  -0.252437  -0.077063  3.58409  -0.097
N  N125  1  0.72214969  0.15718619  0.87969936  1  -0.309384  0.097067  3.301296  0.118  -0.271243  0.069117  3.59745  0.09  -0.302144  0.055924  3.618428  0.076  -1.201733  0.113237  -0.335374  -0.252474  0.077083  3.58463  0.097
N  N126  1  0.15720578  0.72224589  0.37971735  1  -0.309147  0.097061  3.300708  0.118  -0.27114  0.069105  3.597165  0.09  -0.302085  0.055924  3.618096  0.076  -1.202695  0.113221  -0.335552  -0.252443  0.077068  3.584371  0.097
N  N127  1  0.27784042  0.84281278  0.12030073  1  -0.309423  -0.097085  3.301365  -0.118  -0.271276  -0.069117  3.59752  -0.09  -0.302179  -0.055917  3.618489  -0.076  -1.201388  -0.113219  -0.335369  -0.25255  -0.077069  3.584695  -0.097
N  N128  1  0.80799080  0.04684865  0.60844884  1  -0.338062  -0.077811  3.324126  -0.097  -0.30052  -0.051588  3.625272  -0.069  -0.328101  -0.040997  3.643029  -0.058  -1.204875  -0.084762  -0.341265  -0.283922  -0.058052  3.614473  -0.075
N  N129  1  0.95316662  0.19197129  0.89154679  1  -0.338409  0.07778  3.32411  0.097  -0.300812  0.051551  3.625162  0.069  -0.328375  0.040969  3.642919  0.058  -1.206041  0.084714  -0.341319  -0.284118  0.058013  3.614331  0.075
N  N130  1  0.19201483  0.95315129  0.39155345  1  -0.338061  0.077799  3.324194  0.097  -0.300598  0.051584  3.625419  0.069  -0.328171  0.041  3.64317  0.058  -1.204862  0.084766  -0.341301  -0.284002  0.058055  3.614624  0.075
N  N131  1  0.04682601  0.80803160  0.10844937  1  -0.338394  -0.077749  3.324325  -0.097  -0.300776  -0.051555  3.62532  -0.069  -0.328356  -0.040964  3.643098  -0.058  -1.205834  -0.084701  -0.341278  -0.284126  -0.058004  3.614497  -0.075
N  N132  1  0.55271034  0.14507555  0.55418484  1  -0.813457  -0.128271  2.953232  -0.15  -0.817382  -0.081796  3.18669  -0.099  -0.854795  -0.064488  3.181126  -0.083  -1.165397  -0.137657  -0.776566  -0.794442  -0.091765  3.191055  -0.107
N  N133  1  0.85492370  0.44721763  0.94579828  1  -0.813396  0.128343  2.952769  0.15  -0.817527  0.081833  3.186011  0.099  -0.854947  0.064513  3.180606  0.083  -1.165699  0.13773  -0.776458  -0.794472  0.091807  3.190304  0.107
N  N134  1  0.44729646  0.85492243  0.44581423  1  -0.813458  0.128281  2.953157  0.15  -0.817361  0.081793  3.186655  0.099  -0.85476  0.064494  3.181091  0.083  -1.165782  0.137655  -0.776598  -0.794409  0.091763  3.191049  0.107
N  N135  1  0.14507189  0.55277545  0.05420591  1  -0.813371  -0.128337  2.952919  -0.15  -0.817504  -0.081836  3.186133  -0.099  -0.854932  -0.06451  3.180708  -0.083  -1.165805  -0.137726  -0.776405  -0.794489  -0.091801  3.190411  -0.107
