# generated using pymatgen
data_CdH12C14(SN4)2
_symmetry_space_group_name_H-M   'P 1'
_cell_length_a   8.04469954
_cell_length_b   9.40952477
_cell_length_c   12.23160899
_cell_angle_alpha   112.62882652
_cell_angle_beta   98.37609288
_cell_angle_gamma   90.03235217
_symmetry_Int_Tables_number   1
_chemical_formula_structural   CdH12C14(SN4)2
_chemical_formula_sum   'Cd2 H24 C28 S4 N16'
_cell_volume   843.87295667
_cell_formula_units_Z   2
loop_
 _symmetry_equiv_pos_site_id
 _symmetry_equiv_pos_as_xyz
  1  'x, y, z'
loop_
 _atom_site_type_symbol
 _atom_site_label
 _atom_site_symmetry_multiplicity
 _atom_site_fract_x
 _atom_site_fract_y
 _atom_site_fract_z
 _atom_site_occupancy
 _atom_site_hle17_bader_spin_density
 _atom_site_hle17_ddec_charge
 _atom_site_hle17_ddec_spin_density
 _atom_site_hle17_ddec_sum_bond_order
 _atom_site_hle17_magmom
 _atom_site_hse06_10hf_bader_spin_density
 _atom_site_hse06_10hf_ddec_charge
 _atom_site_hse06_10hf_ddec_spin_density
 _atom_site_hse06_10hf_ddec_sum_bond_order
 _atom_site_hse06_10hf_magmom
 _atom_site_hse06_bader_spin_density
 _atom_site_hse06_ddec_charge
 _atom_site_hse06_ddec_spin_density
 _atom_site_hse06_ddec_sum_bond_order
 _atom_site_hse06_magmom
 _atom_site_pbe_bader_spin_density
 _atom_site_pbe_cm5_charge
 _atom_site_pbe_ddec_charge
 _atom_site_pbe_ddec_spin_density
 _atom_site_pbe_ddec_sum_bond_order
 _atom_site_pbe_magmom
Cd  Cd0  1  0.99999934  0.99999747  0.49999927  1  0  0.976582  0  2.010651  0  0  0.806925  0  2.473484  0  0  0.849999  0  2.437744  0  0  0.729639  0.777014  0  2.498168  0
Cd  Cd1  1  0.49999872  0.49999922  0.49999992  1  0  0.976405  0  2.012886  0  0  0.80674  0  2.475967  0  0  0.849959  0  2.440058  0  0  0.729852  0.776592  0  2.500993  0
H  H2  1  0.88396519  0.18044177  0.30291922  1  0  0.093568  0  0.957694  0  0  0.097706  0  1.028265  0  0  0.099768  0  1.026187  0  0  0.125205  0.096189  0  1.029637  0
H  H3  1  0.61607281  0.87720240  0.69712331  1  0  0.093451  0  0.957333  0  0  0.09786  0  1.027615  0  0  0.100027  0  1.025517  0  0  0.125271  0.096344  0  1.028997  0
H  H4  1  0.11603750  0.81956010  0.69708379  1  0  0.093626  0  0.957708  0  0  0.097762  0  1.028269  0  0  0.099811  0  1.026224  0  0  0.125227  0.096246  0  1.029637  0
H  H5  1  0.38392859  0.12279836  0.30287270  1  0  0.093444  0  0.957341  0  0  0.097856  0  1.027612  0  0  0.100021  0  1.025517  0  0  0.125281  0.096342  0  1.028993  0
H  H6  1  0.64116888  0.77840906  0.29083423  1  0  0.11103  0  0.939672  0  0  0.120476  0  1.004577  0  0  0.122261  0  1.001825  0  0  0.140933  0.118841  0  1.006328  0
H  H7  1  0.85909527  0.48729500  0.70845413  1  0  0.1111  0  0.939781  0  0  0.120759  0  1.004217  0  0  0.122765  0  1.001621  0  0  0.141292  0.119155  0  1.005952  0
H  H8  1  0.35882294  0.22159864  0.70916619  1  0  0.111123  0  0.939518  0  0  0.12055  0  1.004438  0  0  0.122325  0  1.001698  0  0  0.14098  0.118914  0  1.006193  0
H  H9  1  0.14089089  0.51270458  0.29155311  1  0  0.111086  0  0.939838  0  0  0.120804  0  1.00419  0  0  0.122809  0  1.001598  0  0  0.141335  0.119196  0  1.00593  0
H  H10  1  0.44496446  0.87588693  0.02071963  1  0  0.104303  0  0.919016  0  0  0.11299  0  0.991442  0  0  0.115595  0  0.987254  0  0  0.119642  0.111475  0  0.992845  0
H  H11  1  0.05478134  0.85505532  0.97915450  1  0  0.104286  0  0.918723  0  0  0.112349  0  0.991566  0  0  0.11526  0  0.987408  0  0  0.119206  0.110666  0  0.993237  0
H  H12  1  0.55504064  0.12411267  0.97927477  1  0  0.10428  0  0.918869  0  0  0.112974  0  0.991338  0  0  0.115576  0  0.987152  0  0  0.119631  0.111456  0  0.992745  0
H  H13  1  0.94521222  0.14494195  0.02084870  1  0  0.104227  0  0.918708  0  0  0.112296  0  0.991555  0  0  0.115208  0  0.987397  0  0  0.119202  0.110611  0  0.993234  0
H  H14  1  0.33925635  0.85728456  0.13369578  1  0  0.088909  0  0.943782  0  0  0.10029  0  1.015022  0  0  0.101089  0  1.013801  0  0  0.10665  0.099563  0  1.015439  0
H  H15  1  0.16059841  0.72356630  0.86622835  1  0  0.088497  0  0.945059  0  0  0.100015  0  1.015676  0  0  0.100996  0  1.014771  0  0  0.106444  0.099268  0  1.016172  0
H  H16  1  0.66074289  0.14272085  0.86629733  1  0  0.088931  0  0.943863  0  0  0.100332  0  1.015114  0  0  0.101134  0  1.013897  0  0  0.106663  0.099605  0  1.015529  0
H  H17  1  0.83940213  0.27644022  0.13377094  1  0  0.088579  0  0.945013  0  0  0.100061  0  1.015645  0  0  0.101041  0  1.014744  0  0  0.10647  0.099314  0  1.016146  0
H  H18  1  0.37180543  0.62344743  0.18463111  1  0  0.085944  0  0.984161  0  0  0.094008  0  1.054292  0  0  0.096037  0  1.054392  0  0  0.092208  0.092527  0  1.054291  0
H  H19  1  0.12785680  0.43871637  0.81519536  1  0  0.085762  0  0.983115  0  0  0.093999  0  1.053457  0  0  0.09606  0  1.053526  0  0  0.09215  0.092483  0  1.05351  0
H  H20  1  0.62819348  0.37655335  0.81536140  1  0  0.085831  0  0.984117  0  0  0.093881  0  1.054272  0  0  0.095914  0  1.054364  0  0  0.092125  0.092399  0  1.05427  0
H  H21  1  0.87215817  0.56128089  0.18480013  1  0  0.085855  0  0.983118  0  0  0.0941  0  1.053435  0  0  0.096158  0  1.053505  0  0  0.092178  0.092583  0  1.053489  0
H  H22  1  0.57614900  0.65550322  0.88798349  1  0  0.095094  0  0.955138  0  0  0.104917  0  1.017876  0  0  0.107306  0  1.017617  0  0  0.098291  0.102931  0  1.018501  0
H  H23  1  0.92402298  0.76753761  0.11199391  1  0  0.094327  0  0.955965  0  0  0.104386  0  1.0183  0  0  0.106701  0  1.01813  0  0  0.098097  0.102439  0  1.018891  0
H  H24  1  0.42384413  0.34450451  0.11200970  1  0  0.09497  0  0.955414  0  0  0.10486  0  1.018058  0  0  0.107187  0  1.017867  0  0  0.098274  0.10288  0  1.018672  0
H  H25  1  0.07598420  0.23245619  0.88800223  1  0  0.094325  0  0.955858  0  0  0.104388  0  1.018199  0  0  0.106703  0  1.018029  0  0  0.098111  0.102441  0  1.018789  0
C  C26  1  0.79842212  0.07920534  0.27370794  1  0  0.207603  0  3.707527  0  0  0.153964  0  4.000461  0  0  0.166473  0  4.009648  0  0  0.139932  0.146428  0  3.991405  0
C  C27  1  0.70156475  0.80514176  0.72621365  1  0  0.207648  0  3.706643  0  0  0.153735  0  3.999535  0  0  0.166421  0  4.009259  0  0  0.139957  0.146266  0  3.990338  0
C  C28  1  0.20157539  0.92079424  0.72629307  1  0  0.207528  0  3.707615  0  0  0.153895  0  4.000555  0  0  0.166403  0  4.009731  0  0  0.139928  0.146359  0  3.991492  0
C  C29  1  0.29843394  0.19485667  0.27378631  1  0  0.207661  0  3.706783  0  0  0.153774  0  3.999672  0  0  0.166462  0  4.009398  0  0  0.139937  0.146302  0  3.990488  0
C  C30  1  0.67728557  0.87610312  0.27125334  1  0  0.173416  0  3.628357  0  0  0.097392  0  3.889849  0  0  0.121605  0  3.906177  0  0  0.162802  0.08855  0  3.880729  0
C  C31  1  0.82288548  0.60454379  0.72827098  1  0  0.171961  0  3.627479  0  0  0.096632  0  3.889375  0  0  0.118206  0  3.906503  0  0  0.162669  0.087791  0  3.880201  0
C  C32  1  0.32270473  0.12390110  0.72874834  1  0  0.173303  0  3.628211  0  0  0.097296  0  3.88969  0  0  0.121532  0  3.90601  0  0  0.162735  0.088448  0  3.880578  0
C  C33  1  0.17710571  0.39545578  0.27173512  1  0  0.171969  0  3.627443  0  0  0.096643  0  3.889377  0  0  0.118223  0  3.906507  0  0  0.162633  0.087793  0  3.880212  0
C  C34  1  0.45247880  0.82925523  0.09069738  1  0  -0.060582  0  3.632555  0  0  -0.13914  0  3.877903  0  0  -0.125503  0  3.889653  0  0  -0.045094  -0.141521  0  3.871282  0
C  C35  1  0.04730316  0.73841889  0.90916103  1  0  -0.062024  0  3.634983  0  0  -0.138862  0  3.879164  0  0  -0.127981  0  3.892191  0  0  -0.044853  -0.141144  0  3.872536  0
C  C36  1  0.54752443  0.17075360  0.90930123  1  0  -0.060513  0  3.632581  0  0  -0.139178  0  3.877968  0  0  -0.125532  0  3.889736  0  0  -0.045059  -0.141564  0  3.87135  0
C  C37  1  0.95268835  0.26158420  0.09083553  1  0  -0.061986  0  3.634933  0  0  -0.138793  0  3.879165  0  0  -0.12791  0  3.892206  0  0  -0.044877  -0.141098  0  3.872571  0
C  C38  1  0.47273073  0.65792733  0.04188028  1  0  0.060514  0  3.757414  0  0  0.081918  0  3.995177  0  0  0.080734  0  4.0182  0  0  -0.015461  0.08272  0  3.978293  0
C  C39  1  0.02708672  0.61592599  0.95798421  1  0  0.060161  0  3.76036  0  0  0.081998  0  3.997133  0  0  0.080998  0  4.020641  0  0  -0.014295  0.082823  0  3.980168  0
C  C40  1  0.52725822  0.34207572  0.95812419  1  0  0.060431  0  3.757819  0  0  0.081849  0  3.995614  0  0  0.080667  0  4.018618  0  0  -0.015541  0.08265  0  3.978731  0
C  C41  1  0.97291574  0.38407242  0.04201612  1  0  0.060182  0  3.760548  0  0  0.081994  0  3.997339  0  0  0.080997  0  4.020846  0  0  -0.014304  0.082816  0  3.980384  0
C  C42  1  0.42938269  0.56935946  0.10414267  1  0  -0.110594  0  3.758165  0  0  -0.129497  0  4.005582  0  0  -0.132579  0  4.029102  0  0  -0.092428  -0.127398  0  3.989995  0
C  C43  1  0.07043689  0.46512764  0.89575991  1  0  -0.110944  0  3.758286  0  0  -0.130297  0  4.005586  0  0  -0.133315  0  4.028913  0  0  -0.093598  -0.128182  0  3.990034  0
C  C44  1  0.57061196  0.43063549  0.89585994  1  0  -0.110409  0  3.757958  0  0  -0.129267  0  4.005321  0  0  -0.132349  0  4.028861  0  0  -0.092303  -0.127169  0  3.989733  0
C  C45  1  0.92957066  0.53487190  0.10424289  1  0  -0.111057  0  3.758565  0  0  -0.130418  0  4.005878  0  0  -0.133435  0  4.02921  0  0  -0.093619  -0.128301  0  3.990326  0
C  C46  1  0.54298310  0.58729362  0.93722035  1  0  -0.103408  0  3.748139  0  0  -0.124453  0  3.998688  0  0  -0.126624  0  4.020751  0  0  -0.09129  -0.123107  0  3.98432  0
C  C47  1  0.95708916  0.65008472  0.06277676  1  0  -0.101398  0  3.749586  0  0  -0.122796  0  4.00019  0  0  -0.124814  0  4.022124  0  0  -0.090922  -0.121501  0  3.985785  0
C  C48  1  0.45700973  0.41271061  0.06277913  1  0  -0.103134  0  3.748627  0  0  -0.1242  0  3.999111  0  0  -0.126314  0  4.021189  0  0  -0.091185  -0.122857  0  3.984751  0
C  C49  1  0.04291938  0.34991135  0.93722755  1  0  -0.101425  0  3.749418  0  0  -0.122823  0  4.00005  0  0  -0.124839  0  4.02198  0  0  -0.09093  -0.121529  0  3.98565  0
C  C50  1  0.65514342  0.20770370  0.57239852  1  0  0.298546  0  4.013353  0  0  0.279163  0  4.31989  0  0  0.30053  0  4.333864  0  0  0.140289  0.26478  0  4.310216  0
C  C51  1  0.84467035  0.63544842  0.42754506  1  0  0.298653  0  4.014421  0  0  0.279242  0  4.320916  0  0  0.300651  0  4.334841  0  0  0.14047  0.264767  0  4.311305  0
C  C52  1  0.34487295  0.79229584  0.42760106  1  0  0.298503  0  4.013398  0  0  0.279108  0  4.31997  0  0  0.300473  0  4.33395  0  0  0.14033  0.264725  0  4.310294  0
C  C53  1  0.15533169  0.36454423  0.57245431  1  0  0.298719  0  4.014604  0  0  0.279303  0  4.321098  0  0  0.300712  0  4.335019  0  0  0.140476  0.264829  0  4.311492  0
S  S54  1  0.76240281  0.11899800  0.64799541  1  0  -0.347607  0  2.168284  0  0  -0.320417  0  2.504998  0  0  -0.337097  0  2.499075  0  0  -0.144615  -0.308913  0  2.50912  0
S  S55  1  0.73714649  0.47120753  0.35184712  1  0  -0.347442  0  2.169659  0  0  -0.32025  0  2.506697  0  0  -0.336904  0  2.500755  0  0  -0.144241  -0.308555  0  2.510994  0
S  S56  1  0.23760996  0.88100386  0.35200369  1  0  -0.347635  0  2.168179  0  0  -0.320432  0  2.504866  0  0  -0.337093  0  2.498904  0  0  -0.144621  -0.30893  0  2.508988  0
S  S57  1  0.26285076  0.52878858  0.64815528  1  0  -0.347461  0  2.169626  0  0  -0.320275  0  2.506666  0  0  -0.336931  0  2.500735  0  0  -0.144238  -0.308574  0  2.510957  0
N  N58  1  0.59884427  0.91134197  0.18074247  1  0  0.04112  0  3.548441  0  0  0.163941  0  3.734036  0  0  0.123381  0  3.795156  0  0  -0.131104  0.170006  0  3.719554  0
N  N59  1  0.90107673  0.73028925  0.81904089  1  0  0.044914  0  3.544993  0  0  0.16512  0  3.732832  0  0  0.129827  0  3.791266  0  0  -0.130623  0.170834  0  3.718967  0
N  N60  1  0.40115703  0.08865762  0.81925564  1  0  0.040993  0  3.548327  0  0  0.163887  0  3.733906  0  0  0.12329  0  3.795053  0  0  -0.131088  0.16997  0  3.719391  0
N  N61  1  0.09891826  0.26971033  0.18096150  1  0  0.044873  0  3.544831  0  0  0.164974  0  3.732807  0  0  0.129668  0  3.79125  0  0  -0.130658  0.170753  0  3.718834  0
N  N62  1  0.67443828  0.04128306  0.18083620  1  0  -0.28891  0  2.832085  0  0  -0.287791  0  3.099386  0  0  -0.286019  0  3.117555  0  0  -0.229783  -0.281991  0  3.090391  0
N  N63  1  0.82534994  0.86009379  0.81920546  1  0  -0.290363  0  2.831816  0  0  -0.288314  0  3.099406  0  0  -0.288957  0  3.117869  0  0  -0.229968  -0.282369  0  3.09047  0
N  N64  1  0.32556520  0.95871191  0.81916075  1  0  -0.288898  0  2.832099  0  0  -0.287803  0  3.09939  0  0  -0.286014  0  3.117561  0  0  -0.229836  -0.282008  0  3.090392  0
N  N65  1  0.17465253  0.13990464  0.18079324  1  0  -0.290343  0  2.831803  0  0  -0.288261  0  3.099404  0  0  -0.288904  0  3.117874  0  0  -0.229937  -0.282329  0  3.090471  0
N  N66  1  0.80523959  0.98021883  0.33125302  1  0  -0.402012  0  3.216691  0  0  -0.326386  0  3.498789  0  0  -0.34859  0  3.511648  0  0  -0.346085  -0.311009  0  3.486866  0
N  N67  1  0.69498774  0.64866644  0.66836247  1  0  -0.401095  0  3.218388  0  0  -0.325146  0  3.500158  0  0  -0.347048  0  3.513746  0  0  -0.346242  -0.309606  0  3.488174  0
N  N68  1  0.19475038  0.01978077  0.66874807  1  0  -0.401891  0  3.21679  0  0  -0.326261  0  3.498864  0  0  -0.348464  0  3.511716  0  0  -0.346055  -0.310885  0  3.486946  0
N  N69  1  0.30500714  0.35133197  0.33164283  1  0  -0.401151  0  3.218445  0  0  -0.325243  0  3.500266  0  0  -0.347147  0  3.51385  0  0  -0.346251  -0.309706  0  3.488292  0
N  N70  1  0.57538709  0.27237557  0.51853472  1  0  -0.535517  0  2.869722  0  0  -0.48332  0  3.145678  0  0  -0.50376  0  3.15379  0  0  -0.395349  -0.46939  0  3.140097  0
N  N71  1  0.92471361  0.75393561  0.48145751  1  0  -0.535464  0  2.871469  0  0  -0.483101  0  3.147205  0  0  -0.503557  0  3.155245  0  0  -0.395327  -0.469044  0  3.141634  0
N  N72  1  0.42462727  0.72763090  0.48146591  1  0  -0.535462  0  2.869832  0  0  -0.483253  0  3.145786  0  0  -0.503692  0  3.153901  0  0  -0.395397  -0.469324  0  3.140205  0
N  N73  1  0.07530006  0.24606161  0.51854519  1  0  -0.53551  0  2.871693  0  0  -0.483137  0  3.147423  0  0  -0.503591  0  3.155461  0  0  -0.395338  -0.469082  0  3.141858  0
