# generated using pymatgen
data_Li3H12C9N13O6
_symmetry_space_group_name_H-M   'P 1'
_cell_length_a   6.81486174
_cell_length_b   12.20459083
_cell_length_c   12.20465798
_cell_angle_alpha   120.00030359
_cell_angle_beta   89.99995283
_cell_angle_gamma   90.00008278
_symmetry_Int_Tables_number   1
_chemical_formula_structural   Li3H12C9N13O6
_chemical_formula_sum   'Li6 H24 C18 N26 O12'
_cell_volume   879.09374517
_cell_formula_units_Z   2
loop_
 _symmetry_equiv_pos_site_id
 _symmetry_equiv_pos_as_xyz
  1  'x, y, z'
loop_
 _atom_site_type_symbol
 _atom_site_label
 _atom_site_symmetry_multiplicity
 _atom_site_fract_x
 _atom_site_fract_y
 _atom_site_fract_z
 _atom_site_occupancy
 _atom_site_pbe_bader_charge
 _atom_site_pbe_bader_spin_density
 _atom_site_pbe_cm5_charge
 _atom_site_pbe_ddec_charge
 _atom_site_pbe_ddec_spin_density
 _atom_site_pbe_ddec_sum_bond_order
 _atom_site_pbe_magmom
Li  Li0  1  0.25000024  0.08863276  0.73606479  1  0.854464  0  0.531043  0.772999  0  0.565739  0
Li  Li1  1  0.24999928  0.26392920  0.35256577  1  0.855923  0  0.53101  0.773022  0  0.565673  0
Li  Li2  1  0.24999937  0.64742908  0.91136782  1  0.855237  0  0.531018  0.77298  0  0.565774  0
Li  Li3  1  0.75000006  0.91137990  0.26394283  1  0.854426  0  0.531049  0.773006  0  0.565767  0
Li  Li4  1  0.74999955  0.73605962  0.64743126  1  0.855891  0  0.53102  0.772987  0  0.565755  0
Li  Li5  1  0.75000240  0.35257447  0.08862597  1  0.855274  0  0.530965  0.772983  0  0.565734  0
H  H6  1  0.90677214  0.06891392  0.75544770  1  0.611369  0  0.303519  0.361091  0  0.986367  0
H  H7  1  0.90677563  0.24455120  0.31346109  1  0.609469  0  0.303557  0.36115  0  0.986304  0
H  H8  1  0.90677428  0.68653342  0.93108113  1  0.609338  0  0.303511  0.361113  0  0.986339  0
H  H9  1  0.40677230  0.93108514  0.24454904  1  0.611384  0  0.303505  0.361086  0  0.986372  0
H  H10  1  0.40677321  0.75544657  0.68653530  1  0.609441  0  0.303524  0.36109  0  0.986381  0
H  H11  1  0.40677310  0.31346413  0.06891220  1  0.609509  0  0.303529  0.361102  0  0.986361  0
H  H12  1  0.09322816  0.93108584  0.24454987  1  0.611389  0  0.303517  0.361076  0  0.986386  0
H  H13  1  0.09322467  0.75544563  0.68653449  1  0.609437  0  0.303537  0.361112  0  0.986346  0
H  H14  1  0.09322602  0.31346496  0.06891127  1  0.609502  0  0.303537  0.361118  0  0.986333  0
H  H15  1  0.59322800  0.06891380  0.75544771  1  0.611382  0  0.303526  0.361105  0  0.986339  0
H  H16  1  0.59322562  0.24455096  0.31346287  1  0.609455  0  0.303542  0.361113  0  0.986357  0
H  H17  1  0.59322573  0.68653330  0.93108114  1  0.609339  0  0.303514  0.361117  0  0.986332  0
H  H18  1  0.99667239  0.96494181  0.78475516  1  0.652173  0  0.305815  0.405608  0  0.916438  0
H  H19  1  0.99667480  0.21524402  0.18018550  1  0.654943  0  0.305795  0.405568  0  0.916433  0
H  H20  1  0.99667570  0.81981307  0.03505345  1  0.659522  0  0.305823  0.405541  0  0.916524  0
H  H21  1  0.49666733  0.03505616  0.21523946  1  0.652189  0  0.305824  0.405611  0  0.91643  0
H  H22  1  0.49666933  0.78475628  0.81981334  1  0.654939  0  0.305817  0.405575  0  0.916409  0
H  H23  1  0.49667724  0.18018607  0.96494328  1  0.659612  0  0.305778  0.405539  0  0.916532  0
H  H24  1  0.00333084  0.03505644  0.21523900  1  0.652185  0  0.305791  0.405544  0  0.916523  0
H  H25  1  0.00332990  0.78475609  0.81981336  1  0.654939  0  0.305814  0.405562  0  0.91643  0
H  H26  1  0.00332313  0.18018635  0.96494282  1  0.659606  0  0.30579  0.405548  0  0.916516  0
H  H27  1  0.50332856  0.96494291  0.78475552  1  0.652208  0  0.30583  0.405621  0  0.916416  0
H  H28  1  0.50332510  0.21524301  0.18018470  1  0.654938  0  0.305786  0.405543  0  0.91647  0
H  H29  1  0.50332453  0.81981240  0.03505395  1  0.659582  0  0.305811  0.40554  0  0.916516  0
C  C30  1  0.24999833  0.72712232  0.46609141  1  1.599087  0  0.375509  0.547464  0  4.0841  0
C  C31  1  0.25000117  0.53391136  0.26101879  1  1.465432  0  0.375708  0.547565  0  4.083635  0
C  C32  1  0.24999703  0.73896845  0.27288809  1  1.6229  0  0.37567  0.547453  0  4.084138  0
C  C33  1  0.75000050  0.27289301  0.53392172  1  1.599545  0  0.375631  0.547454  0  4.083813  0
C  C34  1  0.74999913  0.46608301  0.73897434  1  1.465391  0  0.37568  0.547425  0  4.08408  0
C  C35  1  0.74999887  0.26103614  0.72710957  1  1.622926  0  0.375742  0.547615  0  4.083531  0
C  C36  1  0.24999858  0.91731450  0.47098457  1  1.609687  0  0.360205  0.563508  0  4.158723  0
C  C37  1  0.24999809  0.52900854  0.44632842  1  1.57885  0  0.360175  0.563777  0  4.158561  0
C  C38  1  0.24999839  0.55366251  0.08268385  1  1.556984  0  0.360236  0.563767  0  4.158192  0
C  C39  1  0.75000026  0.08269018  0.52901791  1  1.609587  0  0.360103  0.563555  0  4.158535  0
C  C40  1  0.74999781  0.47098684  0.55367517  1  1.578802  0  0.360207  0.563851  0  4.158423  0
C  C41  1  0.75000191  0.44632774  0.91731176  1  1.55683  0  0.360215  0.563802  0  4.158249  0
C  C42  1  0.25000045  0.11665144  0.49839657  1  1.46704  0  0.31154  0.502445  0  4.243214  0
C  C43  1  0.24999646  0.50160546  0.61826316  1  1.440904  0  0.311494  0.502446  0  4.243061  0
C  C44  1  0.25000198  0.38173250  0.88333701  1  1.485232  0  0.311512  0.502389  0  4.243381  0
C  C45  1  0.74999838  0.88335226  0.50161345  1  1.466603  0  0.311481  0.502317  0  4.24324  0
C  C46  1  0.74999797  0.49839815  0.38174203  1  1.440892  0  0.311697  0.502657  0  4.243347  0
C  C47  1  0.75000273  0.61827436  0.11665346  1  1.485775  0  0.311541  0.502611  0  4.242985  0
N  N48  1  0.24999689  0.66665931  0.33333700  1  -1.24159  0  -0.196943  -0.251141  0  3.534067  0
N  N49  1  0.75000048  0.33333960  0.66666634  1  -1.241942  0  -0.196984  -0.251007  0  3.534326  0
N  N50  1  0.24999845  0.85175613  0.53366463  1  -1.227471  0  -0.32738  -0.531548  0  3.273362  0
N  N51  1  0.24999810  0.46632801  0.31810702  1  -1.229495  0  -0.327429  -0.531736  0  3.272681  0
N  N52  1  0.25000145  0.68189276  0.14823548  1  -1.230399  0  -0.327387  -0.531498  0  3.273039  0
N  N53  1  0.74999892  0.14823654  0.46634003  1  -1.227215  0  -0.327416  -0.53156  0  3.272976  0
N  N54  1  0.74999926  0.53366939  0.68189291  1  -1.229494  0  -0.327408  -0.531667  0  3.272962  0
N  N55  1  0.75000032  0.31810860  0.85177032  1  -1.230574  0  -0.327438  -0.531667  0  3.273014  0
N  N56  1  0.24999673  0.65740823  0.52285883  1  -1.258014  0  -0.316104  -0.531911  0  3.269616  0
N  N57  1  0.24999972  0.47713713  0.13455874  1  -1.195553  0  -0.316175  -0.531882  0  3.270086  0
N  N58  1  0.25000007  0.86543416  0.34258366  1  -1.30409  0  -0.3161  -0.531735  0  3.270137  0
N  N59  1  0.75000063  0.34259431  0.47714907  1  -1.258447  0  -0.316148  -0.531969  0  3.269879  0
N  N60  1  0.75000058  0.52285535  0.86543628  1  -1.195267  0  -0.31611  -0.531798  0  3.269981  0
N  N61  1  0.75000023  0.13456078  0.65741381  1  -1.304067  0  -0.316024  -0.531744  0  3.269748  0
N  N62  1  0.24999885  0.04362983  0.54778536  1  -1.302958  0  -0.399585  -0.548672  0  3.449439  0
N  N63  1  0.24999649  0.45222183  0.49585579  1  -1.269248  0  -0.39958  -0.548829  0  3.449108  0
N  N64  1  0.25000061  0.50413985  0.95635675  1  -1.252662  0  -0.399532  -0.548722  0  3.448832  0
N  N65  1  0.74999851  0.95636554  0.45221823  1  -1.302866  0  -0.399556  -0.548685  0  3.449019  0
N  N66  1  0.74999794  0.54778780  0.50414502  1  -1.269236  0  -0.399662  -0.548974  0  3.448987  0
N  N67  1  0.74999969  0.49587215  0.04364169  1  -1.252233  0  -0.399505  -0.548829  0  3.448948  0
N  N68  1  0.24999910  0.18859091  0.46091201  1  -1.264967  0  -0.461633  -0.609757  0  2.884393  0
N  N69  1  0.24999789  0.53907842  0.72768890  1  -1.248802  0  -0.46174  -0.609905  0  2.884502  0
N  N70  1  0.25000042  0.27230822  0.81138965  1  -1.285902  0  -0.461774  -0.609893  0  2.884767  0
N  N71  1  0.74999973  0.81140119  0.53908831  1  -1.264634  0  -0.461671  -0.609736  0  2.884511  0
N  N72  1  0.74999947  0.46092752  0.27232052  1  -1.248733  0  -0.461854  -0.610024  0  2.884665  0
N  N73  1  0.75000135  0.72770037  0.18860728  1  -1.286792  0  -0.461828  -0.610098  0  2.88445  0
O  O74  1  0.00832393  0.05451700  0.80469156  1  -1.277668  0  -0.613284  -0.807113  0  2.043371  0
O  O75  1  0.00832599  0.19530743  0.24982559  1  -1.277705  0  -0.61331  -0.807139  0  2.043363  0
O  O76  1  0.00832473  0.75017270  0.94547816  1  -1.281704  0  -0.61329  -0.807064  0  2.043498  0
O  O77  1  0.50832394  0.94548280  0.19530908  1  -1.277651  0  -0.61329  -0.807135  0  2.04341  0
O  O78  1  0.50832041  0.80468969  0.75016954  1  -1.27768  0  -0.613307  -0.807111  0  2.043452  0
O  O79  1  0.50832608  0.24982735  0.05451895  1  -1.281987  0  -0.613258  -0.807056  0  2.043462  0
O  O80  1  0.99167491  0.94548346  0.19530859  1  -1.277651  0  -0.61327  -0.807052  0  2.043456  0
O  O81  1  0.99168018  0.80469069  0.75017034  1  -1.277681  0  -0.613323  -0.807114  0  2.043463  0
O  O82  1  0.99167411  0.24982801  0.05451846  1  -1.28199  0  -0.613282  -0.807091  0  2.043443  0
O  O83  1  0.49167489  0.05451684  0.80469025  1  -1.277719  0  -0.613311  -0.807155  0  2.043389  0
O  O84  1  0.49167402  0.19530714  0.24982604  1  -1.277685  0  -0.613277  -0.807082  0  2.043393  0
O  O85  1  0.49167569  0.75017289  0.94547814  1  -1.281762  0  -0.613277  -0.807054  0  2.043467  0
