# generated using pymatgen
data_SrH8C9(NO3)2
_symmetry_space_group_name_H-M   'P 1'
_cell_length_a   6.77578682
_cell_length_b   6.94516638
_cell_length_c   12.17139546
_cell_angle_alpha   75.92326514
_cell_angle_beta   78.55311388
_cell_angle_gamma   75.00858459
_symmetry_Int_Tables_number   1
_chemical_formula_structural   SrH8C9(NO3)2
_chemical_formula_sum   'Sr2 H16 C18 N4 O12'
_cell_volume   531.01894810
_cell_formula_units_Z   2
loop_
 _symmetry_equiv_pos_site_id
 _symmetry_equiv_pos_as_xyz
  1  'x, y, z'
loop_
 _atom_site_type_symbol
 _atom_site_label
 _atom_site_symmetry_multiplicity
 _atom_site_fract_x
 _atom_site_fract_y
 _atom_site_fract_z
 _atom_site_occupancy
 _atom_site_pbe_bader_charge
 _atom_site_pbe_bader_spin_density
 _atom_site_pbe_cm5_charge
 _atom_site_pbe_ddec_charge
 _atom_site_pbe_ddec_spin_density
 _atom_site_pbe_ddec_sum_bond_order
 _atom_site_pbe_magmom
Sr  Sr0  1  0.75175936  0.73448889  0.55219336  1  1.684858  0  0.947411  1.459909  0  1.429663  0
Sr  Sr1  1  0.24824573  0.26555793  0.44779419  1  1.684886  0  0.947421  1.459945  0  1.429634  0
H  H2  1  0.33445466  0.55782013  0.64085936  1  0.649221  0  0.300772  0.395412  0  0.946349  0
H  H3  1  0.66555036  0.44218664  0.35913875  1  0.649193  0  0.300734  0.395363  0  0.94641  0
H  H4  1  0.27790069  0.79969942  0.62067979  1  0.620879  0  0.315826  0.401279  0  0.924723  0
H  H5  1  0.72209814  0.20030722  0.37931740  1  0.620909  0  0.315836  0.401297  0  0.924711  0
H  H6  1  0.79394917  0.69963402  0.81973101  1  0.627316  0  0.274465  0.339557  0  1.026251  0
H  H7  1  0.20605124  0.30036490  0.18027529  1  0.627346  0  0.274427  0.339546  0  1.026258  0
H  H8  1  0.95096873  0.80678860  0.72334306  1  0.620007  0  0.281891  0.352088  0  1.005161  0
H  H9  1  0.04902861  0.19321991  0.27666307  1  0.620331  0  0.281858  0.352083  0  1.005127  0
H  H10  1  0.08884523  0.78458202  0.92400470  1  0.486166  0  0.335247  0.294471  0  0.913209  0
H  H11  1  0.91115048  0.21540159  0.07600018  1  0.486274  0  0.335226  0.294509  0  0.91317  0
H  H12  1  0.74248501  0.72070741  0.13025802  1  0.074777  0  0.106521  0.118204  0  1.013837  0
H  H13  1  0.25751071  0.27927917  0.86974808  1  0.074638  0  0.106517  0.118228  0  1.013825  0
H  H14  1  0.97117698  0.83185918  0.16391883  1  0.110631  0  0.10761  0.118135  0  1.038289  0
H  H15  1  0.02882030  0.16813300  0.83608549  1  0.110636  0  0.107628  0.118155  0  1.038288  0
H  H16  1  0.42284530  0.71382281  0.79182865  1  0.206985  0  0.138566  0.099336  0  1.055085  0
H  H17  1  0.57715502  0.28614791  0.20817834  1  0.206988  0  0.138583  0.099287  0  1.05523  0
C  C18  1  0.54115300  0.79921169  0.33533324  1  1.577829  0  0.219335  0.597283  0  4.214363  0
C  C19  1  0.45885198  0.20078765  0.66466181  1  1.577811  0  0.219355  0.597365  0  4.214193  0
C  C20  1  0.44769611  0.78853407  0.23572424  1  0.025472  0  -0.011819  -0.063393  0  3.972125  0
C  C21  1  0.55230430  0.21147522  0.76427814  1  0.025262  0  -0.011742  -0.063225  0  3.971852  0
C  C22  1  0.57550524  0.75335253  0.13417038  1  0.014399  0  -0.082031  -0.164527  0  3.952857  0
C  C23  1  0.42449205  0.24663668  0.86583682  1  0.014436  0  -0.08213  -0.164751  0  3.952976  0
C  C24  1  0.48434589  0.75642883  0.04026836  1  0.373269  0  0.084753  0.135425  0  4.077577  0
C  C25  1  0.51565140  0.24356186  0.95973863  1  0.373643  0  0.084758  0.135459  0  4.077703  0
C  C26  1  0.26594747  0.78961400  0.05134404  1  0.360026  0  0.09371  0.145245  0  4.047145  0
C  C27  1  0.73405135  0.21037783  0.94866015  1  0.359966  0  0.093695  0.145206  0  4.047132  0
C  C28  1  0.13697821  0.81946729  0.15295788  1  -0.012975  0  -0.092713  -0.199115  0  3.986047  0
C  C29  1  0.86302526  0.18052501  0.84704654  1  -0.013021  0  -0.092687  -0.199036  0  3.985822  0
C  C30  1  0.23066330  0.81810776  0.24536350  1  -0.067951  0  -0.007772  -0.053099  0  3.977007  0
C  C31  1  0.76933710  0.18189708  0.75463787  1  -0.067933  0  -0.00781  -0.053163  0  3.976893  0
C  C32  1  0.09714136  0.82047182  0.35969479  1  1.594243  0  0.224751  0.604498  0  4.225898  0
C  C33  1  0.90284971  0.17953206  0.64029955  1  1.594074  0  0.224717  0.604423  0  4.225636  0
C  C34  1  0.41405211  0.73463366  0.87876414  1  0.97001  0  0.162237  0.190871  0  3.934025  0
C  C35  1  0.58595286  0.26533456  0.12124596  1  0.970223  0  0.162208  0.19086  0  3.934214  0
N  N36  1  0.57171622  0.72352695  0.93092720  1  -1.204182  0  -0.332168  -0.372627  0  3.299258  0
N  N37  1  0.42828416  0.27645566  0.06908304  1  -1.204659  0  -0.332109  -0.372531  0  3.299496  0
N  N38  1  0.22795290  0.77413044  0.94687414  1  -1.259996  0  -0.382607  -0.277516  0  3.629094  0
N  N39  1  0.77204590  0.22585546  0.05313007  1  -1.259952  0  -0.382545  -0.277529  0  3.629072  0
O  O40  1  0.70451276  0.66678975  0.35982957  1  -1.203532  0  -0.347805  -0.598692  0  2.227791  0
O  O41  1  0.29549687  0.33321895  0.64016282  1  -1.203405  0  -0.347782  -0.598717  0  2.227777  0
O  O42  1  0.45602831  0.93920171  0.39110278  1  -1.225558  0  -0.377945  -0.655119  0  2.26565  0
O  O43  1  0.54396894  0.06079489  0.60889517  1  -1.225616  0  -0.378022  -0.655215  0  2.265784  0
O  O44  1  0.12449849  0.65774074  0.43579541  1  -1.218363  0  -0.379573  -0.63152  0  2.20931  0
O  O45  1  0.87548794  0.34226564  0.56419664  1  -1.218255  0  -0.379547  -0.631575  0  2.208978  0
O  O46  1  0.95673671  0.97862910  0.37448319  1  -1.219638  0  -0.322177  -0.619351  0  2.215158  0
O  O47  1  0.04326368  0.02138760  0.62551159  1  -1.219548  0  -0.322134  -0.619238  0  2.215146  0
O  O48  1  0.39041495  0.68037675  0.63629796  1  -1.281975  0  -0.627722  -0.820718  0  2.029249  0
O  O49  1  0.60959159  0.31962967  0.36369674  1  -1.281986  0  -0.627715  -0.820712  0  2.029354  0
O  O50  1  0.89300491  0.68353291  0.74812332  1  -1.301906  0  -0.628774  -0.796065  0  1.99663  0
O  O51  1  0.10700016  0.31647241  0.25188403  1  -1.302246  0  -0.628727  -0.796005  0  1.996803  0
