# generated using pymatgen
data_MnH8C12(NO3)2
_symmetry_space_group_name_H-M   'P 1'
_cell_length_a   5.64478276
_cell_length_b   7.42319266
_cell_length_c   15.81263633
_cell_angle_alpha   92.31097719
_cell_angle_beta   89.99549057
_cell_angle_gamma   112.37430192
_symmetry_Int_Tables_number   1
_chemical_formula_structural   MnH8C12(NO3)2
_chemical_formula_sum   'Mn2 H16 C24 N4 O12'
_cell_volume   612.12249502
_cell_formula_units_Z   2
loop_
 _symmetry_equiv_pos_site_id
 _symmetry_equiv_pos_as_xyz
  1  'x, y, z'
loop_
 _atom_site_type_symbol
 _atom_site_label
 _atom_site_symmetry_multiplicity
 _atom_site_fract_x
 _atom_site_fract_y
 _atom_site_fract_z
 _atom_site_occupancy
 _atom_site_hle17_ddec_charge
 _atom_site_hle17_ddec_spin_density
 _atom_site_hle17_ddec_sum_bond_order
 _atom_site_hle17_magmom
 _atom_site_hse06_10hf_ddec_charge
 _atom_site_hse06_10hf_ddec_spin_density
 _atom_site_hse06_10hf_ddec_sum_bond_order
 _atom_site_hse06_10hf_magmom
 _atom_site_hse06_ddec_charge
 _atom_site_hse06_ddec_spin_density
 _atom_site_hse06_ddec_sum_bond_order
 _atom_site_hse06_magmom
 _atom_site_pbe_cm5_charge
 _atom_site_pbe_ddec_charge
 _atom_site_pbe_ddec_spin_density
 _atom_site_pbe_ddec_sum_bond_order
 _atom_site_pbe_magmom
Mn  Mn0  1  0.62964779  0.00068869  0.25001984  1  1.145986  -4.810065  1.913141  -4.626  1.03109  -4.65509  2.413397  -4.434  1.069171  -4.759271  2.346481  -4.551  0.616958  0.999326  -4.536351  2.46301  -4.308
Mn  Mn1  1  0.37041149  0.99930722  0.74998249  1  1.146294  4.810033  1.912957  4.626  1.031263  4.655102  2.413238  4.434  1.069355  4.759272  2.346276  4.551  0.616995  0.999507  4.536357  2.462855  4.308
H  H2  1  0.60078687  0.84702945  0.03904249  1  0.123516  0.000898  0.902919  0.001  0.135896  -8.5e-05  0.956389  0.0  0.140206  2e-05  0.951762  0.0  0.139292  0.132584  -0.00016  0.960048  0.0
H  H3  1  0.75296550  0.15432670  0.46075367  1  0.123532  0.000901  0.902776  0.001  0.135351  -8.5e-05  0.956787  0.0  0.139793  2.2e-05  0.952023  0.0  0.139119  0.131958  -0.000161  0.96056  0.0
H  H4  1  0.39924553  0.15297997  0.96095135  1  0.123573  -0.000899  0.902883  -0.001  0.135933  8.4e-05  0.956381  0.0  0.140242  -2.1e-05  0.951765  0.0  0.139366  0.132626  0.00016  0.960026  0.0
H  H5  1  0.24695238  0.84567341  0.53925319  1  0.123632  -0.000901  0.902698  -0.001  0.135544  8.4e-05  0.956646  0.0  0.139985  -2.2e-05  0.951885  0.0  0.13917  0.132154  0.00016  0.960418  0.0
H  H6  1  0.86698789  0.74017813  0.94006709  1  0.129002  -0.000769  0.973759  -0.001  0.133479  -6.1e-05  1.037063  0.0  0.138901  -0.000161  1.033687  0.0  0.110787  0.129364  1.5e-05  1.039802  0.0
H  H7  1  0.12592651  0.26015098  0.55977204  1  0.129028  -0.000765  0.972723  -0.001  0.133394  -5.6e-05  1.036238  0.0  0.138772  -0.000156  1.032892  0.0  0.110977  0.129313  2.1e-05  1.038941  0.0
H  H8  1  0.13303031  0.25984184  0.05991944  1  0.128904  0.000768  0.973895  0.001  0.133431  6.1e-05  1.03714  0.0  0.138855  0.000161  1.033763  0.0  0.110773  0.129269  -1.6e-05  1.039938  0.0
H  H9  1  0.87398440  0.73986349  0.44024027  1  0.129023  0.000765  0.972709  0.001  0.133408  5.6e-05  1.036176  0.0  0.138802  0.000156  1.032793  0.0  0.110927  0.129318  -2.1e-05  1.038878  0.0
H  H10  1  0.93566934  0.36787894  0.13676783  1  0.126016  -0.000349  0.96884  -0.001  0.132227  0.000184  1.032182  0.0  0.137525  0.000187  1.027906  0.0  0.115721  0.128178  0.000151  1.035732  0.0
H  H11  1  0.56832426  0.63296104  0.36337625  1  0.126508  -0.000352  0.967669  -0.001  0.132118  0.000183  1.031692  0.0  0.137412  0.000187  1.027396  0.0  0.115788  0.128089  0.00015  1.035219  0.0
H  H12  1  0.06436614  0.63212246  0.86320935  1  0.126185  0.000349  0.968681  0.001  0.132209  -0.000183  1.032203  0.0  0.137504  -0.000187  1.027931  0.0  0.115777  0.128162  -0.000151  1.035745  0.0
H  H13  1  0.43161423  0.36702009  0.63663074  1  0.126625  0.000351  0.967713  0.001  0.132343  -0.000183  1.031601  0.0  0.137636  -0.000187  1.027308  0.0  0.115834  0.128303  -0.00015  1.035156  0.0
H  H14  1  0.67194271  0.49372615  0.22677615  1  0.122542  0.00132  0.945516  0.001  0.126791  0.000487  1.014322  0.0  0.131534  0.000562  1.009307  0.0  0.130812  0.12318  0.000417  1.018391  0.0
H  H15  1  0.17873598  0.50795892  0.27330262  1  0.12276  0.001319  0.944823  0.001  0.126533  0.000481  1.014048  0.0  0.131309  0.00056  1.008992  0.0  0.130749  0.122921  0.000406  1.018074  0.0
H  H16  1  0.32809293  0.50627206  0.77320727  1  0.122405  -0.00132  0.945507  -0.001  0.12667  -0.000487  1.014358  0.0  0.131433  -0.000562  1.00928  0.0  0.130732  0.123063  -0.000417  1.018421  0.0
H  H17  1  0.82120312  0.49201635  0.72670483  1  0.12276  -0.001319  0.944882  -0.001  0.126563  -0.000481  1.014056  0.0  0.131336  -0.00056  1.009008  0.0  0.130752  0.122959  -0.000407  1.018064  0.0
C  C18  1  0.10594092  0.94544532  0.29217510  1  0.525294  -0.003511  3.929111  -0.004  0.482534  -0.008276  4.220926  -0.008  0.511357  -0.006132  4.219537  -0.007  0.212715  0.462575  -0.01014  4.219606  -0.01
C  C19  1  0.16117019  0.05601977  0.20794222  1  0.527173  -0.003496  3.926912  -0.004  0.484917  -0.008248  4.217929  -0.008  0.513733  -0.00611  4.216512  -0.007  0.214422  0.464958  -0.010105  4.216622  -0.01
C  C20  1  0.89410163  0.05453133  0.70783367  1  0.525299  0.003514  3.928749  0.004  0.482307  0.008282  4.220877  0.008  0.511134  0.00613  4.219505  0.007  0.212534  0.46235  0.010148  4.219548  0.01
C  C21  1  0.83888113  0.94397440  0.79206639  1  0.527191  0.003494  3.927085  0.004  0.485007  0.008244  4.218098  0.008  0.513804  0.006103  4.216716  0.007  0.214462  0.46504  0.010104  4.216789  0.01
C  C22  1  0.68277511  0.74207815  0.05556664  1  0.019721  -0.030342  3.613986  -0.027  -0.028517  -0.023162  3.887084  -0.019  -0.019396  -0.022802  3.895056  -0.019  0.040216  -0.034711  -0.022129  3.882967  -0.018
C  C23  1  0.94012091  0.25925604  0.44433672  1  0.021186  -0.030313  3.616291  -0.027  -0.026324  -0.023182  3.889223  -0.019  -0.017269  -0.022799  3.897165  -0.019  0.041026  -0.032548  -0.022165  3.885189  -0.018
C  C24  1  0.31726838  0.25793573  0.94442543  1  0.019565  0.030346  3.613978  0.027  -0.028693  0.023162  3.887149  0.019  -0.019575  0.022802  3.895127  0.019  0.040123  -0.034883  0.02213  3.883014  0.018
C  C25  1  0.05979493  0.74075414  0.55567358  1  0.02093  0.030314  3.616146  0.027  -0.026853  0.02318  3.889298  0.019  -0.017803  0.022803  3.897253  0.019  0.040781  -0.033077  0.022166  3.885254  0.018
C  C26  1  0.83003362  0.67826259  0.00235087  1  -0.129501  0.026674  3.699159  0.023  -0.14892  0.015391  3.9577  0.014  -0.153202  0.017484  3.971624  0.015  -0.078433  -0.146885  0.013117  3.949646  0.012
C  C27  1  0.15116217  0.32246030  0.49756747  1  -0.130663  0.02663  3.700313  0.023  -0.150062  0.015375  3.959344  0.014  -0.154334  0.017459  3.97331  0.015  -0.079153  -0.147973  0.013107  3.951225  0.012
C  C28  1  0.16999982  0.32175597  0.99763436  1  -0.129193  -0.026675  3.699251  -0.023  -0.148668  -0.015387  3.957795  -0.014  -0.152952  -0.017487  3.971727  -0.015  -0.07836  -0.146604  -0.013115  3.949766  -0.012
C  C29  1  0.84874800  0.67755271  0.50244480  1  -0.130635  -0.026629  3.700088  -0.023  -0.149926  -0.015376  3.958923  -0.014  -0.154187  -0.017462  3.972886  -0.015  -0.079015  -0.147824  -0.013109  3.950792  -0.012
C  C30  1  0.92605392  0.53825810  0.02811072  1  0.074236  -0.033657  3.753478  -0.031  0.077045  -0.029447  4.000782  -0.026  0.083322  -0.027468  4.0163  -0.024  -0.001054  0.072673  -0.029136  3.990743  -0.025
C  C31  1  0.38763004  0.46219730  0.47189493  1  0.0746  -0.033636  3.753652  -0.031  0.07703  -0.029457  4.001705  -0.026  0.08328  -0.027459  4.017303  -0.024  -0.000663  0.072658  -0.029173  3.991701  -0.025
C  C32  1  0.07397949  0.46175334  0.97187053  1  0.074179  0.033655  3.753816  0.031  0.076986  0.029436  4.001064  0.026  0.083261  0.027467  4.016587  0.024  -0.001069  0.072619  0.029131  3.991012  0.025
C  C33  1  0.61229061  0.53780124  0.52811442  1  0.074564  0.033635  3.753756  0.031  0.077165  0.029452  4.001613  0.026  0.083381  0.027456  4.017253  0.024  -0.000628  0.072798  0.029169  3.991598  0.025
C  C34  1  0.86945113  0.47474578  0.11121272  1  -0.110569  0.027015  3.690441  0.024  -0.136222  0.01518  3.957431  0.013  -0.13761  0.017696  3.966636  0.015  -0.074195  -0.136305  0.012506  3.95285  0.011
C  C35  1  0.39490166  0.52623196  0.38887460  1  -0.111272  0.026987  3.690124  0.024  -0.136204  0.015188  3.956917  0.013  -0.137547  0.017688  3.966101  0.015  -0.074443  -0.136354  0.012535  3.95241  0.011
C  C36  1  0.13057575  0.52525259  0.88876691  1  -0.110895  -0.02702  3.690555  -0.024  -0.136267  -0.01518  3.957465  -0.013  -0.137656  -0.017701  3.966676  -0.015  -0.074245  -0.136363  -0.012508  3.952912  -0.011
C  C37  1  0.60502950  0.47375929  0.61113455  1  -0.111498  -0.026986  3.690509  -0.024  -0.136609  -0.01519  3.957254  -0.013  -0.137952  -0.01769  3.966461  -0.015  -0.074572  -0.136757  -0.012538  3.952746  -0.011
C  C38  1  0.72235326  0.54206309  0.16294485  1  0.024801  -0.030298  3.58626  -0.027  -0.023998  -0.023095  3.860521  -0.019  -0.01289  -0.022812  3.864276  -0.019  0.039308  -0.031897  -0.021908  3.859762  -0.018
C  C39  1  0.18052260  0.45937138  0.33710351  1  0.025163  -0.030201  3.586558  -0.027  -0.023024  -0.023049  3.860162  -0.019  -0.011977  -0.022753  3.863983  -0.019  0.040113  -0.030833  -0.021874  3.859348  -0.018
C  C40  1  0.27768413  0.45793506  0.83703983  1  0.025128  0.0303  3.586022  0.027  -0.023858  0.023094  3.860407  0.019  -0.012746  0.02281  3.864182  0.019  0.039417  -0.031758  0.021907  3.859644  0.018
C  C41  1  0.81940888  0.54061698  0.66290493  1  0.025097  0.030197  3.587057  0.027  -0.023097  0.023042  3.860647  0.019  -0.012057  0.022753  3.864485  0.019  0.040018  -0.030898  0.02187  3.859822  0.018
N  N42  1  0.62670848  0.67228653  0.13477889  1  0.262031  0.018018  3.694135  0.02  0.313603  0.006366  3.956145  0.007  0.31538  0.012001  3.979619  0.013  -0.117396  0.310878  0.002044  3.940141  0.002
N  N43  1  0.95429970  0.32927135  0.36516574  1  0.261256  0.017974  3.697477  0.02  0.312622  0.006306  3.959409  0.007  0.314381  0.011943  3.982944  0.013  -0.118348  0.309913  0.001961  3.943345  0.002
N  N44  1  0.37333745  0.32772160  0.86521113  1  0.262083  -0.018024  3.693744  -0.02  0.31371  -0.006377  3.955759  -0.007  0.315482  -0.012006  3.979239  -0.013  -0.11739  0.310986  -0.00205  3.939753  -0.002
N  N45  1  0.04563188  0.67072427  0.63484353  1  0.261691  -0.017982  3.697962  -0.02  0.312991  -0.006314  3.959961  -0.007  0.314742  -0.011956  3.983519  -0.013  -0.118031  0.310284  -0.00197  3.943889  -0.002
O  O46  1  0.88381800  0.90467269  0.32273121  1  -0.609689  -0.034544  2.086105  -0.023  -0.550381  -0.04226  2.340496  -0.028  -0.581485  -0.038672  2.332474  -0.025  -0.297956  -0.525748  -0.046296  2.344206  -0.033
O  O47  1  0.97990443  0.09714063  0.17756897  1  -0.611046  -0.034593  2.088938  -0.023  -0.550847  -0.042132  2.342421  -0.028  -0.582021  -0.03861  2.334379  -0.025  -0.29811  -0.526146  -0.046084  2.346182  -0.033
O  O48  1  0.11623621  0.09532725  0.67727882  1  -0.609609  0.034548  2.085796  0.023  -0.550268  0.042262  2.340385  0.028  -0.581312  0.038676  2.332244  0.025  -0.297864  -0.52564  0.046298  2.3441  0.033
O  O49  1  0.02016484  0.90288231  0.82244928  1  -0.611412  0.034597  2.089256  0.023  -0.551011  0.042131  2.342334  0.028  -0.582173  0.038611  2.334292  0.025  -0.298203  -0.526312  0.04608  2.346102  0.033
O  O50  1  0.28320732  0.90422318  0.32396330  1  -0.57626  -0.032417  2.042172  -0.022  -0.518572  -0.039654  2.288417  -0.027  -0.548926  -0.036131  2.281422  -0.023  -0.294247  -0.494442  -0.043692  2.291279  -0.031
O  O51  1  0.37937631  0.09692197  0.17598313  1  -0.576397  -0.032384  2.040174  -0.022  -0.519395  -0.039745  2.286618  -0.027  -0.549708  -0.036167  2.279639  -0.023  -0.294703  -0.495299  -0.043856  2.289461  -0.031
O  O52  1  0.71682501  0.09575075  0.67604096  1  -0.576389  0.032428  2.041807  0.022  -0.518561  0.039661  2.288128  0.027  -0.548935  0.036136  2.281149  0.023  -0.294248  -0.494429  0.043697  2.290983  0.031
O  O53  1  0.62066891  0.90307064  0.82402797  1  -0.576156  0.032384  2.040078  0.022  -0.519207  0.039747  2.286501  0.027  -0.549537  0.03617  2.279566  0.023  -0.294562  -0.495131  0.043858  2.289387  0.031
O  O54  1  0.47965424  0.73205810  0.18469311  1  -0.554289  -0.01314  1.865473  0.003  -0.511012  -0.012054  2.132742  0.009  -0.539787  -0.014532  2.130783  0.006  -0.234831  -0.489635  -0.01481  2.133669  0.005
O  O55  1  0.74754823  0.26961773  0.31518752  1  -0.554563  -0.01306  1.865018  0.003  -0.511148  -0.011937  2.131892  0.009  -0.539927  -0.014446  2.130001  0.006  -0.234468  -0.489776  -0.014633  2.132794  0.005
O  O56  1  0.52040775  0.26794675  0.81530503  1  -0.554449  0.013148  1.865219  -0.003  -0.511205  0.012063  2.132566  -0.009  -0.539983  0.014545  2.130596  -0.006  -0.234881  -0.489827  0.014816  2.133498  -0.005
O  O57  1  0.25239361  0.73036653  0.68481449  1  -0.554998  0.013081  1.865656  -0.003  -0.511313  0.011949  2.132321  -0.009  -0.540082  0.014461  2.13042  -0.006  -0.234596  -0.489952  0.014642  2.133237  -0.005
