# generated using pymatgen
data_Co3H70C64(N2O5)4
_symmetry_space_group_name_H-M   'P 1'
_cell_length_a   9.50863058
_cell_length_b   10.11821496
_cell_length_c   19.38050036
_cell_angle_alpha   75.96229980
_cell_angle_beta   81.26198130
_cell_angle_gamma   87.52363723
_symmetry_Int_Tables_number   1
_chemical_formula_structural   Co3H70C64(N2O5)4
_chemical_formula_sum   'Co3 H70 C64 N8 O20'
_cell_volume   1787.88621790
_cell_formula_units_Z   1
loop_
 _symmetry_equiv_pos_site_id
 _symmetry_equiv_pos_as_xyz
  1  'x, y, z'
loop_
 _atom_site_type_symbol
 _atom_site_label
 _atom_site_symmetry_multiplicity
 _atom_site_fract_x
 _atom_site_fract_y
 _atom_site_fract_z
 _atom_site_occupancy
 _atom_site_pbe_bader_charge
 _atom_site_pbe_bader_spin_density
 _atom_site_pbe_cm5_charge
 _atom_site_pbe_ddec_charge
 _atom_site_pbe_ddec_spin_density
 _atom_site_pbe_ddec_sum_bond_order
 _atom_site_pbe_magmom
Co  Co0  1  0.69062183  0.38732619  0.72721883  1  1.114637  0.974  0.635705  0.65299  1.042618  2.90146  0.963
Co  Co1  1  0.31165734  0.61919770  0.27056711  1  1.261417  2.602792  0.660834  0.84589  2.816581  2.484115  2.58
Co  Co2  1  0.00123785  0.00116002  0.99961539  1  1.301344  2.641447  0.617703  1.045076  2.847078  2.210203  2.624
H  H3  1  0.70140195  0.91648101  0.75365259  1  0.109796  4.2e-05  0.10836  0.119916  1.3e-05  1.002515  0.0
H  H4  1  0.29799975  0.09014415  0.24814801  1  0.080479  0.000597  0.107927  0.120232  0.000323  1.005949  0.0
H  H5  1  0.73308471  0.17770584  0.54162602  1  0.10527  0.000401  0.106348  0.115973  0.00024  1.063173  0.0
H  H6  1  0.25887695  0.81884971  0.45751714  1  0.093495  0.000488  0.106105  0.116588  0.000275  1.060266  0.0
H  H7  1  0.76261189  0.74064006  0.56927192  1  0.099801  3.3e-05  0.112969  0.134212  -2.2e-05  1.003778  0.0
H  H8  1  0.23112690  0.25481122  0.43623525  1  0.117633  0.000181  0.113049  0.133847  2.6e-05  1.001967  0.0
H  H9  1  0.84913567  0.16712927  0.43477194  1  0.067807  -3e-06  0.105517  0.079312  -1.9e-05  0.96958  0.0
H  H10  1  0.14812274  0.82455865  0.56773110  1  0.053522  2e-06  0.105174  0.077795  -1.8e-05  0.96982  0.0
H  H11  1  0.65994960  0.15170644  0.44366997  1  0.056614  -8e-06  0.105153  0.075611  -1.2e-05  1.001265  0.0
H  H12  1  0.33712372  0.84390656  0.55717245  1  0.061768  -5e-06  0.104425  0.073047  -1.4e-05  1.009077  0.0
H  H13  1  0.54912594  0.08681368  0.35050557  1  0.073286  0.000111  0.09772  0.098441  2.4e-05  1.037434  0.0
H  H14  1  0.44933976  0.90997470  0.64941762  1  0.078237  0.000108  0.096596  0.097012  4.1e-05  1.040038  0.0
H  H15  1  0.57356261  0.07496655  0.22215712  1  0.097482  6e-05  0.104992  0.111715  6e-06  1.011872  0.0
H  H16  1  0.42705711  0.92566629  0.77717138  1  0.096719  3.7e-05  0.10406  0.109041  -6e-06  1.01505  0.0
H  H17  1  0.02964880  0.08557143  0.20716109  1  0.107223  0.000102  0.104508  0.108316  -7e-06  1.004461  0.0
H  H18  1  0.97090443  0.91419366  0.79430699  1  0.085706  7.4e-05  0.103332  0.106389  -2e-05  1.006828  0.0
H  H19  1  0.00535405  0.10572741  0.33339821  1  0.077406  -9e-06  0.098612  0.101578  -2.8e-05  1.046088  0.0
H  H20  1  0.99292188  0.88929213  0.66894326  1  0.094784  -4e-06  0.097396  0.099638  -1.1e-05  1.044493  0.0
H  H21  1  0.48350011  0.19664581  0.81857691  1  0.132798  -2e-06  0.121673  0.10374  -0.000255  1.007643  0.0
H  H22  1  0.54354275  0.80849312  0.18033377  1  0.101792  0.001349  0.118522  0.097123  0.0002  1.004702  0.001
H  H23  1  0.23433375  0.20834261  0.87855903  1  0.12357  -0.000241  0.111684  0.134917  -0.000329  1.0086  0.0
H  H24  1  0.79209339  0.79054960  0.11929815  1  0.114238  0.000413  0.111738  0.134454  -9.2e-05  1.013111  0.0
H  H25  1  0.22207029  0.62878886  0.76035323  1  0.102098  -2.3e-05  0.104285  0.1117  4e-05  1.031374  0.0
H  H26  1  0.79214183  0.36792483  0.23526117  1  0.090454  0.000822  0.103827  0.110622  0.000364  1.033341  0.0
H  H27  1  0.47125213  0.60005387  0.70561462  1  0.157967  8.2e-05  0.120672  0.095333  -0.000188  1.024794  0.0
H  H28  1  0.54289704  0.40337438  0.29021929  1  0.101956  0.001353  0.116664  0.088926  0.000309  1.021905  0.001
H  H29  1  0.00952247  0.53307272  0.83135872  1  0.049623  0.000188  0.103165  0.087981  0.000118  0.980159  0.0
H  H30  1  0.00677484  0.46055332  0.16393529  1  0.047685  0.000186  0.102648  0.087228  6.9e-05  0.98411  0.0
H  H31  1  0.98854697  0.35395505  0.85790751  1  0.087633  -0.000533  0.114968  0.111846  -0.000519  0.990529  0.0
H  H32  1  0.03120548  0.63946278  0.13922427  1  0.092179  -9.2e-05  0.114503  0.111802  -0.00021  0.991849  0.0
H  H33  1  0.09470823  0.64765773  0.91684008  1  0.01561  3.6e-05  0.096255  0.065699  -7.3e-05  0.995927  0.0
H  H34  1  0.91897519  0.35181512  0.07870375  1  0.039098  1.4e-05  0.095986  0.063974  -9.9e-05  0.997112  0.0
H  H35  1  0.24289379  0.53552938  0.92652640  1  0.037087  -4.1e-05  0.109957  0.096109  -8.3e-05  0.970264  0.0
H  H36  1  0.77224183  0.46547600  0.06860578  1  0.040105  -7e-06  0.109788  0.095331  -4.8e-05  0.969683  0.0
H  H37  1  0.85167717  0.54751791  0.93863948  1  0.038106  0.000674  0.099877  0.075779  0.000352  0.975265  0.0
H  H38  1  0.16499899  0.45262067  0.05645622  1  0.037483  0.000659  0.099445  0.074563  0.00033  0.973787  0.0
H  H39  1  0.83720881  0.36652128  0.96196433  1  0.098569  0.000809  0.110838  0.105856  0.000431  0.993925  0.0
H  H40  1  0.17791043  0.63403005  0.03321579  1  0.083574  0.000688  0.110573  0.103258  0.000332  0.991765  0.0
H  H41  1  0.92648970  0.22249544  0.78110141  1  0.150461  -5.9e-05  0.124245  0.102929  -0.000269  0.98686  0.0
H  H42  1  0.05053045  0.78541571  0.22000849  1  0.11144  0.001726  0.117762  0.091697  0.000593  0.988703  0.001
H  H43  1  0.17657264  0.17905142  0.73044334  1  0.092817  -0.000133  0.101266  0.108193  -9.4e-05  1.043658  0.0
H  H44  1  0.80322416  0.82874722  0.27442774  1  0.096228  0.000838  0.099025  0.104846  0.000342  1.052432  0.0
H  H45  1  0.12131522  0.48924083  0.54052976  1  0.117845  -2.7e-05  0.108061  0.116789  6e-06  1.018765  0.0
H  H46  1  0.86320688  0.50834200  0.45931339  1  0.079873  0.000707  0.10605  0.114813  0.000319  1.021225  0.0
H  H47  1  0.87154036  0.52225908  0.59933244  1  0.120385  9.1e-05  0.12165  0.095313  -7.8e-05  1.012537  0.0
H  H48  1  0.11021085  0.47584688  0.39681178  1  0.092779  0.001246  0.115795  0.08756  0.000129  1.016291  0.001
H  H49  1  0.38383693  0.26061880  0.63840618  1  0.044961  -0.000173  0.095631  0.076619  -0.000184  0.985631  0.0
H  H50  1  0.59798046  0.74033321  0.36581823  1  0.043159  -0.000186  0.0957  0.077335  -0.000242  0.98996  0.0
H  H51  1  0.30375512  0.20979320  0.57243887  1  0.082125  -0.00051  0.108259  0.095666  -0.000422  1.008784  0.0
H  H52  1  0.67966744  0.78930632  0.43185106  1  0.086179  -0.000536  0.107788  0.093541  -0.00045  1.013015  0.0
H  H53  1  0.50650192  0.47573661  0.60496367  1  0.064739  -0.000174  0.098204  0.078956  -0.000233  1.023652  0.0
H  H54  1  0.47843682  0.52355903  0.39789152  1  0.0536  -1e-06  0.095323  0.076585  4e-06  1.019281  0.0
H  H55  1  0.33390485  0.55226749  0.60208700  1  0.026943  -0.000128  0.093651  0.066364  -0.000139  1.006199  0.0
H  H56  1  0.65060817  0.44674454  0.40102394  1  0.032203  -5.3e-05  0.094938  0.068175  -7.9e-05  1.004719  0.0
H  H57  1  0.45564231  0.28809354  0.46854615  1  0.023767  5e-06  0.095638  0.069581  -2.9e-05  1.009696  0.0
H  H58  1  0.52745781  0.71172282  0.53380431  1  0.017749  1e-06  0.09584  0.06819  -2e-05  1.006269  0.0
H  H59  1  0.58027352  0.31593180  0.52440850  1  0.034191  0.000251  0.08953  0.065165  0.000158  1.050361  0.0
H  H60  1  0.40339038  0.68163632  0.47824749  1  0.032183  0.000353  0.088747  0.058587  0.000231  1.040557  0.0
H  H61  1  0.74193787  0.50358235  0.82003330  1  0.644792  -0.000355  0.280439  0.362948  -0.000326  0.995484  0.0
H  H62  1  0.26116007  0.48936387  0.18700576  1  0.645667  -3.2e-05  0.279612  0.365774  3e-06  0.993993  0.0
H  H63  1  0.64638560  0.38092525  0.86987761  1  0.597397  0.001015  0.31372  0.38237  0.000452  0.897781  0.0
H  H64  1  0.36273285  0.60987575  0.13478685  1  0.604838  0.00035  0.318545  0.390003  -8.2e-05  0.887158  0.0
H  H65  1  0.77038813  0.06699623  0.94104854  1  0.59291  0.000105  0.327688  0.411089  -0.000158  0.858262  0.0
H  H66  1  0.22944990  0.92976484  0.06058382  1  0.608382  4.6e-05  0.326622  0.410849  -0.000194  0.859561  0.0
H  H67  1  0.76198141  0.10435361  0.01896602  1  0.646736  0.000308  0.281115  0.371332  0.000245  0.983224  0.001
H  H68  1  0.23928368  0.89610508  0.98184322  1  0.651643  0.000279  0.281729  0.372291  0.000254  0.98134  0.001
H  H69  1  0.09473767  0.27767419  0.97899064  1  0.618842  0.000704  0.274135  0.318413  0.000704  1.050989  0.001
H  H70  1  0.91577242  0.72246237  0.01817376  1  0.618635  0.000657  0.274427  0.319151  0.000655  1.049701  0.001
H  H71  1  0.08713671  0.17059394  0.05501527  1  0.588782  -0.000897  0.30064  0.377526  -0.001002  0.935365  0.0
H  H72  1  0.91950638  0.83095906  0.94299836  1  0.600226  -0.000851  0.300223  0.376943  -0.000981  0.937168  0.0
C  C73  1  0.73203537  0.67495272  0.71522033  1  1.543955  -0.004271  0.209854  0.555148  -0.00549  4.180696  -0.003
C  C74  1  0.26810681  0.32620351  0.29008221  1  1.552313  -0.004331  0.210045  0.565722  -0.005517  4.194798  -0.003
C  C75  1  0.73330243  0.81501227  0.66618933  1  -0.040894  -0.000184  -0.019262  -0.020519  -0.000573  4.013283  0.0
C  C76  1  0.26293555  0.18595503  0.33763505  1  -0.089425  0.005941  -0.021921  -0.025347  0.002888  4.042053  0.005
C  C77  1  0.71479320  0.92947152  0.69562276  1  0.029523  -0.001222  -0.088151  -0.147389  -0.001354  3.957098  -0.001
C  C78  1  0.28253964  0.07465487  0.30631658  1  0.025332  -0.000873  -0.086703  -0.141414  -0.0013  3.971958  0.0
C  C79  1  0.71177064  0.05885689  0.64962214  1  -0.032083  6.3e-05  -0.015876  0.0045  -0.00035  3.998561  0.0
C  C80  1  0.28386537  0.94392058  0.35048673  1  0.001046  0.003388  -0.017586  0.001497  0.001693  4.0171  0.002
C  C81  1  0.68737145  0.18688853  0.67510269  1  1.514148  -0.00267  0.196562  0.532703  -0.003725  4.181154  -0.003
C  C82  1  0.30904562  0.82438322  0.31843083  1  1.494747  -0.006565  0.191648  0.540684  -0.008548  4.21373  -0.007
C  C83  1  0.73265888  0.07453711  0.57488883  1  -0.03605  -0.001261  -0.099348  -0.233564  -0.001478  3.966022  -0.001
C  C84  1  0.26086434  0.92312889  0.42549798  1  -0.017367  -0.002173  -0.100036  -0.232599  -0.002543  3.956823  -0.001
C  C85  1  0.75200467  0.96083766  0.54560051  1  0.415509  0.000497  0.077595  0.250403  0.000173  4.089694  0.001
C  C86  1  0.24166034  0.03487569  0.45657924  1  0.389788  0.001017  0.078184  0.251025  0.000415  4.089477  0.001
C  C87  1  0.75063068  0.83020478  0.59156768  1  -0.050874  -0.002384  -0.095389  -0.219517  -0.002586  3.939362  -0.001
C  C88  1  0.24379040  0.16712500  0.41239125  1  0.026712  -0.003915  -0.093899  -0.217884  -0.004307  3.942525  -0.002
C  C89  1  0.76255360  0.10512746  0.42734755  1  0.369524  -1.7e-05  -0.058862  -0.016467  -4.1e-05  3.896106  0.0
C  C90  1  0.23391716  0.88842679  0.57433963  1  0.39506  -2.5e-05  -0.0586  -0.013738  -4.6e-05  3.898849  0.0
C  C91  1  0.77591646  0.09618002  0.35053827  1  0.00765  -0.000445  -0.013181  0.082451  -0.000474  3.980693  0.0
C  C92  1  0.22228580  0.89873146  0.65082204  1  -0.002085  -0.000394  -0.014711  0.080027  -0.000417  3.985038  0.0
C  C93  1  0.65452320  0.08777361  0.31886032  1  -0.078017  0.000513  -0.08788  -0.127979  0.000233  3.969294  0.0
C  C94  1  0.34443362  0.90930268  0.68148217  1  -0.076062  0.000438  -0.088301  -0.12937  0.000203  3.971056  0.0
C  C95  1  0.66753995  0.08083251  0.24721235  1  -0.033601  0.000268  -0.084185  -0.097498  -0.000121  3.971823  0.0
C  C96  1  0.33263109  0.91890076  0.75266751  1  -0.046051  0.000286  -0.084853  -0.095102  -0.000129  3.974526  0.0
C  C97  1  0.80284076  0.07893178  0.20668686  1  -0.070659  0.004117  -0.021233  -0.04841  0.002134  3.991805  0.003
C  C98  1  0.19798923  0.92178317  0.79356966  1  -0.123262  0.004101  -0.021418  -0.050279  0.002097  3.995747  0.003
C  C99  1  0.92434661  0.08778636  0.23827385  1  -0.016292  -0.000419  -0.084806  -0.09703  -0.000578  3.988829  0.0
C  C100  1  0.07571913  0.91128636  0.76288152  1  0.026128  -0.000393  -0.085612  -0.096445  -0.000543  3.990067  0.0
C  C101  1  0.91054088  0.09779544  0.30937459  1  -0.061883  0.000198  -0.086639  -0.123124  6.1e-05  3.962918  0.0
C  C102  1  0.08822146  0.89840555  0.69232935  1  -0.060381  0.000165  -0.086983  -0.122427  5.4e-05  3.962301  0.0
C  C103  1  0.81643172  0.06377907  0.13084446  1  1.538232  -0.002493  0.208085  0.571322  -0.00332  4.210142  -0.002
C  C104  1  0.18564344  0.93880878  0.86900355  1  1.559529  -0.002499  0.207404  0.569364  -0.003322  4.215249  -0.002
C  C105  1  0.42187329  0.29083336  0.80821441  1  0.419807  -0.011389  0.035181  0.058141  -0.01234  3.938338  -0.007
C  C106  1  0.60257712  0.71246230  0.18995849  1  0.427344  -0.005893  0.04052  0.081638  -0.006842  3.959912  -0.004
C  C107  1  0.28231362  0.29865983  0.84095748  1  -0.019197  0.002334  -0.082573  -0.168706  0.000598  3.927715  0.002
C  C108  1  0.74106604  0.70135061  0.15644368  1  0.004541  0.003908  -0.082617  -0.170852  0.00186  3.917904  0.003
C  C109  1  0.20593548  0.42138530  0.82557785  1  -0.021244  -0.014956  0.003726  0.12825  -0.015836  3.965817  -0.01
C  C110  1  0.81304860  0.57614382  0.17133299  1  -0.038854  -0.008761  0.008944  0.136581  -0.009342  3.959941  -0.006
C  C111  1  0.27566424  0.53069113  0.77541027  1  -0.106273  0.001808  -0.085386  -0.181618  0.000246  3.960762  0.002
C  C112  1  0.74116993  0.46754512  0.22102992  1  -0.058676  0.00418  -0.084591  -0.178556  0.00187  3.945806  0.003
C  C113  1  0.41510705  0.51612876  0.74447038  1  0.463411  -0.011188  0.040795  0.082751  -0.01203  3.930743  -0.007
C  C114  1  0.60242813  0.48636664  0.25208282  1  0.494693  -0.005592  0.042719  0.095129  -0.006211  3.959387  -0.003
C  C115  1  0.05589390  0.43747503  0.86065084  1  0.257403  -7.7e-05  -0.062655  -0.121798  -0.000564  3.890493  0.001
C  C116  1  0.96202906  0.55792877  0.13564532  1  0.292853  0.000146  -0.063765  -0.124307  -0.000221  3.890136  0.0
C  C117  1  0.13073127  0.54820912  0.94786950  1  0.298465  -0.000101  -0.066975  -0.078777  -0.000177  3.919339  0.0
C  C118  1  0.88440548  0.45179160  0.04756182  1  0.273688  -1e-05  -0.066633  -0.07765  -8.3e-05  3.918676  0.0
C  C119  1  0.89730800  0.45180434  0.96849178  1  0.246516  0.000829  -0.069233  -0.091608  0.000563  3.903428  0.001
C  C120  1  0.11837796  0.54815556  0.02689747  1  0.260766  0.000702  -0.068308  -0.089267  0.000467  3.908205  0.0
C  C121  1  0.97452171  0.28073644  0.72851765  1  0.433794  -0.006584  0.047684  0.090896  -0.007299  3.913568  -0.004
C  C122  1  0.00491993  0.72463417  0.27262223  1  0.393537  -0.003509  0.043225  0.09758  -0.004095  3.950423  -0.002
C  C123  1  0.11310176  0.25680583  0.69946017  1  -0.062228  0.001332  -0.089274  -0.181652  0.000276  3.963936  0.001
C  C124  1  0.86757281  0.74902649  0.30345539  1  -0.00046  0.004672  -0.092338  -0.186449  0.00222  3.963377  0.004
C  C125  1  0.16905803  0.32983346  0.63054436  1  0.009802  -0.007117  0.012507  0.148732  -0.007547  3.938347  -0.005
C  C126  1  0.81341169  0.67222504  0.37176457  1  0.002297  -0.006701  0.012707  0.151354  -0.007169  3.939905  -0.004
C  C127  1  0.08155721  0.42930245  0.59427674  1  -0.036611  0.001417  -0.089026  -0.189057  0.000386  3.965051  0.001
C  C128  1  0.90157080  0.57072014  0.40594216  1  -0.099737  0.004108  -0.09194  -0.19317  0.001971  3.966482  0.003
C  C129  1  0.94427163  0.44882847  0.62649195  1  0.418924  -0.005664  0.041221  0.085178  -0.005986  3.931195  -0.003
C  C130  1  0.03736485  0.55192147  0.37147990  1  0.557683  -0.004891  0.03876  0.093055  -0.00586  3.963883  -0.003
C  C131  1  0.31494431  0.29693902  0.59606768  1  0.304159  -2e-05  -0.062315  -0.115124  -0.000222  3.957255  0.0
C  C132  1  0.66816553  0.70322083  0.40749572  1  0.292142  8e-06  -0.064622  -0.117117  -0.000187  3.964251  0.0
C  C133  1  0.42592307  0.51625917  0.56954500  1  0.269976  -8.1e-05  -0.076473  -0.08621  -0.000154  3.936472  0.0
C  C134  1  0.55856915  0.48271178  0.43352494  1  0.269801  2.1e-05  -0.075626  -0.082637  -4.3e-05  3.930845  0.0
C  C135  1  0.49613894  0.36387328  0.49280469  1  0.29457  0.000465  -0.075197  -0.085836  0.000225  3.957437  0.0
C  C136  1  0.48784293  0.63468993  0.51005197  1  0.298752  0.0004  -0.072501  -0.078248  0.000208  3.962323  0.0
N  N137  1  0.49022267  0.39865518  0.76097793  1  -1.196415  -0.010018  -0.346094  -0.210155  -0.009805  3.665684  -0.006
N  N138  1  0.53243413  0.60627445  0.23667196  1  -1.225963  0.051203  -0.332659  -0.27603  0.027071  3.610153  0.044
N  N139  1  0.04721861  0.43707107  0.93764512  1  -1.017991  0.001371  -0.325181  -0.112387  0.000409  3.430757  0.001
N  N140  1  0.96873769  0.56186955  0.05837473  1  -1.016287  0.001505  -0.324486  -0.110875  0.000573  3.427605  0.001
N  N141  1  0.89027499  0.37544427  0.69266949  1  -1.195827  -0.009126  -0.347215  -0.185969  -0.009295  3.638745  -0.007
N  N142  1  0.08954393  0.62729684  0.30572290  1  -1.240306  0.058817  -0.332439  -0.250555  0.030907  3.562605  0.051
N  N143  1  0.37769122  0.40946723  0.53933784  1  -1.026709  0.00036  -0.346313  -0.139706  0.000176  3.460853  0.0
N  N144  1  0.60665012  0.58948311  0.46386923  1  -1.026268  0.000447  -0.345239  -0.138594  0.000223  3.460771  0.0
O  O145  1  0.70011651  0.57954999  0.68659426  1  -1.115896  -0.003182  -0.30449  -0.515358  -0.003275  2.51367  -0.003
O  O146  1  0.30331772  0.41988054  0.31816466  1  -1.161567  0.080673  -0.313451  -0.55098  0.042322  2.42971  0.068
O  O147  1  0.75824772  0.65961285  0.77863106  1  -1.172405  -0.002312  -0.322181  -0.540952  -0.00251  2.147905  -0.002
O  O148  1  0.24062164  0.34324238  0.22632791  1  -1.170066  0.000164  -0.324961  -0.545422  -0.001375  2.156966  0.0
O  O149  1  0.68614881  0.18556162  0.74226032  1  -1.092028  -0.004016  -0.309643  -0.512893  -0.004825  2.289567  -0.003
O  O150  1  0.32037171  0.83928382  0.25024035  1  -1.131751  0.07255  -0.32569  -0.560623  0.03722  2.18525  0.062
O  O151  1  0.67278107  0.29799993  0.62984892  1  -1.151623  0.061286  -0.292966  -0.513253  0.031293  2.237291  0.053
O  O152  1  0.31560720  0.70571188  0.35998686  1  -1.142305  0.082475  -0.305341  -0.531469  0.042247  2.270739  0.071
O  O153  1  0.93650583  0.01784274  0.10509707  1  -1.178973  0.05605  -0.330856  -0.614491  0.028889  2.335553  0.05
O  O154  1  0.06604309  0.98612928  0.89440539  1  -1.181043  0.057088  -0.332063  -0.612284  0.02957  2.337111  0.051
O  O155  1  0.71072040  0.09585601  0.09718298  1  -1.157689  0.001331  -0.325086  -0.536876  -3.1e-05  2.128519  0.001
O  O156  1  0.29119556  0.90652482  0.90271015  1  -1.166539  0.001292  -0.325061  -0.538108  -2.8e-05  2.126394  0.001
O  O157  1  0.77078259  0.96916875  0.47312190  1  -1.045814  -2.4e-05  -0.18008  -0.199057  -3.7e-05  2.501418  0.0
O  O158  1  0.22205096  0.02413381  0.52923741  1  -1.069202  0.000265  -0.182013  -0.201623  0.000125  2.510458  0.0
O  O159  1  0.73389790  0.39992994  0.83606355  1  -1.228365  0.056314  -0.565023  -0.742401  0.028645  2.13603  0.046
O  O160  1  0.27611909  0.59487241  0.16944551  1  -1.23236  0.065634  -0.564474  -0.751371  0.034097  2.167613  0.052
O  O161  1  0.12007314  0.17950818  0.00382548  1  -1.225536  0.050278  -0.5803  -0.771625  0.025714  2.175162  0.042
O  O162  1  0.88595027  0.81946586  0.99431404  1  -1.237326  0.048927  -0.581039  -0.77185  0.024994  2.170759  0.041
O  O163  1  0.82230634  0.11181470  0.96844517  1  -1.208909  0.066402  -0.566685  -0.760526  0.034445  2.11575  0.051
O  O164  1  0.17821573  0.88681202  0.03208777  1  -1.229212  0.064647  -0.564401  -0.758408  0.033565  2.112824  0.05
