# generated using pymatgen
data_Cu2H11C9ClO10
_symmetry_space_group_name_H-M   'P 1'
_cell_length_a   7.20068798
_cell_length_b   10.29690471
_cell_length_c   10.29686455
_cell_angle_alpha   88.42865529
_cell_angle_beta   90.00677069
_cell_angle_gamma   89.99238572
_symmetry_Int_Tables_number   1
_chemical_formula_structural   Cu2H11C9ClO10
_chemical_formula_sum   'Cu4 H22 C18 Cl2 O20'
_cell_volume   763.17183358
_cell_formula_units_Z   2
loop_
 _symmetry_equiv_pos_site_id
 _symmetry_equiv_pos_as_xyz
  1  'x, y, z'
loop_
 _atom_site_type_symbol
 _atom_site_label
 _atom_site_symmetry_multiplicity
 _atom_site_fract_x
 _atom_site_fract_y
 _atom_site_fract_z
 _atom_site_occupancy
 _atom_site_pbe_cm5_charge
 _atom_site_pbe_ddec_charge
 _atom_site_pbe_ddec_spin_density
 _atom_site_pbe_ddec_sum_bond_order
 _atom_site_pbe_magmom
Cu  Cu0  1  0.75000918  0.76540183  0.45527696  1  0.706304  0.982997  0.792076  2.063943  0.625
Cu  Cu1  1  0.24999819  0.23459185  0.54471807  1  0.706278  0.982886  -0.792073  2.064035  -0.625
Cu  Cu2  1  0.74998857  0.45528242  0.76541024  1  0.706314  0.982931  0.792059  2.063839  0.625
Cu  Cu3  1  0.25001046  0.54471484  0.23459935  1  0.706318  0.983003  -0.792068  2.063873  -0.625
H  H4  1  0.41795378  0.69726464  0.50095381  1  0.271823  0.375825  0.000549  0.962222  0.0
H  H5  1  0.91789234  0.30267782  0.49904826  1  0.271882  0.376012  -0.000549  0.962053  0.0
H  H6  1  0.08204808  0.50095551  0.69726802  1  0.271843  0.375873  0.00055  0.962156  0.0
H  H7  1  0.58212193  0.49904174  0.30267754  1  0.271857  0.376024  -0.00055  0.961996  0.0
H  H8  1  0.58205220  0.30272888  0.49904900  1  0.271854  0.375861  -0.000549  0.962166  0.0
H  H9  1  0.08211225  0.69732836  0.50095253  1  0.271846  0.375958  0.000549  0.962095  0.0
H  H10  1  0.91795373  0.49904402  0.30272601  1  0.27185  0.375934  -0.000549  0.962077  0.0
H  H11  1  0.41787711  0.50095738  0.69733592  1  0.27184  0.375957  0.00055  0.962097  0.0
H  H12  1  0.41533578  0.77692613  0.36974221  1  0.299067  0.388314  0.000602  0.945223  0.001
H  H13  1  0.91537333  0.22305497  0.63028077  1  0.29907  0.388205  -0.000602  0.945411  -0.001
H  H14  1  0.08465407  0.36974981  0.77693289  1  0.299143  0.388409  0.000602  0.945091  0.001
H  H15  1  0.58462518  0.63027158  0.22305354  1  0.299084  0.388245  -0.000602  0.94534  -0.001
H  H16  1  0.58467020  0.22307406  0.63026638  1  0.299028  0.388177  -0.000603  0.945408  -0.001
H  H17  1  0.08463265  0.77694743  0.36971519  1  0.299068  0.388231  0.000603  0.945347  0.001
H  H18  1  0.91534358  0.63025631  0.22307081  1  0.299094  0.388314  -0.000603  0.945217  -0.001
H  H19  1  0.41537386  0.36972378  0.77695412  1  0.299103  0.388252  0.000602  0.945334  0.001
H  H20  1  0.75001191  0.11977768  0.11976154  1  0.116773  0.127241  -4.9e-05  0.990658  0.0
H  H21  1  0.24999129  0.88023150  0.88023535  1  0.116729  0.127172  4.9e-05  0.990795  0.0
H  H22  1  0.75006692  0.01473086  0.71644573  1  0.116534  0.13145  0.000386  0.986283  0.0
H  H23  1  0.24992795  0.98526760  0.28355317  1  0.116549  0.131449  -0.000386  0.986225  0.0
H  H24  1  0.74992858  0.71646496  0.01470829  1  0.116548  0.131472  0.000386  0.986291  0.0
H  H25  1  0.25008295  0.28353841  0.98528766  1  0.116527  0.131476  -0.000386  0.98648  0.0
C  C26  1  0.75002561  0.08328615  0.91444583  1  -0.020847  -0.051917  0.005583  4.009777  0.006
C  C27  1  0.24997621  0.91671228  0.08555404  1  -0.020863  -0.052097  -0.005583  4.009842  -0.006
C  C28  1  0.74998401  0.91445740  0.08328419  1  -0.02085  -0.051994  0.005581  4.010002  0.006
C  C29  1  0.25001919  0.08554688  0.91671467  1  -0.020879  -0.052052  -0.005581  4.009948  -0.006
C  C30  1  0.75001123  0.04601987  0.04600769  1  -0.056337  -0.073882  -0.000315  3.900305  0.0
C  C31  1  0.24999892  0.95398553  0.95398436  1  -0.056291  -0.073736  0.000315  3.900165  0.0
C  C32  1  0.74999651  0.85700205  0.85699520  1  -0.007863  -0.02565  0.014001  3.936342  0.016
C  C33  1  0.24999836  0.14299054  0.14300567  1  -0.007946  -0.025834  -0.013998  3.936403  -0.016
C  C34  1  0.75003199  0.22504278  0.88148366  1  0.197799  0.557106  9.3e-05  4.178684  -0.002
C  C35  1  0.24996149  0.77496156  0.11851229  1  0.197926  0.557447  -9.3e-05  4.178238  0.002
C  C36  1  0.74997381  0.88148225  0.22502575  1  0.197829  0.557167  9.3e-05  4.178609  -0.002
C  C37  1  0.25002662  0.11851637  0.77496537  1  0.197801  0.557174  -9.3e-05  4.178752  0.002
C  C38  1  0.74999471  0.75519029  0.75519568  1  0.237051  0.626188  0.006518  4.144177  0.005
C  C39  1  0.25000432  0.24479338  0.24481302  1  0.236975  0.626071  -0.006519  4.144158  -0.005
C  C40  1  0.75004236  0.98856406  0.81962652  1  -0.061742  -0.077205  0.000223  3.879972  0.0
C  C41  1  0.24995668  0.01143653  0.18036362  1  -0.061671  -0.076983  -0.000223  3.880031  0.0
C  C42  1  0.74995949  0.81964893  0.98854334  1  -0.061681  -0.077083  0.000222  3.880282  0.0
C  C43  1  0.25003955  0.18035837  0.01145064  1  -0.061631  -0.077072  -0.000222  3.88026  0.0
Cl  Cl44  1  0.75000719  0.46740996  0.46740810  1  -0.252748  -0.627031  -0.00844  1.213915  -0.007
Cl  Cl45  1  0.25000434  0.53259135  0.53259369  1  -0.252761  -0.627005  0.00844  1.213909  0.007
O  O46  1  0.75003638  0.25978581  0.75541738  1  -0.339962  -0.623547  0.067715  2.362332  0.095
O  O47  1  0.24997238  0.74021374  0.24457568  1  -0.33996  -0.623674  -0.067713  2.362404  -0.095
O  O48  1  0.74996890  0.75541883  0.25976841  1  -0.339955  -0.623594  0.06768  2.36258  0.095
O  O49  1  0.25002735  0.24458083  0.74021979  1  -0.339958  -0.6236  -0.067693  2.362376  -0.095
O  O50  1  0.75003270  0.30810830  0.96606737  1  -0.29297  -0.480659  -0.000552  2.089587  0.0
O  O51  1  0.24993439  0.69188939  0.03392181  1  -0.293131  -0.480922  0.000552  2.088983  0.0
O  O52  1  0.74994232  0.96607653  0.30810328  1  -0.293127  -0.480835  -0.000552  2.088845  0.0
O  O53  1  0.25004977  0.03393061  0.69189848  1  -0.29301  -0.480704  0.000553  2.089393  0.0
O  O54  1  0.75009078  0.79818284  0.63857564  1  -0.319728  -0.542267  0.050233  2.410859  0.07
O  O55  1  0.24994853  0.20179819  0.36142045  1  -0.31962  -0.542062  -0.050219  2.411098  -0.07
O  O56  1  0.74989102  0.63859936  0.79819107  1  -0.319615  -0.542077  0.050202  2.411223  0.07
O  O57  1  0.25005386  0.36140057  0.20183016  1  -0.319663  -0.542092  -0.050202  2.410867  -0.07
O  O58  1  0.47582080  0.77395408  0.45643814  1  -0.572815  -0.718852  0.050392  2.216123  0.068
O  O59  1  0.97581565  0.22600085  0.54358342  1  -0.572895  -0.718964  -0.0504  2.215832  -0.068
O  O60  1  0.02417242  0.45644386  0.77395799  1  -0.57289  -0.718939  0.050392  2.215993  0.068
O  O61  1  0.52418782  0.54357513  0.22600283  1  -0.572898  -0.71901  -0.050398  2.215787  -0.068
O  O62  1  0.52418518  0.22604218  0.54357243  1  -0.572811  -0.71876  -0.050394  2.216236  -0.068
O  O63  1  0.02418894  0.77400347  0.45641349  1  -0.572855  -0.718914  0.050402  2.215833  0.068
O  O64  1  0.97582662  0.54356534  0.22603792  1  -0.572854  -0.71891  -0.050397  2.215993  -0.068
O  O65  1  0.47580705  0.45642012  0.77400968  1  -0.572878  -0.718894  0.050402  2.215834  0.068
