# generated using pymatgen
data_CuH12(C7N2)3
_symmetry_space_group_name_H-M   'P 1'
_cell_length_a   8.69087931
_cell_length_b   17.63955778
_cell_length_c   22.87970441
_cell_angle_alpha   97.14006373
_cell_angle_beta   89.99966259
_cell_angle_gamma   89.99983836
_symmetry_Int_Tables_number   1
_chemical_formula_structural   CuH12(C7N2)3
_chemical_formula_sum   'Cu4 H48 C84 N24'
_cell_volume   3480.33346887
_cell_formula_units_Z   4
loop_
 _symmetry_equiv_pos_site_id
 _symmetry_equiv_pos_as_xyz
  1  'x, y, z'
loop_
 _atom_site_type_symbol
 _atom_site_label
 _atom_site_symmetry_multiplicity
 _atom_site_fract_x
 _atom_site_fract_y
 _atom_site_fract_z
 _atom_site_occupancy
 _atom_site_pbe_bader_charge
 _atom_site_pbe_bader_spin_density
 _atom_site_pbe_cm5_charge
 _atom_site_pbe_ddec_charge
 _atom_site_pbe_ddec_spin_density
 _atom_site_pbe_ddec_sum_bond_order
 _atom_site_pbe_magmom
Cu  Cu0  1  0.95602207  0.43289768  0.24738873  1  0.724524  0  0.511009  0.285166  0  2.970939  0
Cu  Cu1  1  0.45602621  0.56710828  0.25261176  1  0.724549  0  0.511029  0.285233  0  2.970964  0
Cu  Cu2  1  0.04396849  0.56710309  0.75261160  1  0.724313  0  0.511  0.285151  0  2.970986  0
Cu  Cu3  1  0.54397701  0.43289191  0.74738721  1  0.724333  0  0.511022  0.285178  0  2.970953  0
H  H4  1  0.23682516  0.30721617  0.49339339  1  0.439981  0  0.327942  0.2746  0  0.929542  0
H  H5  1  0.83071246  0.30341089  0.30532692  1  0.109371  0  0.123183  0.093398  0  0.971783  0
H  H6  1  0.92476830  0.20893889  0.37027114  1  0.128974  0  0.11895  0.131384  0  0.977381  0
H  H7  1  0.34275527  0.34245358  0.39482623  1  0.046078  0  0.109152  0.115473  0  0.99293  0
H  H8  1  0.23398867  0.42829358  0.32572101  1  0.130041  0  0.118414  0.100768  0  1.002488  0
H  H9  1  0.34191007  0.04453408  0.43849933  1  0.133351  0  0.108418  0.10507  0  1.003311  0
H  H10  1  0.38957554  0.27285034  0.72485308  1  0.095695  0  0.119175  0.088055  0  0.997371  0
H  H11  1  0.29432258  0.18767318  0.63813032  1  0.107619  0  0.121042  0.132775  0  0.978331  0
H  H12  1  0.50512906  0.34141947  0.52814532  1  0.072582  0  0.106558  0.110676  0  0.9994  0
H  H13  1  0.59619945  0.41919664  0.62033049  1  0.09397  0  0.117578  0.083723  0  0.983769  0
H  H14  1  0.02660492  0.13803082  0.53643417  1  0.047731  0  0.095843  0.094685  0  1.010188  0
H  H15  1  0.80505890  0.06421544  0.56887339  1  0.061426  0  0.104565  0.112586  0  1.005997  0
H  H16  1  0.73682560  0.69278500  0.00660366  1  0.440013  0  0.327925  0.274578  0  0.929408  0
H  H17  1  0.33070986  0.69659070  0.19467127  1  0.109375  0  0.123199  0.093423  0  0.97179  0
H  H18  1  0.42477768  0.79106140  0.12972804  1  0.128984  0  0.118945  0.13137  0  0.977561  0
H  H19  1  0.84275898  0.65754688  0.10517446  1  0.045963  0  0.10915  0.115459  0  0.992964  0
H  H20  1  0.73399063  0.57170421  0.17427968  1  0.130056  0  0.118382  0.100723  0  1.00231  0
H  H21  1  0.84190930  0.95546869  0.06150463  1  0.133623  0  0.108468  0.105175  0  1.003307  0
H  H22  1  0.88956584  0.72714978  0.77514760  1  0.095659  0  0.119195  0.088128  0  0.997444  0
H  H23  1  0.79431909  0.81232826  0.86187114  1  0.10773  0  0.121035  0.132762  0  0.97837  0
H  H24  1  0.00512925  0.65858474  0.97185527  1  0.072557  0  0.106567  0.11067  0  0.999414  0
H  H25  1  0.09619577  0.58080227  0.87966943  1  0.094015  0  0.117538  0.083631  0  0.983744  0
H  H26  1  0.52660876  0.86197050  0.96356612  1  0.047757  0  0.095847  0.094679  0  1.010141  0
H  H27  1  0.30506275  0.93578312  0.93112734  1  0.061417  0  0.104583  0.112598  0  1.005948  0
H  H28  1  0.76317806  0.69278222  0.50659755  1  0.439995  0  0.327926  0.274551  0  0.929707  0
H  H29  1  0.16928155  0.69657955  0.69466811  1  0.109359  0  0.123194  0.093386  0  0.971696  0
H  H30  1  0.07523262  0.79104809  0.62972097  1  0.129221  0  0.119001  0.131406  0  0.977336  0
H  H31  1  0.65723874  0.65754545  0.60517133  1  0.045913  0  0.109139  0.115486  0  0.992984  0
H  H32  1  0.76599154  0.57170490  0.67427868  1  0.129917  0  0.118383  0.100758  0  1.002394  0
H  H33  1  0.65809661  0.95546326  0.56150114  1  0.133417  0  0.108429  0.1051  0  1.00336  0
H  H34  1  0.61043918  0.72714926  0.27514452  1  0.095588  0  0.119161  0.088029  0  0.997457  0
H  H35  1  0.70568754  0.81232874  0.36187012  1  0.107614  0  0.121034  0.132705  0  0.978258  0
H  H36  1  0.49487301  0.65858470  0.47185225  1  0.072618  0  0.106575  0.110671  0  0.999506  0
H  H37  1  0.40379686  0.58080869  0.37966894  1  0.094086  0  0.117584  0.083708  0  0.983875  0
H  H38  1  0.97340290  0.86197165  0.46356544  1  0.04774  0  0.095832  0.094672  0  1.010136  0
H  H39  1  0.19495122  0.93578763  0.43112802  1  0.061399  0  0.104557  0.112568  0  1.005993  0
H  H40  1  0.26316956  0.30721524  0.99340056  1  0.440086  0  0.327918  0.274542  0  0.929555  0
H  H41  1  0.66927840  0.30341173  0.80532484  1  0.109316  0  0.123182  0.093427  0  0.971867  0
H  H42  1  0.57522439  0.20894278  0.87027085  1  0.129085  0  0.118964  0.131392  0  0.977455  0
H  H43  1  0.15724539  0.34245967  0.89483251  1  0.046006  0  0.109176  0.115524  0  0.992967  0
H  H44  1  0.26600223  0.42829830  0.82572343  1  0.129983  0  0.118375  0.100726  0  1.002305  0
H  H45  1  0.15809507  0.04453322  0.93849581  1  0.133346  0  0.108435  0.105099  0  1.003349  0
H  H46  1  0.11042242  0.27285045  0.22485487  1  0.095672  0  0.119168  0.088062  0  0.997297  0
H  H47  1  0.20567032  0.18766853  0.13813059  1  0.107772  0  0.121041  0.132717  0  0.978221  0
H  H48  1  0.99487397  0.34141547  0.02814588  1  0.072547  0  0.106565  0.110652  0  0.999443  0
H  H49  1  0.90380745  0.41919849  0.12032959  1  0.09416  0  0.117577  0.083691  0  0.983736  0
H  H50  1  0.47339446  0.13802973  0.03643723  1  0.047791  0  0.095831  0.094655  0  1.010089  0
H  H51  1  0.69493702  0.06421429  0.06887838  1  0.061385  0  0.104575  0.112589  0  1.005883  0
C  C52  1  0.94399196  0.30945638  0.32600618  1  0.48207  0  0.046858  0.081295  0  3.955015  0
C  C53  1  0.99630299  0.25735856  0.36234723  1  -0.062927  0  -0.077312  -0.160946  0  3.950842  0
C  C54  1  0.14139846  0.26856651  0.38882082  1  -0.035326  0  0.002684  0.065492  0  4.03892  0
C  C55  1  0.22749783  0.33213425  0.37664606  1  -0.009506  0  -0.087883  -0.181457  0  3.969878  0
C  C56  1  0.16806902  0.38023298  0.33847449  1  0.50598  0  0.046377  0.09431  0  3.924512  0
C  C57  1  0.20149808  0.21613373  0.42872207  1  0.310899  0  0.108536  0.138792  0  4.03934  0
C  C58  1  0.20648064  0.13849283  0.41595657  1  0.227255  0  -0.003204  -0.066559  0  3.977014  0
C  C59  1  0.25961431  0.08626259  0.46040983  1  0.041026  0  -0.06181  -0.056303  0  3.897154  0
C  C60  1  0.34000034  0.13312988  0.51198697  1  0.177543  0  -0.008305  -0.085088  0  4.002109  0
C  C61  1  0.32980889  0.21099626  0.52252780  1  0.397172  0  0.112622  0.145514  0  4.044915  0
C  C62  1  0.41427301  0.28607835  0.68051894  1  0.518948  0  0.052613  0.10467  0  3.917591  0
C  C63  1  0.36054593  0.23848577  0.63187480  1  -0.04166  0  -0.072377  -0.154176  0  3.932306  0
C  C64  1  0.39006232  0.25779860  0.57533347  1  -0.002525  0  0.002533  0.063915  0  4.035867  0
C  C65  1  0.47537919  0.32451759  0.57100935  1  -0.056426  0  -0.08987  -0.182936  0  3.978497  0
C  C66  1  0.52707079  0.36787456  0.62209832  1  0.492444  0  0.045905  0.095873  0  3.952619  0
C  C67  1  0.16215655  0.10281380  0.35961629  1  0.784496  0  0.162627  0.227092  0  4.093986  0
C  C68  1  0.42612608  0.09198689  0.54987513  1  0.790621  0  0.175038  0.240453  0  4.093697  0
C  C69  1  0.12487646  0.04155751  0.48137411  1  -0.051543  0  -0.011734  0.078511  0  3.949943  0
C  C70  1  0.01487913  0.07740422  0.52019291  1  -0.025539  0  -0.093446  -0.128496  0  4.001177  0
C  C71  1  0.89095732  0.03632221  0.53873204  1  -0.019116  0  -0.087648  -0.11968  0  3.971456  0
C  C72  1  0.75507793  0.47088828  0.25243424  1  0.679679  0  -0.095394  -0.180825  0  3.958915  0
C  C73  1  0.44399432  0.69054447  0.17399432  1  0.48206  0  0.046841  0.081201  0  3.9549  0
C  C74  1  0.49630447  0.74264561  0.13765214  1  -0.062796  0  -0.07728  -0.160864  0  3.9508  0
C  C75  1  0.64140395  0.73143544  0.11118001  1  -0.035224  0  0.002664  0.065445  0  4.038812  0
C  C76  1  0.72750579  0.66786527  0.12335524  1  -0.009941  0  -0.087841  -0.181362  0  3.969668  0
C  C77  1  0.66806401  0.61977121  0.16152649  1  0.506391  0  0.046405  0.094322  0  3.924525  0
C  C78  1  0.70150390  0.78386411  0.07127782  1  0.310933  0  0.108502  0.138699  0  4.039431  0
C  C79  1  0.70648926  0.86150673  0.08404478  1  0.227381  0  -0.003159  -0.066516  0  3.977269  0
C  C80  1  0.75961757  0.91374031  0.03959258  1  0.040538  0  -0.061897  -0.056464  0  3.897314  0
C  C81  1  0.84001528  0.86687491  0.98801556  1  0.177594  0  -0.008208  -0.085058  0  4.001814  0
C  C82  1  0.82981523  0.78900224  0.97747244  1  0.397265  0  0.112575  0.1455  0  4.04523  0
C  C83  1  0.91426499  0.71391941  0.81947841  1  0.51916  0  0.05258  0.104435  0  3.917382  0
C  C84  1  0.86053803  0.76151840  0.86812675  1  -0.04203  0  -0.072371  -0.154141  0  3.931902  0
C  C85  1  0.89006515  0.74220324  0.92466824  1  -0.002865  0  0.002507  0.063893  0  4.036094  0
C  C86  1  0.97537658  0.67548292  0.92898899  1  -0.0561  0  -0.089891  -0.182912  0  3.978689  0
C  C87  1  0.02706109  0.63212789  0.87790120  1  0.492476  0  0.045957  0.095901  0  3.953083  0
C  C88  1  0.66217905  0.89718300  0.14038666  1  0.784956  0  0.162648  0.227061  0  4.094372  0
C  C89  1  0.92614828  0.90801720  0.95012889  1  0.789884  0  0.174904  0.240443  0  4.093908  0
C  C90  1  0.62487750  0.95844446  0.01862632  1  -0.051427  0  -0.011719  0.078636  0  3.94994  0
C  C91  1  0.51488237  0.92259997  0.97980722  1  -0.025704  0  -0.0935  -0.128568  0  4.001478  0
C  C92  1  0.39096399  0.96367561  0.96126800  1  -0.018868  0  -0.087611  -0.119662  0  3.971512  0
C  C93  1  0.25508582  0.52912034  0.24756825  1  0.67909  0  -0.095577  -0.181062  0  3.958591  0
C  C94  1  0.05600206  0.69053522  0.67399027  1  0.482741  0  0.046823  0.081319  0  3.954886  0
C  C95  1  0.00369678  0.74263245  0.63764699  1  -0.063552  0  -0.077367  -0.160952  0  3.950785  0
C  C96  1  0.85859901  0.73142850  0.61117463  1  -0.035561  0  0.002716  0.065556  0  4.038853  0
C  C97  1  0.77248928  0.66786250  0.62335172  1  -0.009405  0  -0.087906  -0.181597  0  3.969787  0
C  C98  1  0.83192154  0.61976665  0.66152530  1  0.505987  0  0.046371  0.094349  0  3.92443  0
C  C99  1  0.79850514  0.78386184  0.57127255  1  0.310921  0  0.108426  0.13862  0  4.039434  0
C  C100  1  0.79352718  0.86149990  0.58403911  1  0.227302  0  -0.003099  -0.066343  0  3.977161  0
C  C101  1  0.74039237  0.91373815  0.53958788  1  0.040792  0  -0.061871  -0.056563  0  3.897445  0
C  C102  1  0.66000173  0.86687372  0.48801100  1  0.177806  0  -0.008324  -0.085129  0  4.002085  0
C  C103  1  0.67019433  0.78899990  0.47746819  1  0.396293  0  0.112635  0.145459  0  4.045375  0
C  C104  1  0.58573597  0.71392299  0.31948100  1  0.51921  0  0.052633  0.104598  0  3.917888  0
C  C105  1  0.63945499  0.76151441  0.36812329  1  -0.04205  0  -0.072336  -0.153975  0  3.932488  0
C  C106  1  0.60993860  0.74220557  0.42466411  1  -0.00156  0  0.002473  0.06387  0  4.036286  0
C  C107  1  0.52461712  0.67548433  0.42899108  1  -0.056416  0  -0.089917  -0.182988  0  3.978424  0
C  C108  1  0.47292668  0.63212733  0.37789993  1  0.49241  0  0.045975  0.095976  0  3.95269  0
C  C109  1  0.83783861  0.89717494  0.64037947  1  0.784127  0  0.162636  0.227268  0  4.093933  0
C  C110  1  0.57387253  0.90801559  0.45012492  1  0.790562  0  0.174931  0.240449  0  4.093596  0
C  C111  1  0.87512560  0.95844552  0.51862424  1  -0.051462  0  -0.011643  0.078678  0  3.94983  0
C  C112  1  0.98512524  0.92260109  0.47980520  1  -0.025802  0  -0.09352  -0.128552  0  4.001321  0
C  C113  1  0.10904475  0.96367854  0.46126699  1  -0.0188  0  -0.087591  -0.119583  0  3.971599  0
C  C114  1  0.24490688  0.52911131  0.74756249  1  0.678996  0  -0.095442  -0.180871  0  3.958576  0
C  C115  1  0.55600084  0.30945744  0.82600524  1  0.482166  0  0.046816  0.081159  0  3.955127  0
C  C116  1  0.50369415  0.25736029  0.86234778  1  -0.063139  0  -0.077296  -0.160888  0  3.95095  0
C  C117  1  0.35859697  0.26856880  0.88882369  1  -0.035497  0  0.002686  0.065547  0  4.038939  0
C  C118  1  0.27249627  0.33213953  0.87664808  1  -0.009827  0  -0.087956  -0.181635  0  3.969865  0
C  C119  1  0.33193001  0.38023187  0.83847624  1  0.506374  0  0.046424  0.094442  0  3.924433  0
C  C120  1  0.29850162  0.21613841  0.92872573  1  0.31088  0  0.108449  0.138645  0  4.039603  0
C  C121  1  0.29351971  0.13849578  0.91595789  1  0.227281  0  -0.003146  -0.066434  0  3.977165  0
C  C122  1  0.24038795  0.08626048  0.96040994  1  0.041098  0  -0.061868  -0.05649  0  3.897424  0
C  C123  1  0.15999024  0.13312531  0.01198647  1  0.177545  0  -0.008235  -0.085082  0  4.001867  0
C  C124  1  0.17018568  0.21099626  0.02252944  1  0.396257  0  0.112591  0.145482  0  4.045232  0
C  C125  1  0.08572903  0.28607790  0.18051811  1  0.518846  0  0.05259  0.104624  0  3.917681  0
C  C126  1  0.13944793  0.23848583  0.13187696  1  -0.041877  0  -0.072348  -0.154039  0  3.932436  0
C  C127  1  0.10993462  0.25779471  0.07533490  1  -0.001597  0  0.002488  0.063863  0  4.036134  0
C  C128  1  0.02462203  0.32451840  0.07100965  1  -0.056329  0  -0.089874  -0.182921  0  3.978516  0
C  C129  1  0.97293752  0.36787573  0.12209895  1  0.492307  0  0.045898  0.095909  0  3.952814  0
C  C130  1  0.33783682  0.10282066  0.85961699  1  0.784335  0  0.162605  0.227071  0  4.094262  0
C  C131  1  0.07385954  0.09198189  0.04987435  1  0.790228  0  0.174915  0.24043  0  4.09366  0
C  C132  1  0.37512572  0.04155747  0.98137586  1  -0.051512  0  -0.011649  0.078722  0  3.949825  0
C  C133  1  0.48512315  0.07739797  0.02019548  1  -0.025952  0  -0.093529  -0.128535  0  4.001423  0
C  C134  1  0.60903348  0.03632233  0.03873426  1  -0.018787  0  -0.087637  -0.119728  0  3.971712  0
C  C135  1  0.74491740  0.47088618  0.75243566  1  0.67958  0  -0.095422  -0.18086  0  3.958984  0
N  N136  1  0.02790621  0.36978214  0.31353707  1  -1.202657  0  -0.340469  -0.192385  0  3.592891  0
N  N137  1  0.26047549  0.25112310  0.48154808  1  -1.221304  0  -0.395476  -0.306148  0  3.670217  0
N  N138  1  0.49622428  0.35012131  0.67654053  1  -1.200409  0  -0.335275  -0.185031  0  3.573716  0
N  N139  1  0.12692121  0.07111045  0.31353578  1  -1.106356  0  -0.317549  -0.357893  0  2.66015  0
N  N140  1  0.49670225  0.05516620  0.57963892  1  -1.152169  0  -0.306516  -0.368891  0  2.766688  0
N  N141  1  0.63372301  0.50093635  0.25555049  1  -1.411971  0  -0.453336  -0.337444  0  3.679911  0
N  N142  1  0.52790880  0.63021829  0.18646388  1  -1.20275  0  -0.340525  -0.192372  0  3.593036  0
N  N143  1  0.76047773  0.74888090  0.01845005  1  -1.221364  0  -0.395436  -0.306039  0  3.670241  0
N  N144  1  0.99621772  0.64987578  0.82346096  1  -1.200302  0  -0.335208  -0.184793  0  3.573947  0
N  N145  1  0.62695662  0.92888416  0.18646967  1  -1.106881  0  -0.317552  -0.357842  0  2.660346  0
N  N146  1  0.99671780  0.94483777  0.92036581  1  -1.151573  0  -0.306434  -0.368913  0  2.766966  0
N  N147  1  0.13372191  0.49906504  0.24445032  1  -1.411469  0  -0.453195  -0.337315  0  3.679503  0
N  N148  1  0.97208090  0.63021290  0.68646188  1  -1.202623  0  -0.340422  -0.192395  0  3.593042  0
N  N149  1  0.73953118  0.74887530  0.51844418  1  -1.221354  0  -0.395406  -0.305969  0  3.670541  0
N  N150  1  0.50377893  0.64988003  0.32345898  1  -1.200387  0  -0.335289  -0.185035  0  3.573844  0
N  N151  1  0.87306475  0.92887606  0.68646502  1  -1.10587  0  -0.31754  -0.358052  0  2.660004  0
N  N152  1  0.50329407  0.94483858  0.42036309  1  -1.15222  0  -0.306433  -0.368881  0  2.766556  0
N  N153  1  0.36627445  0.49905695  0.74444524  1  -1.41146  0  -0.453313  -0.337484  0  3.67942  0
N  N154  1  0.47208406  0.36978533  0.81353627  1  -1.202418  0  -0.340484  -0.192396  0  3.593023  0
N  N155  1  0.23952549  0.25112162  0.98155306  1  -1.221332  0  -0.395367  -0.305947  0  3.670425  0
N  N156  1  0.00378205  0.35012615  0.17654079  1  -1.2005  0  -0.33526  -0.185057  0  3.573886  0
N  N157  1  0.37306731  0.07111838  0.81353519  1  -1.106156  0  -0.317512  -0.357883  0  2.660328  0
N  N158  1  0.00329233  0.05516191  0.07963836  1  -1.151856  0  -0.306458  -0.368899  0  2.766836  0
N  N159  1  0.86626750  0.50093747  0.75555280  1  -1.411581  0  -0.453316  -0.337415  0  3.679961  0
