# generated using pymatgen
data_GaH11C8S
_symmetry_space_group_name_H-M   'P 1'
_cell_length_a   6.90510067
_cell_length_b   7.10512156
_cell_length_c   8.91057130
_cell_angle_alpha   100.53694888
_cell_angle_beta   89.99525278
_cell_angle_gamma   90.00022702
_symmetry_Int_Tables_number   1
_chemical_formula_structural   GaH11C8S
_chemical_formula_sum   'Ga2 H22 C16 S2'
_cell_volume   429.79484032
_cell_formula_units_Z   2
loop_
 _symmetry_equiv_pos_site_id
 _symmetry_equiv_pos_as_xyz
  1  'x, y, z'
loop_
 _atom_site_type_symbol
 _atom_site_label
 _atom_site_symmetry_multiplicity
 _atom_site_fract_x
 _atom_site_fract_y
 _atom_site_fract_z
 _atom_site_occupancy
 _atom_site_hle17_bader_spin_density
 _atom_site_hle17_ddec_charge
 _atom_site_hle17_ddec_spin_density
 _atom_site_hle17_ddec_sum_bond_order
 _atom_site_hle17_magmom
 _atom_site_hse06_10hf_bader_spin_density
 _atom_site_hse06_10hf_ddec_charge
 _atom_site_hse06_10hf_ddec_spin_density
 _atom_site_hse06_10hf_ddec_sum_bond_order
 _atom_site_hse06_10hf_magmom
 _atom_site_hse06_bader_spin_density
 _atom_site_hse06_ddec_charge
 _atom_site_hse06_ddec_spin_density
 _atom_site_hse06_ddec_sum_bond_order
 _atom_site_hse06_magmom
 _atom_site_pbe_bader_spin_density
 _atom_site_pbe_cm5_charge
 _atom_site_pbe_ddec_charge
 _atom_site_pbe_ddec_spin_density
 _atom_site_pbe_ddec_sum_bond_order
 _atom_site_pbe_magmom
Ga  Ga0  1  0.44137690  0.50456356  0.60732550  1  0  0.864019  0  2.602712  0  0  0.745906  0  3.02742  0  0  0.776086  0  3.014782  0  0  0.234336  0.72445  0  3.037731  0
Ga  Ga1  1  0.55860955  0.00456302  0.60732223  1  0  0.864005  0  2.602962  0  0  0.745887  0  3.027671  0  0  0.776092  0  3.014986  0  0  0.234296  0.724435  0  3.037979  0
H  H2  1  0.61882996  0.65589226  0.85240721  1  0  0.140818  0  1.008354  0  0  0.158864  0  1.069512  0  0  0.160969  0  1.070998  0  0  0.079223  0.157703  0  1.067778  0
H  H3  1  0.38112934  0.15588371  0.85241979  1  0  0.140873  0  1.008281  0  0  0.158889  0  1.069469  0  0  0.160993  0  1.07096  0  0  0.079267  0.157727  0  1.067737  0
H  H4  1  0.78744828  0.52359250  0.72222667  1  0  0.147908  0  1.01846  0  0  0.16652  0  1.077575  0  0  0.16891  0  1.07881  0  0  0.078033  0.164539  0  1.077314  0
H  H5  1  0.21252592  0.02357435  0.72224758  1  0  0.148023  0  1.018434  0  0  0.166644  0  1.077486  0  0  0.169037  0  1.078717  0  0  0.07812  0.164662  0  1.07723  0
H  H6  1  0.62901875  0.40309840  0.83070032  1  0  0.140386  0  1.01335  0  0  0.160632  0  1.071198  0  0  0.162248  0  1.073629  0  0  0.081474  0.159517  0  1.068975  0
H  H7  1  0.37094963  0.90309533  0.83069750  1  0  0.140717  0  1.013438  0  0  0.160902  0  1.071287  0  0  0.162514  0  1.07373  0  0  0.081579  0.159786  0  1.069067  0
H  H8  1  0.10022679  0.40503100  0.67337998  1  0  0.143918  0  0.998174  0  0  0.166429  0  1.050959  0  0  0.168381  0  1.052388  0  0  0.080947  0.164699  0  1.05078  0
H  H9  1  0.89975124  0.90501956  0.67338026  1  0  0.143925  0  0.997868  0  0  0.166452  0  1.050688  0  0  0.168407  0  1.052111  0  0  0.080898  0.164723  0  1.050508  0
H  H10  1  0.08803062  0.55333616  0.53254700  1  0  0.148247  0  1.007766  0  0  0.16696  0  1.066386  0  0  0.168936  0  1.068261  0  0  0.08024  0.165809  0  1.064469  0
H  H11  1  0.91197707  0.05333341  0.53254996  1  0  0.148229  0  1.007927  0  0  0.166937  0  1.066559  0  0  0.168912  0  1.068439  0  0  0.080251  0.165785  0  1.064642  0
H  H12  1  0.12670479  0.65836287  0.72795004  1  0  0.141729  0  1.011008  0  0  0.162584  0  1.066971  0  0  0.164335  0  1.06886  0  0  0.080989  0.161715  0  1.06493  0
H  H13  1  0.87325773  0.15835184  0.72794085  1  0  0.141739  0  1.011232  0  0  0.162629  0  1.067107  0  0  0.164378  0  1.069001  0  0  0.081019  0.16176  0  1.065062  0
H  H14  1  0.53984296  0.50589256  0.12649925  1  0  0.10383  0  0.950684  0  0  0.116161  0  1.008787  0  0  0.118712  0  1.008731  0  0  0.101861  0.114804  0  1.007517  0
H  H15  1  0.46017334  0.00590875  0.12649229  1  0  0.103736  0  0.950794  0  0  0.116118  0  1.008813  0  0  0.118649  0  1.008776  0  0  0.101852  0.114769  0  1.007514  0
H  H16  1  0.28347638  0.48520952  0.92792518  1  0  0.078734  0  0.980932  0  0  0.095476  0  1.03751  0  0  0.097054  0  1.038007  0  0  0.099484  0.094136  0  1.037486  0
H  H17  1  0.71654997  0.98521548  0.92789700  1  0  0.078622  0  0.980858  0  0  0.095489  0  1.037312  0  0  0.097069  0  1.037808  0  0  0.099408  0.094134  0  1.037332  0
H  H18  1  0.96838891  0.65247597  0.98813187  1  0  0.08849  0  0.958067  0  0  0.101897  0  1.01591  0  0  0.104352  0  1.015366  0  0  0.098921  0.100009  0  1.016593  0
H  H19  1  0.03164706  0.15245764  0.98807905  1  0  0.088369  0  0.958158  0  0  0.101699  0  1.016121  0  0  0.104162  0  1.015544  0  0  0.098802  0.099856  0  1.016778  0
H  H20  1  0.90968393  0.83968730  0.24904519  1  0  0.088273  0  0.971272  0  0  0.096102  0  1.037245  0  0  0.098118  0  1.03791  0  0  0.095614  0.094559  0  1.037018  0
H  H21  1  0.09032778  0.33965679  0.24897792  1  0  0.08844  0  0.971442  0  0  0.096186  0  1.037475  0  0  0.098193  0  1.038148  0  0  0.095643  0.094642  0  1.037248  0
H  H22  1  0.16385509  0.85913793  0.44746814  1  0  0.0888  0  0.981876  0  0  0.102587  0  1.04247  0  0  0.104709  0  1.042225  0  0  0.100317  0.101222  0  1.042558  0
H  H23  1  0.83615423  0.35914126  0.44742182  1  0  0.088735  0  0.982166  0  0  0.102523  0  1.042722  0  0  0.10465  0  1.042471  0  0  0.100293  0.101121  0  1.042859  0
C  C24  1  0.64072379  0.52315337  0.76910495  1  0  -0.734793  0  3.604282  0  0  -0.768771  0  3.837436  0  0  -0.784238  0  3.845331  0  0  -0.347261  -0.758231  0  3.832087  0
C  C25  1  0.35925407  0.02311637  0.76910821  1  0  -0.735319  0  3.60448  0  0  -0.76919  0  3.837622  0  0  -0.784662  0  3.845514  0  0  -0.347489  -0.75865  0  3.832287  0
C  C26  1  0.15913898  0.53419964  0.63876217  1  0  -0.722692  0  3.59521  0  0  -0.757632  0  3.823971  0  0  -0.772853  0  3.832087  0  0  -0.349085  -0.747181  0  3.818146  0
C  C27  1  0.84084131  0.03422186  0.63875636  1  0  -0.722699  0  3.595287  0  0  -0.757694  0  3.824007  0  0  -0.772921  0  3.832133  0  0  -0.349067  -0.747238  0  3.81818  0
C  C28  1  0.36776848  0.68423418  0.29943227  1  0  0.082519  0  3.794904  0  0  0.098748  0  4.047794  0  0  0.099746  0  4.072319  0  0  -0.007718  0.097474  0  4.031859  0
C  C29  1  0.63222418  0.18423692  0.29940117  1  0  0.082797  0  3.794942  0  0  0.09909  0  4.047735  0  0  0.100089  0  4.072264  0  0  -0.00746  0.097817  0  4.031795  0
C  C30  1  0.40146283  0.57846706  0.15271670  1  0  -0.120366  0  3.73347  0  0  -0.139279  0  3.980475  0  0  -0.141552  0  4.001127  0  0  -0.094637  -0.136668  0  3.964588  0
C  C31  1  0.59855674  0.07847303  0.15268709  1  0  -0.120514  0  3.733768  0  0  -0.139515  0  3.980835  0  0  -0.14178  0  4.001506  0  0  -0.094773  -0.136897  0  3.964945  0
C  C32  1  0.25724784  0.56781764  0.04163996  1  0  -0.07297  0  3.788688  0  0  -0.083353  0  4.031129  0  0  -0.085439  0  4.053346  0  0  -0.093123  -0.081523  0  4.014939  0
C  C33  1  0.74277056  0.06782639  0.04161161  1  0  -0.072677  0  3.78865  0  0  -0.083136  0  4.031065  0  0  -0.085224  0  4.053282  0  0  -0.093041  -0.081313  0  4.014886  0
C  C34  1  0.08061158  0.66184550  0.07528292  1  0  -0.076716  0  3.767702  0  0  -0.090338  0  4.012836  0  0  -0.091772  0  4.03368  0  0  -0.092346  -0.089992  0  3.999008  0
C  C35  1  0.91940504  0.16184506  0.07523186  1  0  -0.076642  0  3.767762  0  0  -0.090252  0  4.012923  0  0  -0.091675  0  4.033777  0  0  -0.092239  -0.089954  0  3.999078  0
C  C36  1  0.04732419  0.76631527  0.22161092  1  0  -0.055032  0  3.76958  0  0  -0.067333  0  4.018472  0  0  -0.069109  0  4.040239  0  0  -0.08958  -0.066008  0  4.00419  0
C  C37  1  0.95271334  0.26629875  0.22155884  1  0  -0.055365  0  3.769823  0  0  -0.067517  0  4.018536  0  0  -0.069287  0  4.040293  0  0  -0.0897  -0.066189  0  4.004262  0
C  C38  1  0.18992003  0.77714486  0.33366695  1  0  -0.13101  0  3.781626  0  0  -0.148149  0  4.024128  0  0  -0.150468  0  4.045765  0  0  -0.092687  -0.147184  0  4.009688  0
C  C39  1  0.81008380  0.27716430  0.33363242  1  0  -0.130875  0  3.781427  0  0  -0.14807  0  4.023852  0  0  -0.15039  0  4.045491  0  0  -0.092649  -0.147081  0  4.009424  0
S  S40  1  0.55878235  0.69728076  0.43477918  1  0  -0.344077  0  2.368267  0  0  -0.283962  0  2.731412  0  0  -0.297118  0  2.73083  0  0  -0.044988  -0.273799  0  2.733132  0
S  S41  1  0.44123639  0.19727424  0.43476911  1  0  -0.344133  0  2.368447  0  0  -0.284121  0  2.731726  0  0  -0.297215  0  2.731029  0  0  -0.045021  -0.273946  0  2.733423  0
