# generated using pymatgen
data_Al4H9C29(BrO7)3
_symmetry_space_group_name_H-M   'P 1'
_cell_length_a   6.66093946
_cell_length_b   16.51673329
_cell_length_c   19.02226234
_cell_angle_alpha   104.52036349
_cell_angle_beta   90.06235329
_cell_angle_gamma   89.73275885
_symmetry_Int_Tables_number   1
_chemical_formula_structural   Al4H9C29(BrO7)3
_chemical_formula_sum   'Al4 H9 C29 Br3 O21'
_cell_volume   2025.90337191
_cell_formula_units_Z   1
loop_
 _symmetry_equiv_pos_site_id
 _symmetry_equiv_pos_as_xyz
  1  'x, y, z'
loop_
 _atom_site_type_symbol
 _atom_site_label
 _atom_site_symmetry_multiplicity
 _atom_site_fract_x
 _atom_site_fract_y
 _atom_site_fract_z
 _atom_site_occupancy
 _atom_site_pbe_bader_charge
 _atom_site_pbe_bader_spin_density
 _atom_site_pbe_cm5_charge
 _atom_site_pbe_ddec_charge
 _atom_site_pbe_ddec_spin_density
 _atom_site_pbe_ddec_sum_bond_order
 _atom_site_pbe_magmom
Al  Al0  1  0.88665603  0.50362479  0.50021075  1  2.500681  0  0.40122  1.647975  0  2.559235  0
Al  Al1  1  0.38721235  0.49992604  0.49930190  1  2.504321  0  0.400541  1.646723  0  2.564579  0
Al  Al2  1  0.37156397  0.00101554  0.99596326  1  2.503315  0  0.40294  1.643741  0  2.580562  0
Al  Al3  1  0.87183605  0.00182108  0.99933340  1  2.500138  0  0.401987  1.643329  0  2.585337  0
H  H4  1  0.40206680  0.83412564  0.78650470  1  0.117745  0  0.114906  0.113351  0  0.985002  0
H  H5  1  0.95554400  0.79925584  0.80836228  1  0.106218  0  0.100474  0.120945  0  1.027547  0
H  H6  1  0.91382670  0.20574273  0.18492296  1  0.116741  0  0.110984  0.11875  0  0.987431  0
H  H7  1  0.45125922  0.20550973  0.19086400  1  0.095093  0  0.102094  0.124307  0  1.019569  0
H  H8  1  0.51924905  0.79849321  0.67009016  1  0.053278  0  0.108095  0.041578  0  0.947315  0
H  H9  1  0.62802685  0.60720941  0.49542189  1  0.652111  0  0.35958  0.44522  0  0.833349  0
H  H10  1  0.13202953  0.39386187  0.46002543  1  0.615515  0  0.35194  0.434726  0  0.852345  0
H  H11  1  0.62087356  0.90188377  0.01256621  1  0.620815  0  0.358027  0.438804  0  0.84203  0
H  H12  1  0.12332617  0.10921721  0.03472406  1  0.624996  0  0.357331  0.437584  0  0.843756  0
C  C13  1  0.64781201  0.41579766  0.58399637  1  1.700675  0  0.276724  0.69913  0  4.179101  0
C  C14  1  0.63237788  0.38647265  0.39239425  1  1.628156  0  0.260743  0.658308  0  4.125105  0
C  C15  1  0.13032364  0.59077484  0.41668298  1  1.71581  0  0.27665  0.702795  0  4.170127  0
C  C16  1  0.14621181  0.60782048  0.61041045  1  1.690663  0  0.267322  0.642566  0  4.155424  0
C  C17  1  0.25878135  0.80148741  0.77285551  1  -0.069836  0  -0.070228  -0.049296  0  3.986269  0
C  C18  1  0.10543257  0.82506897  0.81974382  1  -0.022294  0  -0.092302  -0.238653  0  3.913038  0
C  C19  1  0.25003403  0.74088365  0.70264517  1  0.049625  0  -0.020756  -0.024971  0  4.003366  0
C  C20  1  0.14007905  0.66945483  0.68390323  1  -0.105134  0  0.014678  -0.025031  0  3.76869  0
C  C21  1  0.12792330  0.86435059  0.13628303  1  0.007295  0  -0.001059  -0.136952  0  3.829659  0
C  C22  1  0.13187696  0.82130162  0.18028794  1  -0.078982  0  -0.007519  0.027799  0  4.25837  0
C  C23  1  0.13494079  0.77413950  0.22830971  1  -0.04117  0  0.003333  0.000253  0  4.178873  0
C  C24  1  0.13662976  0.73066930  0.27243335  1  -0.015816  0  0.004282  0.002524  0  4.178015  0
C  C25  1  0.13680669  0.68367435  0.32057967  1  -0.273038  0  -0.004484  0.031246  0  4.246555  0
C  C26  1  0.13548859  0.64073063  0.36465989  1  0.185368  0  0.003905  -0.127471  0  3.816746  0
C  C27  1  0.64423524  0.36678406  0.63668753  1  0.151376  0  0.002314  -0.135048  0  3.82592  0
C  C28  1  0.64028519  0.32322299  0.68024998  1  -0.247399  0  -0.004678  0.033004  0  4.248527  0
C  C29  1  0.63613682  0.27486782  0.72725868  1  0.081595  0  0.001787  -0.00212  0  4.186834  0
C  C30  1  0.63299504  0.22964494  0.76993570  1  -0.072288  0  0.003525  0.001533  0  4.189214  0
C  C31  1  0.63014123  0.18073083  0.81649838  1  -0.195833  0  -0.005876  0.027941  0  4.253439  0
C  C32  1  0.62750393  0.13617964  0.85926772  1  0.099132  0  0.003789  -0.130985  0  3.82303  0
C  C33  1  0.76538231  0.22517234  0.20756949  1  -0.032028  0  -0.077682  -0.058486  0  4.00217  0
C  C34  1  0.60294339  0.18678300  0.17249544  1  0.033475  0  -0.089072  -0.220315  0  3.883918  0
C  C35  1  0.76014936  0.29521695  0.27161631  1  -0.092532  0  -0.013305  0.076589  0  3.959196  0
C  C36  1  0.63377731  0.31063888  0.32913469  1  0.031812  0  -0.023984  -0.093613  0  3.823544  0
C  C37  1  0.61552768  0.11770747  0.10604515  1  1.540697  0  0.261763  0.688811  0  4.093161  0
C  C38  1  0.62579497  0.08598403  0.91119089  1  1.689307  0  0.276036  0.693768  0  4.193816  0
C  C39  1  0.12314105  0.89022516  0.88843215  1  1.557083  0  0.263406  0.687656  0  4.095394  0
C  C40  1  0.12168257  0.91398207  0.08392588  1  1.696413  0  0.273502  0.699191  0  4.183772  0
C  C41  1  0.38578607  0.76053981  0.64649656  1  0.947124  0  0.111625  0.287877  0  3.93923  0
Br  Br42  1  0.97141165  0.63043427  0.74795934  1  0.023251  0  0.098787  0.032873  0  1.40622  0
Br  Br43  1  0.96444581  0.37499873  0.26640928  1  -0.020254  0  0.055525  -0.019366  0  1.388679  0
Br  Br44  1  0.43282628  0.23273506  0.33983378  1  -0.012976  0  0.061972  -0.002081  0  1.415927  0
O  O45  1  0.46241731  0.42046253  0.40988909  1  -1.248562  0  -0.23406  -0.589582  0  2.362736  0
O  O46  1  0.81619261  0.44648983  0.57299065  1  -1.22413  0  -0.221752  -0.566577  0  2.291789  0
O  O47  1  0.98099036  0.59487685  0.57654167  1  -1.249665  0  -0.227413  -0.576453  0  2.35179  0
O  O48  1  0.79847673  0.40800098  0.42413586  1  -1.243376  0  -0.229702  -0.587514  0  2.37323  0
O  O49  1  0.95772887  0.56479585  0.42980747  1  -1.227539  0  -0.227912  -0.586386  0  2.292574  0
O  O50  1  0.48228836  0.42271665  0.55239435  1  -1.233295  0  -0.223519  -0.571025  0  2.289498  0
O  O51  1  0.63449321  0.55267688  0.50588770  1  -1.447324  0  -0.445102  -0.990723  0  2.177669  0
O  O52  1  0.29761590  0.57766352  0.44447331  1  -1.227064  0  -0.221807  -0.576754  0  2.295997  0
O  O53  1  0.31272497  0.57223902  0.59118833  1  -1.23512  0  -0.219626  -0.55697  0  2.347374  0
O  O54  1  0.13597448  0.45054966  0.49047055  1  -1.41563  0  -0.446906  -0.989  0  2.184212  0
O  O55  1  0.79595390  0.06298254  0.92968331  1  -1.216994  0  -0.219675  -0.561774  0  2.288265  0
O  O56  1  0.44601526  0.08810374  0.08055036  1  -1.246785  0  -0.240438  -0.60216  0  2.304644  0
O  O57  1  0.28974779  0.92806486  0.05740113  1  -1.232337  0  -0.227687  -0.584779  0  2.282729  0
O  O58  1  0.45462472  0.07047416  0.93417281  1  -1.227651  0  -0.220769  -0.566318  0  2.289634  0
O  O59  1  0.29556964  0.91911680  0.91031202  1  -1.254139  0  -0.235204  -0.588709  0  2.305545  0
O  O60  1  0.78759654  0.09366926  0.07899245  1  -1.260199  0  -0.239429  -0.603791  0  2.306871  0
O  O61  1  0.62220016  0.95160234  0.99419202  1  -1.421778  0  -0.44615  -0.994794  0  2.195047  0
O  O62  1  0.95738521  0.91210097  0.92157321  1  -1.256142  0  -0.236578  -0.591532  0  2.31022  0
O  O63  1  0.94852092  0.93822533  0.06901287  1  -1.225391  0  -0.226806  -0.579193  0  2.276639  0
O  O64  1  0.12124742  0.05182158  0.00589683  1  -1.425176  0  -0.446906  -0.99495  0  2.203063  0
O  O65  1  0.35765419  0.74012339  0.58102229  1  -1.04195  0  -0.2434  -0.327525  0  2.13488  0
