# generated using pymatgen
data_K3H6C6N7O6
_symmetry_space_group_name_H-M   'P 1'
_cell_length_a   7.09991030
_cell_length_b   10.29525395
_cell_length_c   17.11500000
_cell_angle_alpha   90.00000000
_cell_angle_beta   90.00000000
_cell_angle_gamma   90.47566395
_symmetry_Int_Tables_number   1
_chemical_formula_structural   K3H6C6N7O6
_chemical_formula_sum   'K12 H24 C24 N28 O24'
_cell_volume   1250.98431032
_cell_formula_units_Z   4
loop_
 _symmetry_equiv_pos_site_id
 _symmetry_equiv_pos_as_xyz
  1  'x, y, z'
loop_
 _atom_site_type_symbol
 _atom_site_label
 _atom_site_symmetry_multiplicity
 _atom_site_fract_x
 _atom_site_fract_y
 _atom_site_fract_z
 _atom_site_occupancy
 _atom_site_hle17_bader_spin_density
 _atom_site_hle17_ddec_charge
 _atom_site_hle17_ddec_spin_density
 _atom_site_hle17_ddec_sum_bond_order
 _atom_site_hle17_magmom
 _atom_site_hse06_10hf_bader_spin_density
 _atom_site_hse06_10hf_ddec_charge
 _atom_site_hse06_10hf_ddec_spin_density
 _atom_site_hse06_10hf_ddec_sum_bond_order
 _atom_site_hse06_10hf_magmom
 _atom_site_hse06_bader_spin_density
 _atom_site_hse06_ddec_charge
 _atom_site_hse06_ddec_spin_density
 _atom_site_hse06_ddec_sum_bond_order
 _atom_site_hse06_magmom
 _atom_site_pbe_bader_charge
 _atom_site_pbe_bader_spin_density
 _atom_site_pbe_cm5_charge
 _atom_site_pbe_ddec_charge
 _atom_site_pbe_ddec_spin_density
 _atom_site_pbe_ddec_sum_bond_order
 _atom_site_pbe_magmom
K  K0  1  0.27090118  0.62612075  0.91904353  1  0  0.927192  0  0.516459  0  0  0.88073  0  0.714867  0  0  0.894573  0  0.693168  0  0.865309  0  0.866698  0.870391  0  0.730629  0
K  K1  1  0.22910083  0.37388127  0.41904294  1  0  0.927198  0  0.516461  0  0  0.880748  0  0.714853  0  0  0.894584  0  0.693153  0  0.865312  0  0.866694  0.870406  0  0.730617  0
K  K2  1  0.72909872  0.37388322  0.08095706  1  0  0.927193  0  0.516461  0  0  0.88074  0  0.714854  0  0  0.894575  0  0.693153  0  0.865337  0  0.866698  0.870402  0  0.730614  0
K  K3  1  0.77090183  0.62611881  0.58095706  1  0  0.927186  0  0.516477  0  0  0.880752  0  0.714859  0  0  0.894586  0  0.693162  0  0.865341  0  0.86671  0.870413  0  0.73062  0
K  K4  1  0.25658869  0.98242050  0.99079813  1  0  0.916461  0  0.48974  0  0  0.856323  0  0.693448  0  0  0.872135  0  0.670244  0  0.865489  0  0.807862  0.844405  0  0.710299  0
K  K5  1  0.24341190  0.01758152  0.49079755  1  0  0.916468  0  0.489759  0  0  0.856324  0  0.693487  0  0  0.872135  0  0.670283  0  0.865487  0  0.807875  0.844406  0  0.710338  0
K  K6  1  0.74340699  0.01758444  0.00920012  1  0  0.916477  0  0.489735  0  0  0.856319  0  0.6935  0  0  0.872128  0  0.670295  0  0.865471  0  0.807863  0.8444  0  0.71035  0
K  K7  1  0.75659077  0.98241953  0.50920187  1  0  0.916471  0  0.489747  0  0  0.856327  0  0.693474  0  0  0.872138  0  0.67027  0  0.865481  0  0.807871  0.84441  0  0.710323  0
K  K8  1  0.32989559  0.77828154  0.66801402  1  0  0.951932  0  0.430829  0  0  0.909609  0  0.605791  0  0  0.924045  0  0.583891  0  0.885771  0  0.784867  0.898041  0  0.62295  0
K  K9  1  0.17010214  0.22171660  0.16801169  1  0  0.951937  0  0.430841  0  0  0.909602  0  0.605811  0  0  0.924029  0  0.583914  0  0.885764  0  0.784864  0.898043  0  0.622953  0
K  K10  1  0.67010282  0.22171660  0.33198773  1  0  0.951938  0  0.430843  0  0  0.909615  0  0.605793  0  0  0.924044  0  0.583898  0  0.885781  0  0.784869  0.898054  0  0.622939  0
K  K11  1  0.82990069  0.77829708  0.83199007  1  0  0.951933  0  0.430817  0  0  0.90963  0  0.605749  0  0  0.924069  0  0.583851  0  0.885775  0  0.784863  0.898082  0  0.622873  0
H  H12  1  0.37027553  0.50068387  0.09255390  1  0  0.390142  0  0.929255  0  0  0.351475  0  1.010431  0  0  0.362522  0  0.994338  0  0.618835  0  0.281766  0.343718  0  1.021708  0
H  H13  1  0.12972082  0.49931621  0.59255390  1  0  0.390143  0  0.929242  0  0  0.351474  0  1.010424  0  0  0.362521  0  0.99433  0  0.618829  0  0.28177  0.343716  0  1.021704  0
H  H14  1  0.62972150  0.49931621  0.90744610  1  0  0.390137  0  0.929254  0  0  0.351481  0  1.010416  0  0  0.362529  0  0.994321  0  0.618829  0  0.281784  0.343725  0  1.021693  0
H  H15  1  0.87027479  0.50068290  0.40744610  1  0  0.390165  0  0.929214  0  0  0.351504  0  1.010381  0  0  0.362552  0  0.994287  0  0.618906  0  0.281796  0.343747  0  1.021659  0
H  H16  1  0.17849839  0.47142764  0.05099912  1  0  0.399299  0  0.898243  0  0  0.361669  0  0.989774  0  0  0.372285  0  0.973714  0  0.597487  0  0.294742  0.354021  0  1.001357  0
H  H17  1  0.32150076  0.52857147  0.55099971  1  0  0.399302  0  0.898224  0  0  0.361676  0  0.989769  0  0  0.372294  0  0.973705  0  0.597491  0  0.294759  0.354027  0  1.001346  0
H  H18  1  0.82150146  0.52857244  0.94900029  1  0  0.39928  0  0.898257  0  0  0.361649  0  0.989799  0  0  0.372266  0  0.973735  0  0.59749  0  0.294742  0.354002  0  1.001384  0
H  H19  1  0.67849625  0.47142764  0.44900029  1  0  0.399269  0  0.898277  0  0  0.361642  0  0.989821  0  0  0.37226  0  0.973757  0  0.597469  0  0.294741  0.35399  0  1.001396  0
H  H20  1  0.60182071  0.70216035  0.98980427  1  0  0.424499  0  0.875703  0  0  0.399969  0  0.929831  0  0  0.409577  0  0.91568  0  0.631802  0  0.288404  0.393165  0  0.939836  0
H  H21  1  0.89817840  0.29783876  0.48980368  1  0  0.42448  0  0.87573  0  0  0.399949  0  0.92986  0  0  0.409557  0  0.915709  0  0.631802  0  0.288399  0.393144  0  0.939866  0
H  H22  1  0.39818054  0.29783973  0.01019632  1  0  0.424484  0  0.875722  0  0  0.399959  0  0.929842  0  0  0.409567  0  0.915691  0  0.631801  0  0.288409  0.393155  0  0.939846  0
H  H23  1  0.10182004  0.70216132  0.51019632  1  0  0.424489  0  0.875717  0  0  0.399959  0  0.929846  0  0  0.409566  0  0.915696  0  0.631803  0  0.288402  0.393154  0  0.93985  0
H  H24  1  0.50025235  0.77263894  0.06126906  1  0  0.391758  0  0.930931  0  0  0.352663  0  1.009971  0  0  0.364306  0  0.993102  0  0.652455  0  0.275941  0.344468  0  1.021814  0
H  H25  1  0.99974820  0.22736308  0.56126906  1  0  0.391768  0  0.930917  0  0  0.352672  0  1.009958  0  0  0.364313  0  0.99309  0  0.652199  0  0.275931  0.344476  0  1.021802  0
H  H26  1  0.49974893  0.22736308  0.93873094  1  0  0.39175  0  0.930941  0  0  0.352653  0  1.009985  0  0  0.364294  0  0.993116  0  0.652181  0  0.275921  0.344458  0  1.021828  0
H  H27  1  0.00025308  0.77263894  0.43873094  1  0  0.391784  0  0.930892  0  0  0.352692  0  1.009927  0  0  0.364333  0  0.993059  0  0.652453  0  0.27596  0.344496  0  1.02177  0
H  H28  1  0.16995828  0.93306791  0.81006719  1  0  0.379567  0  0.951849  0  0  0.341252  0  1.031228  0  0  0.352321  0  1.015115  0  0.626046  0  0.276474  0.333352  0  1.042732  0
H  H29  1  0.33004231  0.06693412  0.31006778  1  0  0.379571  0  0.951847  0  0  0.341265  0  1.031213  0  0  0.352333  0  1.015094  0  0.626051  0  0.276502  0.333365  0  1.04272  0
H  H30  1  0.83004301  0.06693509  0.18993281  1  0  0.379558  0  0.951858  0  0  0.341267  0  1.031201  0  0  0.352335  0  1.015083  0  0.626042  0  0.276505  0.333367  0  1.042711  0
H  H31  1  0.66995612  0.93306499  0.68993281  1  0  0.379558  0  0.951851  0  0  0.341261  0  1.031202  0  0  0.352329  0  1.015085  0  0.626038  0  0.276499  0.333362  0  1.042711  0
H  H32  1  0.37213874  0.89004757  0.83674613  1  0  0.406334  0  0.903663  0  0  0.381828  0  0.958996  0  0  0.391574  0  0.944606  0  0.63003  0  0.291577  0.374608  0  0.969751  0
H  H33  1  0.12786187  0.10995542  0.33674613  1  0  0.406368  0  0.903616  0  0  0.381864  0  0.958944  0  0  0.391609  0  0.944555  0  0.63009  0  0.291601  0.374644  0  0.9697  0
H  H34  1  0.62786114  0.10995542  0.16325387  1  0  0.40633  0  0.903671  0  0  0.381826  0  0.958997  0  0  0.391571  0  0.944609  0  0.630084  0  0.291585  0.374606  0  0.969752  0
H  H35  1  0.87213942  0.89004757  0.66325387  1  0  0.40631  0  0.903696  0  0  0.381804  0  0.95903  0  0  0.391549  0  0.944642  0  0.630035  0  0.29157  0.374584  0  0.969785  0
C  C36  1  0.01439565  0.39473626  0.84116214  1  0  0.605651  0  3.87102  0  0  0.550759  0  4.157993  0  0  0.580467  0  4.163054  0  1.563091  0  0.339249  0.531001  0  4.153795  0
C  C37  1  0.48560632  0.60526285  0.34116331  1  0  0.605694  0  3.871104  0  0  0.550771  0  4.158127  0  0  0.580483  0  4.163188  0  1.563101  0  0.339221  0.531011  0  4.153931  0
C  C38  1  0.98560703  0.60526479  0.15883728  1  0  0.605726  0  3.871051  0  0  0.550853  0  4.158  0  0  0.580564  0  4.163058  0  1.563092  0  0.339248  0.531094  0  4.153804  0
C  C39  1  0.51439209  0.39473529  0.65883961  1  0  0.605601  0  3.871046  0  0  0.550656  0  4.15809  0  0  0.580368  0  4.163154  0  1.56309  0  0.339192  0.530897  0  4.153892  0
C  C40  1  0.01661085  0.24740505  0.94398539  1  0  0.730044  0  3.935126  0  0  0.682879  0  4.225803  0  0  0.716944  0  4.220744  0  1.720095  0  0.289723  0.659887  0  4.228358  0
C  C41  1  0.48338968  0.75259115  0.44399124  1  0  0.730018  0  3.935221  0  0  0.682918  0  4.225823  0  0  0.716983  0  4.220759  0  1.719788  0  0.289683  0.659924  0  4.228386  0
C  C42  1  0.98339037  0.75259212  0.05600935  1  0  0.729856  0  3.935419  0  0  0.682736  0  4.226047  0  0  0.716798  0  4.220983  0  1.719696  0  0.289611  0.659743  0  4.228605  0
C  C43  1  0.51661011  0.24740407  0.55601285  1  0  0.729932  0  3.935438  0  0  0.682828  0  4.226028  0  0  0.716892  0  4.220968  0  1.720017  0  0.289728  0.659836  0  4.228587  0
C  C44  1  0.03592531  0.16270776  0.81799182  1  0  0.624878  0  3.838041  0  0  0.565965  0  4.129657  0  0  0.596096  0  4.133937  0  1.569797  0  0.354618  0.545876  0  4.126084  0
C  C45  1  0.46407383  0.83729038  0.31799591  1  0  0.624728  0  3.838128  0  0  0.565849  0  4.1297  0  0  0.595981  0  4.13398  0  1.569786  0  0.354523  0.545766  0  4.126115  0
C  C46  1  0.96407453  0.83729232  0.18200584  1  0  0.624867  0  3.838051  0  0  0.565921  0  4.129722  0  0  0.596053  0  4.134001  0  1.569793  0  0.354533  0.545836  0  4.12614  0
C  C47  1  0.53592593  0.16270193  0.68200818  1  0  0.62492  0  3.837613  0  0  0.565895  0  4.129379  0  0  0.596027  0  4.133661  0  1.569752  0  0.354563  0.545808  0  4.1258  0
C  C48  1  0.06093220  0.08848945  0.68941338  1  0  0.73552  0  3.903402  0  0  0.676316  0  4.208403  0  0  0.710176  0  4.204302  0  1.741422  0  0.31844  0.653334  0  4.210349  0
C  C49  1  0.43906705  0.91151743  0.18941455  1  0  0.735357  0  3.90361  0  0  0.676152  0  4.208595  0  0  0.710009  0  4.204498  0  1.741424  0  0.318342  0.653172  0  4.210539  0
C  C50  1  0.93907054  0.91151646  0.31058487  1  0  0.735219  0  3.903791  0  0  0.676089  0  4.208679  0  0  0.709948  0  4.204581  0  1.741419  0  0.318348  0.653108  0  4.210625  0
C  C51  1  0.56092719  0.08848460  0.81058604  1  0  0.73545  0  3.903576  0  0  0.676323  0  4.208439  0  0  0.710182  0  4.204335  0  1.741347  0  0.318432  0.653342  0  4.210386  0
C  C52  1  0.03600675  0.31268203  0.70791995  1  0  0.615715  0  3.830432  0  0  0.550457  0  4.129873  0  0  0.580527  0  4.134517  0  1.531024  0  0.350065  0.5302  0  4.126346  0
C  C53  1  0.46399242  0.68731805  0.20791937  1  0  0.615907  0  3.830233  0  0  0.550544  0  4.129851  0  0  0.580612  0  4.134499  0  1.531028  0  0.350103  0.530286  0  4.126326  0
C  C54  1  0.96399317  0.68732388  0.29208063  1  0  0.615725  0  3.830274  0  0  0.550415  0  4.129817  0  0  0.580481  0  4.134469  0  1.530962  0  0.350065  0.530158  0  4.12629  0
C  C55  1  0.53600737  0.31267718  0.79208005  1  0  0.615722  0  3.830376  0  0  0.550411  0  4.12992  0  0  0.580492  0  4.134552  0  1.531063  0  0.350093  0.530155  0  4.126392  0
C  C56  1  0.01540601  0.53471043  0.73428279  1  0  0.72535  0  3.940153  0  0  0.673009  0  4.240546  0  0  0.706161  0  4.236986  0  1.760017  0  0.288718  0.650521  0  4.242162  0
C  C57  1  0.48459034  0.46528965  0.23427987  1  0  0.725343  0  3.940002  0  0  0.673042  0  4.24037  0  0  0.706194  0  4.23681  0  1.760061  0  0.288762  0.650559  0  4.241978  0
C  C58  1  0.98459108  0.46529450  0.26571954  1  0  0.725251  0  3.940099  0  0  0.672936  0  4.240492  0  0  0.706088  0  4.236932  0  1.759927  0  0.288722  0.650446  0  4.242109  0
C  C59  1  0.51540804  0.53470558  0.76571779  1  0  0.725323  0  3.93996  0  0  0.673019  0  4.240338  0  0  0.70617  0  4.23678  0  1.760326  0  0.288753  0.650536  0  4.241947  0
N  N60  1  0.02858936  0.28995136  0.78882793  1  0  -0.375909  0  3.359732  0  0  -0.283424  0  3.584199  0  0  -0.308566  0  3.597555  0  -1.243061  0  -0.215096  -0.26694  0  3.575038  0
N  N61  1  0.47141120  0.71004775  0.28882734  1  0  -0.375987  0  3.359677  0  0  -0.283465  0  3.584167  0  0  -0.308618  0  3.597546  0  -1.243014  0  -0.215113  -0.266981  0  3.575006  0
N  N62  1  0.97141189  0.71004872  0.21117207  1  0  -0.375992  0  3.359703  0  0  -0.283478  0  3.584177  0  0  -0.308631  0  3.597555  0  -1.242984  0  -0.215088  -0.266994  0  3.575017  0
N  N63  1  0.52858857  0.28994553  0.71117090  1  0  -0.37612  0  3.359576  0  0  -0.283547  0  3.584069  0  0  -0.308707  0  3.597451  0  -1.24305  0  -0.215233  -0.267064  0  3.574908  0
N  N64  1  0.00949640  0.37339268  0.91775928  1  0  -0.637015  0  2.979187  0  0  -0.585334  0  3.249238  0  0  -0.610355  0  3.251993  0  -1.229835  0  -0.381619  -0.568173  0  3.246819  0
N  N65  1  0.49050692  0.62660157  0.41775752  1  0  -0.637082  0  2.979281  0  0  -0.585441  0  3.249385  0  0  -0.610445  0  3.252103  0  -1.22992  0  -0.381651  -0.568301  0  3.247  0
N  N66  1  0.99050482  0.62660449  0.08224248  1  0  -0.637011  0  2.979273  0  0  -0.585376  0  3.249347  0  0  -0.610383  0  3.252074  0  -1.22988  0  -0.381635  -0.568222  0  3.246943  0
N  N67  1  0.50949563  0.37338880  0.58224014  1  0  -0.636931  0  2.97904  0  0  -0.58527  0  3.249122  0  0  -0.610282  0  3.251858  0  -1.229795  0  -0.381632  -0.568113  0  3.246698  0
N  N68  1  0.02886923  0.14226074  0.89438680  1  0  -0.693653  0  3.014664  0  0  -0.652686  0  3.30281  0  0  -0.67741  0  3.305593  0  -1.269501  0  -0.465197  -0.635618  0  3.300379  0
N  N69  1  0.47112991  0.85773740  0.39438563  1  0  -0.69351  0  3.014602  0  0  -0.652588  0  3.302744  0  0  -0.677311  0  3.305525  0  -1.269079  0  -0.465107  -0.63552  0  3.300313  0
N  N70  1  0.97112920  0.85773837  0.10561379  1  0  -0.693545  0  3.01464  0  0  -0.652592  0  3.3028  0  0  -0.677314  0  3.305583  0  -1.26905  0  -0.465069  -0.635522  0  3.300367  0
N  N71  1  0.52886848  0.14225880  0.60561087  1  0  -0.693624  0  3.014477  0  0  -0.652646  0  3.302648  0  0  -0.67737  0  3.30543  0  -1.269486  0  -0.465158  -0.635578  0  3.300216  0
N  N72  1  0.05163635  0.06368882  0.76811043  1  0  -0.632194  0  3.015281  0  0  -0.575193  0  3.285029  0  0  -0.601189  0  3.288385  0  -1.227698  0  -0.351608  -0.557371  0  3.282582  0
N  N73  1  0.44835999  0.93631029  0.26811277  1  0  -0.632097  0  3.015237  0  0  -0.575076  0  3.284926  0  0  -0.601074  0  3.288282  0  -1.227561  0  -0.351579  -0.557253  0  3.282476  0
N  N74  1  0.94836351  0.93631223  0.23188723  1  0  -0.632047  0  3.015342  0  0  -0.575058  0  3.285048  0  0  -0.601056  0  3.288402  0  -1.227624  0  -0.351553  -0.557235  0  3.282601  0
N  N75  1  0.55163417  0.06368494  0.73188782  1  0  -0.632148  0  3.015271  0  0  -0.575114  0  3.284987  0  0  -0.601109  0  3.288336  0  -1.227738  0  -0.351587  -0.557291  0  3.282544  0
N  N76  1  0.05143335  0.21214875  0.65948466  1  0  -0.612207  0  2.999946  0  0  -0.555217  0  3.271697  0  0  -0.581518  0  3.275772  0  -1.238549  0  -0.344185  -0.537225  0  3.268504  0
N  N77  1  0.44856726  0.78785424  0.15948466  1  0  -0.612297  0  2.999797  0  0  -0.55525  0  3.271563  0  0  -0.581549  0  3.275637  0  -1.238471  0  -0.344169  -0.537257  0  3.268366  0
N  N78  1  0.94856796  0.78785619  0.34051475  1  0  -0.612198  0  2.999925  0  0  -0.555175  0  3.271634  0  0  -0.581472  0  3.275708  0  -1.238512  0  -0.344168  -0.537183  0  3.268439  0
N  N79  1  0.55143256  0.21214292  0.84051475  1  0  -0.612273  0  3.00002  0  0  -0.555264  0  3.271746  0  0  -0.581565  0  3.275811  0  -1.238516  0  -0.344177  -0.537273  0  3.268553  0
N  N80  1  0.02793404  0.43371382  0.68117616  1  0  -0.636357  0  2.994536  0  0  -0.580353  0  3.265739  0  0  -0.606135  0  3.269807  0  -1.250975  0  -0.371075  -0.562705  0  3.262629  0
N  N81  1  0.47206798  0.56628918  0.18117499  1  0  -0.636363  0  2.994408  0  0  -0.58039  0  3.265696  0  0  -0.606172  0  3.269764  0  -1.251053  0  -0.371089  -0.562742  0  3.262584  0
N  N82  1  0.97206585  0.56629015  0.31882501  1  0  -0.636181  0  2.994341  0  0  -0.580235  0  3.265612  0  0  -0.606017  0  3.269684  0  -1.250959  0  -0.371046  -0.562584  0  3.2625  0
N  N83  1  0.52793605  0.43370702  0.81882618  1  0  -0.636161  0  2.994295  0  0  -0.580223  0  3.265567  0  0  -0.606007  0  3.269631  0  -1.250715  0  -0.371051  -0.562576  0  3.262453  0
N  N84  1  0.00762972  0.51527751  0.81354835  1  0  -0.699226  0  3.039424  0  0  -0.658381  0  3.327895  0  0  -0.68348  0  3.331859  0  -1.274349  0  -0.482185  -0.641147  0  3.324969  0
N  N85  1  0.49237085  0.48472257  0.31354601  1  0  -0.699243  0  3.039365  0  0  -0.658385  0  3.327826  0  0  -0.683488  0  3.33179  0  -1.274298  0  -0.482219  -0.64115  0  3.324898  0
N  N86  1  0.99237295  0.48472354  0.18645399  1  0  -0.699288  0  3.039407  0  0  -0.658434  0  3.327841  0  0  -0.683535  0  3.3318  0  -1.274274  0  -0.482223  -0.641197  0  3.324917  0
N  N87  1  0.50762754  0.51527362  0.68644990  1  0  -0.699135  0  3.039407  0  0  -0.658282  0  3.32791  0  0  -0.683381  0  3.331871  0  -1.274303  0  -0.482115  -0.641051  0  3.324983  0
O  O88  1  0.00964036  0.64907192  0.70829623  1  0  -0.714298  0  1.947162  0  0  -0.666283  0  2.187206  0  0  -0.688028  0  2.177733  0  -1.197547  0  -0.487156  -0.65094  0  2.194172  0
O  O89  1  0.49035601  0.35093010  0.20829214  1  0  -0.714319  0  1.947111  0  0  -0.66629  0  2.187112  0  0  -0.688032  0  2.177638  0  -1.19762  0  -0.487216  -0.650949  0  2.194076  0
O  O90  1  0.99035812  0.35093107  0.29170669  1  0  -0.71431  0  1.947089  0  0  -0.666272  0  2.187092  0  0  -0.688016  0  2.177617  0  -1.197531  0  -0.487199  -0.650927  0  2.19406  0
O  O91  1  0.50964380  0.64906707  0.79170494  1  0  -0.71429  0  1.947091  0  0  -0.666285  0  2.187147  0  0  -0.688029  0  2.177677  0  -1.19798  0  -0.487155  -0.650945  0  2.19411  0
O  O92  1  0.00936459  0.22449856  0.01666316  1  0  -0.764084  0  1.963924  0  0  -0.716243  0  2.206644  0  0  -0.738724  0  2.195765  0  -1.213822  0  -0.49434  -0.700144  0  2.213673  0
O  O93  1  0.49063592  0.77549570  0.51666082  1  0  -0.763943  0  1.96429  0  0  -0.716101  0  2.206927  0  0  -0.738597  0  2.196088  0  -1.213899  0  -0.494196  -0.700003  0  2.213961  0
O  O94  1  0.99063095  0.77549473  0.98333801  1  0  -0.763933  0  1.964326  0  0  -0.71607  0  2.206937  0  0  -0.738581  0  2.196137  0  -1.213828  0  -0.494222  -0.699974  0  2.213969  0
O  O95  1  0.50936668  0.22449856  0.48333742  1  0  -0.764029  0  1.964167  0  0  -0.716192  0  2.206825  0  0  -0.738689  0  2.195981  0  -1.213768  0  -0.494306  -0.700096  0  2.213858  0
O  O96  1  0.07711085  0.99392620  0.64228279  1  0  -0.720117  0  1.930672  0  0  -0.665273  0  2.163628  0  0  -0.687613  0  2.153107  0  -1.208848  0  -0.405425  -0.649175  0  2.170794  0
O  O97  1  0.42289260  0.00607874  0.14228922  1  0  -0.72002  0  1.930874  0  0  -0.66519  0  2.163823  0  0  -0.687525  0  2.153302  0  -1.209024  0  -0.405368  -0.649093  0  2.170987  0
O  O98  1  0.92289330  0.00607971  0.35771253  1  0  -0.720003  0  1.930875  0  0  -0.665202  0  2.1638  0  0  -0.687538  0  2.153278  0  -1.209017  0  -0.40541  -0.649106  0  2.170965  0
O  O99  1  0.57710584  0.99392134  0.85771487  1  0  -0.72008  0  1.930776  0  0  -0.665282  0  2.163706  0  0  -0.68762  0  2.153185  0  -1.208903  0  -0.405454  -0.649186  0  2.170872  0
O  O100  1  0.31368349  0.45320016  0.04703009  1  0  -0.876854  0  1.902608  0  0  -0.827569  0  2.097376  0  0  -0.845448  0  2.065852  0  -1.25379  0  -0.650743  -0.814739  0  2.119495  0
O  O101  1  0.18631710  0.54680186  0.54703126  1  0  -0.876861  0  1.902596  0  0  -0.827581  0  2.097368  0  0  -0.845466  0  2.065854  0  -1.253783  0  -0.65076  -0.814741  0  2.119509  0
O  O102  1  0.68631637  0.54680089  0.95296933  1  0  -0.876822  0  1.9026  0  0  -0.827532  0  2.097374  0  0  -0.845415  0  2.065868  0  -1.253777  0  -0.650748  -0.814707  0  2.119484  0
O  O103  1  0.81368136  0.45320016  0.45296933  1  0  -0.876857  0  1.902621  0  0  -0.827585  0  2.097371  0  0  -0.845468  0  2.06585  0  -1.253773  0  -0.650765  -0.814735  0  2.11953  0
O  O104  1  0.52901979  0.78043406  0.00380719  1  0  -0.936562  0  1.790049  0  0  -0.885516  0  1.965981  0  0  -0.904011  0  1.935457  0  -1.340004  0  -0.736593  -0.872097  0  1.987224  0
O  O105  1  0.97098075  0.21956699  0.50380660  1  0  -0.936537  0  1.790062  0  0  -0.885488  0  1.965997  0  0  -0.903984  0  1.935474  0  -1.339738  0  -0.736569  -0.872071  0  1.987239  0
O  O106  1  0.47098149  0.21956796  0.99619281  1  0  -0.936513  0  1.790069  0  0  -0.885464  0  1.965997  0  0  -0.903961  0  1.935473  0  -1.339732  0  -0.736569  -0.872048  0  1.987238  0
O  O107  1  0.02901910  0.78043309  0.49619340  1  0  -0.936575  0  1.790059  0  0  -0.885533  0  1.965988  0  0  -0.904027  0  1.935464  0  -1.340011  0  -0.736599  -0.872112  0  1.987226  0
O  O108  1  0.24049397  0.85862036  0.83356705  1  0  -0.925923  0  1.84744  0  0  -0.883498  0  2.029202  0  0  -0.901276  0  1.998936  0  -1.310729  0  -0.723936  -0.870786  0  2.051532  0
O  O109  1  0.25950805  0.14138264  0.33356705  1  0  -0.925985  0  1.847491  0  0  -0.883579  0  2.029244  0  0  -0.901352  0  1.998985  0  -1.310791  0  -0.723985  -0.870864  0  2.051557  0
O  O110  1  0.75950591  0.14138264  0.16643295  1  0  -0.925933  0  1.84752  0  0  -0.883529  0  2.029259  0  0  -0.901303  0  1.999001  0  -1.310768  0  -0.723969  -0.870821  0  2.051576  0
O  O111  1  0.74049604  0.85861841  0.66643295  1  0  -0.925885  0  1.8475  0  0  -0.88348  0  2.029241  0  0  -0.901254  0  1.998985  0  -1.310747  0  -0.723944  -0.870772  0  2.051555  0
