# generated using pymatgen
data_Zr3H11C69(Br15O8)2
_symmetry_space_group_name_H-M   'P 1'
_cell_length_a   19.96716385
_cell_length_b   20.00517376
_cell_length_c   20.03626026
_cell_angle_alpha   94.42283395
_cell_angle_beta   93.36645097
_cell_angle_gamma   94.15772791
_symmetry_Int_Tables_number   1
_chemical_formula_structural   Zr3H11C69(Br15O8)2
_chemical_formula_sum   'Zr6 H22 C138 Br60 O32'
_cell_volume   7941.91957220
_cell_formula_units_Z   2
loop_
 _symmetry_equiv_pos_site_id
 _symmetry_equiv_pos_as_xyz
  1  'x, y, z'
loop_
 _atom_site_type_symbol
 _atom_site_label
 _atom_site_symmetry_multiplicity
 _atom_site_fract_x
 _atom_site_fract_y
 _atom_site_fract_z
 _atom_site_occupancy
 _atom_site_pbe_bader_charge
 _atom_site_pbe_bader_spin_density
 _atom_site_pbe_cm5_charge
 _atom_site_pbe_ddec_charge
 _atom_site_pbe_ddec_spin_density
 _atom_site_pbe_ddec_sum_bond_order
 _atom_site_pbe_magmom
Zr  Zr0  1  0.81245757  0.96457711  0.86861121  1  2.633383  0  1.620538  2.39201  0  2.714879  0
Zr  Zr1  1  0.77603006  0.86194143  0.00103131  1  2.634879  0  1.622517  2.385072  0  2.725376  0
Zr  Zr2  1  0.98001793  0.99863284  0.93820018  1  2.632247  0  1.610149  2.386485  0  2.67363  0
Zr  Zr3  1  0.91321381  0.83129088  0.90211949  1  2.632793  0  1.626984  2.390431  0  2.743836  0
Zr  Zr4  1  0.84110999  0.03125288  0.03527584  1  2.633993  0  1.618508  2.381541  0  2.737569  0
Zr  Zr5  1  0.94134692  0.89780554  0.07122687  1  2.634304  0  1.613437  2.390055  0  2.693272  0
H  H6  1  0.92738563  0.30310959  0.60088637  1  0.080358  0  0.103773  0.11992  0  0.983481  0
H  H7  1  0.93520279  0.28233973  0.38608211  1  0.089219  0  0.102414  0.116615  0  0.985981  0
H  H8  1  0.96347507  0.11220483  0.50037931  1  0.069416  0  0.101364  0.116637  0  0.990727  0
H  H9  1  0.79830480  0.75170934  0.44062389  1  0.09875  0  0.104876  0.120326  0  0.979473  0
H  H10  1  0.84495884  0.58983634  0.56039813  1  0.063415  0  0.105495  0.121469  0  0.97672  0
H  H11  1  0.84430974  0.56169036  0.34497332  1  0.094196  0  0.104824  0.1216  0  0.980414  0
H  H12  1  0.24931175  0.55228794  0.99897481  1  0.099162  0  0.106396  0.12411  0  0.974976  0
H  H13  1  0.21235875  0.33652492  0.98754648  1  0.070751  0  0.106758  0.123764  0  0.974216  0
H  H14  1  0.05213736  0.46287471  0.03060912  1  0.059255  0  0.106356  0.123699  0  0.973215  0
H  H15  1  0.50446503  0.31080707  0.91823394  1  0.052201  0  0.102856  0.11857  0  0.987543  0
H  H16  1  0.54786916  0.52568917  0.94208628  1  0.04194  0  0.105816  0.12277  0  0.976934  0
H  H17  1  0.70807727  0.39610101  0.91200537  1  0.063913  0  0.10148  0.116461  0  0.990629  0
H  H18  1  0.48919129  0.88939174  0.32093641  1  0.087612  0  0.096691  0.11221  0  1.014932  0
H  H19  1  0.27582317  0.90847887  0.30662598  1  0.059725  0  0.106666  0.123161  0  0.973275  0
H  H20  1  0.39837630  0.98563280  0.15691950  1  0.049966  0  0.098495  0.11344  0  1.007857  0
H  H21  1  0.25439559  0.84517761  0.59451825  1  0.055414  0  0.102867  0.11908  0  0.986611  0
H  H22  1  0.47018482  0.85695399  0.62748702  1  0.072515  0  0.106175  0.123081  0  0.97617  0
H  H23  1  0.34567410  0.85304544  0.79537128  1  0.046196  0  0.102948  0.11867  0  0.984719  0
H  H24  1  0.77435863  0.82357760  0.86148326  1  0.596761  0  0.318892  0.415828  0  0.872831  0
H  H25  1  0.87862679  0.08972165  0.91736764  1  0.626008  0  0.308432  0.399159  0  0.90841  0
H  H26  1  0.03700079  0.87933145  0.97348958  1  0.615486  0  0.302133  0.391199  0  0.928311  0
H  H27  1  0.82001345  0.93195716  0.12709934  1  0.618294  0  0.320519  0.417156  0  0.873179  0
C  C28  1  0.94874395  0.20520692  0.55769197  1  -0.030174  0  -0.021029  0.081813  0  4.026591  0
C  C29  1  0.93624801  0.27290186  0.55505844  1  0.044733  0  -0.08877  -0.168622  0  3.933883  0
C  C30  1  0.93203376  0.30095137  0.49311335  1  0.01976  0  -0.020262  0.084835  0  4.02902  0
C  C31  1  0.94068533  0.26100334  0.43436238  1  -0.031184  0  -0.090621  -0.166255  0  3.945093  0
C  C32  1  0.95132348  0.19273403  0.43632331  1  -0.034666  0  -0.021023  0.083226  0  4.029574  0
C  C33  1  0.95681748  0.16560028  0.49829981  1  0.009708  0  -0.090837  -0.166781  0  3.946201  0
C  C34  1  0.81876867  0.65921914  0.38542038  1  0.023407  0  -0.018206  0.087862  0  4.019998  0
C  C35  1  0.80943750  0.69949253  0.44403540  1  -0.052777  0  -0.091526  -0.172478  0  3.935662  0
C  C36  1  0.81920336  0.67507850  0.50701332  1  -0.003518  0  -0.020911  0.084868  0  4.05035  0
C  C37  1  0.83581987  0.60884531  0.51135518  1  -0.006594  0  -0.091115  -0.175375  0  3.938304  0
C  C38  1  0.84384146  0.56759798  0.45315980  1  -0.064385  0  -0.017928  0.089576  0  4.034419  0
C  C39  1  0.83547889  0.59289495  0.39014573  1  0.044172  0  -0.08974  -0.172395  0  3.927108  0
C  C40  1  0.14811995  0.51473793  0.01626665  1  -0.02111  0  -0.018251  0.090593  0  4.042438  0
C  C41  1  0.21530193  0.50786596  0.00314479  1  0.007322  0  -0.089817  -0.175504  0  3.931304  0
C  C42  1  0.23850769  0.44364814  0.99298000  1  -0.061905  0  -0.016965  0.091164  0  4.034326  0
C  C43  1  0.19441459  0.38642659  0.99645071  1  0.021106  0  -0.0885  -0.173468  0  3.920889  0
C  C44  1  0.12735365  0.39321766  0.01080261  1  -0.059094  0  -0.019514  0.087925  0  4.050577  0
C  C45  1  0.10472211  0.45736210  0.02093941  1  0.068604  0  -0.09291  -0.17878  0  3.93503  0
C  C46  1  0.60888493  0.34591712  0.91379286  1  0.012768  0  -0.018894  0.089245  0  4.028367  0
C  C47  1  0.54052053  0.35457124  0.91991243  1  0.028325  0  -0.09154  -0.171835  0  3.943566  0
C  C48  1  0.51843922  0.41903115  0.93133519  1  -0.007257  0  -0.020182  0.085846  0  4.037151  0
C  C49  1  0.56469319  0.47528482  0.93325753  1  0.018654  0  -0.089269  -0.173212  0  3.931816  0
C  C50  1  0.63274139  0.46697153  0.92476522  1  -0.050988  0  -0.021378  0.084717  0  4.053408  0
C  C51  1  0.65469029  0.40241964  0.91615771  1  0.073021  0  -0.091678  -0.17143  0  3.947584  0
C  C52  1  0.45213192  0.93748187  0.23438416  1  0.00647  0  -0.017394  0.087551  0  4.003762  0
C  C53  1  0.44549165  0.90688020  0.29447655  1  -0.000855  0  -0.091227  -0.166753  0  3.928895  0
C  C54  1  0.38291193  0.90050496  0.32243406  1  0.004448  0  -0.02182  0.08336  0  4.046439  0
C  C55  1  0.32501943  0.91674903  0.28643345  1  -0.031952  0  -0.088811  -0.171088  0  3.936868  0
C  C56  1  0.33071950  0.94494306  0.22516794  1  0.040702  0  -0.022839  0.079983  0  4.065825  0
C  C57  1  0.39433026  0.95943104  0.20227234  1  -0.030234  0  -0.093524  -0.169248  0  3.950015  0
C  C58  1  0.29255142  0.84762352  0.69790527  1  0.107663  0  -0.01827  0.089452  0  4.035569  0
C  C59  1  0.29901709  0.84620822  0.62868159  1  -0.051507  0  -0.091597  -0.17237  0  3.93876  0
C  C60  1  0.36282687  0.84998414  0.60318874  1  0.014  0  -0.020054  0.087258  0  4.04077  0
C  C61  1  0.42032965  0.85235553  0.64696001  1  -0.006328  0  -0.089726  -0.173563  0  3.928653  0
C  C62  1  0.41392810  0.85216598  0.71605136  1  0.028634  0  -0.021084  0.08492  0  4.060259  0
C  C63  1  0.35027197  0.85025216  0.74130305  1  -0.031951  0  -0.091462  -0.172859  0  3.949754  0
C  C64  1  0.92437419  0.05360035  0.79611925  1  1.598193  0  0.226965  0.646291  0  4.092116  0
C  C65  1  0.66535822  0.89173949  0.88081008  1  1.628242  0  0.227746  0.649368  0  4.113193  0
C  C66  1  0.84190950  0.84584628  0.75594472  1  1.598881  0  0.227183  0.644954  0  4.131608  0
C  C67  1  0.74663363  0.10003431  0.93023762  1  1.61355  0  0.228711  0.64714  0  4.106046  0
C  C68  1  0.83231504  0.80398448  0.14165228  1  1.587658  0  0.225838  0.642499  0  4.102802  0
C  C69  1  0.08757232  0.97373393  0.06141674  1  1.610886  0  0.229241  0.651218  0  4.130842  0
C  C70  1  0.79797193  0.71599050  0.93170753  1  1.655129  0  0.228743  0.649394  0  4.143394  0
C  C71  1  0.69847697  0.96452135  0.09179470  1  1.610381  0  0.225696  0.643856  0  4.13947  0
C  C72  1  0.96132180  0.14470835  0.01374981  1  1.621082  0  0.228261  0.646217  0  4.144253  0
C  C73  1  0.05143182  0.89053934  0.84219258  1  1.627749  0  0.227999  0.649074  0  4.113464  0
C  C74  1  0.99772914  0.75507523  0.01068870  1  1.608562  0  0.224845  0.642913  0  4.103683  0
C  C75  1  0.91746935  0.02791693  0.17959850  1  1.60709  0  0.230049  0.65486  0  4.093379  0
C  C76  1  0.14543154  0.81760422  0.80752564  1  -0.013969  0  -0.01969  0.042476  0  3.924004  0
C  C77  1  0.11025040  0.87554319  0.80029206  1  0.009406  0  -0.022182  -0.104499  0  3.918444  0
C  C78  1  0.13195570  0.92023260  0.75354847  1  -0.032237  0  -0.021649  0.043965  0  3.934983  0
C  C79  1  0.19053911  0.91069312  0.71968402  1  -0.025652  0  -0.021921  0.021682  0  3.917015  0
C  C80  1  0.22688381  0.85383991  0.72811285  1  0.092119  0  -0.008358  0.01124  0  3.958942  0
C  C81  1  0.20178578  0.80629776  0.77058988  1  -0.058285  0  -0.02091  0.021491  0  3.918486  0
C  C82  1  0.50495889  0.80620260  0.78843389  1  -0.065613  0  -0.023869  0.016938  0  3.931654  0
C  C83  1  0.47465223  0.86106916  0.76332202  1  0.029251  0  -0.009663  0.01352  0  3.971667  0
C  C84  1  0.50209653  0.92635580  0.78508984  1  0.011373  0  -0.02204  0.019501  0  3.936395  0
C  C85  1  0.56217148  0.93648468  0.82550115  1  -0.034728  0  -0.022373  0.04368  0  3.937063  0
C  C86  1  0.59490210  0.88113555  0.84750594  1  0.011812  0  -0.028067  -0.11376  0  3.928825  0
C  C87  1  0.56336200  0.81591259  0.83202194  1  -0.007365  0  -0.023258  0.042932  0  3.937746  0
C  C88  1  0.24129982  0.01770188  0.18287077  1  -0.060634  0  -0.022921  0.020851  0  3.93856  0
C  C89  1  0.27066631  0.95593875  0.18096862  1  0.10558  0  -0.011096  0.006109  0  3.967175  0
C  C90  1  0.24422356  0.90393600  0.13293367  1  -0.045772  0  -0.022036  0.01923  0  3.934995  0
C  C91  1  0.18992715  0.91398190  0.08850098  1  -0.065885  0  -0.02334  0.043025  0  3.940151  0
C  C92  1  0.15758525  0.97374900  0.09469583  1  0.130818  0  -0.020874  -0.091468  0  3.939429  0
C  C93  1  0.18462702  0.02649671  0.14046133  1  -0.068241  0  -0.027146  0.041145  0  3.96116  0
C  C94  1  0.63892672  0.96921930  0.20095461  1  -0.023052  0  -0.020789  0.047686  0  3.938208  0
C  C95  1  0.63583417  0.96585107  0.13092685  1  0.076855  0  -0.024345  -0.099595  0  3.935855  0
C  C96  1  0.57282706  0.95015987  0.09604686  1  -0.045898  0  -0.022895  0.046467  0  3.956706  0
C  C97  1  0.51631657  0.93233122  0.13058921  1  -0.017887  0  -0.018938  0.024208  0  3.900916  0
C  C98  1  0.51658367  0.94526431  0.20125329  1  0.035524  0  -0.007768  0.009099  0  3.929764  0
C  C99  1  0.57944172  0.96624161  0.23550001  1  -0.057043  0  -0.021231  0.018996  0  3.904108  0
C  C100  1  0.38132968  0.92603463  0.51143465  1  -0.058901  0  -0.022759  0.022128  0  3.93815  0
C  C101  1  0.36930795  0.86021324  0.53082382  1  0.092408  0  -0.013222  0.00013  0  3.966903  0
C  C102  1  0.36256358  0.80665835  0.48053774  1  -0.027757  0  -0.023318  0.022152  0  3.942592  0
C  C103  1  0.36705939  0.81851782  0.41261978  1  -0.132995  0  -0.023287  0.021485  0  3.94717  0
C  C104  1  0.37880110  0.88417346  0.39340362  1  0.119003  0  -0.013484  0.002322  0  3.975864  0
C  C105  1  0.38609250  0.93780254  0.44375428  1  -0.040582  0  -0.022603  0.022584  0  3.935657  0
C  C106  1  0.66053717  0.17890743  0.97002616  1  -0.034259  0  -0.018357  0.050654  0  3.935227  0
C  C107  1  0.70358711  0.15827381  0.92004840  1  0.035085  0  -0.024419  -0.108548  0  3.909701  0
C  C108  1  0.70914559  0.19653498  0.86404103  1  -0.014676  0  -0.020748  0.040967  0  3.929599  0
C  C109  1  0.67427228  0.25483831  0.85956131  1  -0.028791  0  -0.022033  0.017586  0  3.920689  0
C  C110  1  0.63602504  0.27861949  0.91209199  1  0.020484  0  -0.007882  0.015474  0  3.949949  0
C  C111  1  0.62913812  0.23917224  0.96694485  1  -0.005462  0  -0.020872  0.020107  0  3.912916  0
C  C112  1  0.72686719  0.54739971  0.98029316  1  -0.084025  0  -0.020106  0.02156  0  3.932373  0
C  C113  1  0.68208216  0.52628121  0.92434712  1  0.158745  0  -0.011312  0.006478  0  3.95796  0
C  C114  1  0.68616184  0.56123827  0.86619094  1  -0.094943  0  -0.023062  0.020739  0  3.928651  0
C  C115  1  0.72975229  0.61943644  0.86582376  1  -0.028559  0  -0.027336  0.03912  0  3.953457  0
C  C116  1  0.76816089  0.64411137  0.92440070  1  0.049355  0  -0.023951  -0.101806  0  3.962013  0
C  C117  1  0.77042368  0.60550860  0.97980771  1  -0.045443  0  -0.019556  0.043214  0  3.956573  0
C  C118  1  0.02977625  0.24438959  0.07744256  1  -0.024047  0  -0.021779  0.035828  0  3.950403  0
C  C119  1  0.99235852  0.21624872  0.01956716  1  0.142579  0  -0.017857  -0.086778  0  3.947693  0
C  C120  1  0.99030128  0.25224327  0.96232414  1  -0.101545  0  -0.02253  0.042903  0  3.936714  0
C  C121  1  0.03422315  0.30954333  0.95895120  1  -0.055222  0  -0.021236  0.021459  0  3.932196  0
C  C122  1  0.07889612  0.33345028  0.01429909  1  0.091378  0  -0.010749  0.004969  0  3.95155  0
C  C123  1  0.07380802  0.30196827  0.07444421  1  -0.055739  0  -0.020594  0.021765  0  3.941547  0
C  C124  1  0.07641691  0.68107249  0.07418840  1  -0.015333  0  -0.017049  0.05276  0  3.910546  0
C  C125  1  0.03413742  0.69160952  0.01698934  1  0.056586  0  -0.02773  -0.127762  0  3.881901  0
C  C126  1  0.03170500  0.64255042  0.96098636  1  -0.08654  0  -0.020844  0.049501  0  3.907694  0
C  C127  1  0.07705115  0.59222680  0.95938620  1  -0.035926  0  -0.024088  0.014739  0  3.932184  0
C  C128  1  0.11604521  0.57973178  0.01714769  1  0.113846  0  -0.007799  0.017294  0  3.965543  0
C  C129  1  0.11486192  0.62452670  0.07434236  1  -0.071959  0  -0.025053  0.016558  0  3.920895  0
C  C130  1  0.42904650  0.43615724  0.01307460  1  -0.064429  0  -0.022375  0.021062  0  3.931241  0
C  C131  1  0.44681666  0.42648661  0.94616600  1  0.099519  0  -0.012433  0.003213  0  3.961333  0
C  C132  1  0.39508959  0.42241515  0.89488895  1  -0.072375  0  -0.023294  0.022142  0  3.934141  0
C  C133  1  0.32764320  0.42745805  0.90989550  1  -0.065223  0  -0.022194  0.023636  0  3.933664  0
C  C134  1  0.30993703  0.43685101  0.97678419  1  0.118287  0  -0.013956  -0.003033  0  3.966635  0
C  C135  1  0.36162621  0.44098871  0.02811326  1  -0.064954  0  -0.022831  0.024143  0  3.936485  0
C  C136  1  0.76992222  0.71932896  0.21228107  1  -7e-06  0  -0.0173  0.050675  0  3.917806  0
C  C137  1  0.82294699  0.76914458  0.20562177  1  0.071373  0  -0.02501  -0.119785  0  3.878656  0
C  C138  1  0.87163342  0.78302383  0.26061890  1  -0.044141  0  -0.018082  0.056462  0  3.903999  0
C  C139  1  0.87212392  0.74263689  0.31471435  1  -0.053989  0  -0.023639  0.018317  0  3.920712  0
C  C140  1  0.81970763  0.69305736  0.32151307  1  0.084784  0  -0.006795  0.016902  0  3.948893  0
C  C141  1  0.76855652  0.68273055  0.26979436  1  -0.093509  0  -0.022761  0.017783  0  3.919946  0
C  C142  1  0.76362453  0.74006215  0.59993272  1  -0.010253  0  -0.024502  0.018045  0  3.937824  0
C  C143  1  0.82161435  0.72245878  0.56834315  1  0.010698  0  -0.008967  0.009254  0  3.960761  0
C  C144  1  0.88447536  0.75315369  0.59457101  1  0.004772  0  -0.019542  0.023397  0  3.924366  0
C  C145  1  0.88890754  0.79994387  0.65045117  1  -0.024581  0  -0.020028  0.048004  0  3.954229  0
C  C146  1  0.83158086  0.81211418  0.68556774  1  0.073667  0  -0.024559  -0.103204  0  3.944775  0
C  C147  1  0.76840057  0.78425747  0.65852091  1  -0.05226  0  -0.026318  0.035114  0  3.936279  0
C  C148  1  0.99573783  0.10917680  0.34987101  1  0.012228  0  -0.024997  0.014605  0  3.928393  0
C  C149  1  0.94481436  0.14859647  0.37261182  1  0.089334  0  -0.006621  0.019887  0  3.951538  0
C  C150  1  0.88400380  0.14523783  0.33262798  1  -0.111035  0  -0.022735  0.01651  0  3.908521  0
C  C151  1  0.87752091  0.11196788  0.26792195  1  0.009275  0  -0.019297  0.047672  0  3.901735  0
C  C152  1  0.92714262  0.06849074  0.24695845  1  0.020164  0  -0.026038  -0.121844  0  3.894913  0
C  C153  1  0.98530377  0.06598953  0.29060287  1  -0.04709  0  -0.02038  0.043732  0  3.919698  0
C  C154  1  0.89109608  0.12049061  0.62395325  1  -0.079128  0  -0.023492  0.01553  0  3.916318  0
C  C155  1  0.94445783  0.16985144  0.62028107  1  0.079983  0  -0.006944  0.019971  0  3.955504  0
C  C156  1  0.99323896  0.17937044  0.67425851  1  -0.037365  0  -0.023632  0.018234  0  3.91584  0
C  C157  1  0.98883426  0.14192566  0.73103358  1  -0.032116  0  -0.021384  0.047595  0  3.906851  0
C  C158  1  0.93590883  0.09091228  0.73385468  1  0.018827  0  -0.028519  -0.124061  0  3.878977  0
C  C159  1  0.88929110  0.07849260  0.67682990  1  0.000233  0  -0.018029  0.052909  0  3.914074  0
C  C160  1  0.93432168  0.48596897  0.45763772  1  -0.057062  0  -0.021559  0.024936  0  3.93078  0
C  C161  1  0.86616242  0.49895783  0.46135787  1  0.12678  0  -0.012795  0.000576  0  3.966904  0
C  C162  1  0.82066104  0.44660940  0.47773416  1  -0.101662  0  -0.023427  0.021003  0  3.942043  0
C  C163  1  0.84248723  0.38332991  0.49040878  1  -0.027732  0  -0.022058  0.023212  0  3.928909  0
C  C164  1  0.91058468  0.37013609  0.48610676  1  0.087193  0  -0.012655  0.001725  0  3.96328  0
C  C165  1  0.95609161  0.42254036  0.46983987  1  -0.064332  0  -0.023932  0.020298  0  3.938312  0
Br  Br166  1  0.24546964  0.72548716  0.77639311  1  -0.021193  0  0.036129  -0.043585  0  1.504775  0
Br  Br167  1  0.11882043  0.75432892  0.86848848  1  0.004496  0  0.058797  0.003441  0  1.781516  0
Br  Br168  1  0.22372174  0.97772742  0.66529821  1  -0.016022  0  0.039429  -0.042335  0  1.568552  0
Br  Br169  1  0.08073073  0.99278703  0.73356223  1  0.011398  0  0.056209  0.000912  0  1.766795  0
Br  Br170  1  0.59889240  0.74041585  0.86828922  1  0.004624  0  0.047208  -0.013022  0  1.663436  0
Br  Br171  1  0.46489767  0.71867152  0.76170390  1  -0.013577  0  0.034938  -0.037442  0  1.484376  0
Br  Br172  1  0.59624789  0.02565703  0.85271984  1  0.014768  0  0.06046  0.00654  0  1.740918  0
Br  Br173  1  0.45583607  0.00055194  0.75901541  1  -0.018985  0  0.03936  -0.034479  0  1.556665  0
Br  Br174  1  0.14096002  0.10724912  0.14556835  1  -0.001462  0  0.029368  -0.05397  0  1.723554  0
Br  Br175  1  0.27810527  0.08851836  0.24551898  1  -0.022405  0  0.033195  -0.036586  0  1.468826  0
Br  Br176  1  0.15994831  0.84865216  0.01672261  1  -0.025826  0  0.056197  -0.031635  0  1.726408  0
Br  Br177  1  0.28029303  0.81879770  0.13110378  1  -0.013722  0  0.04461  -0.025535  0  1.583377  0
Br  Br178  1  0.58586117  0.99437616  0.32859140  1  -0.019463  0  0.04291  -0.037738  0  1.506275  0
Br  Br179  1  0.72444787  0.96963691  0.24807479  1  -0.025945  0  0.045735  -0.023678  0  1.558234  0
Br  Br180  1  0.44257360  0.88314359  0.08009879  1  -0.019175  0  0.043462  -0.039603  0  1.61533  0
Br  Br181  1  0.56538874  0.95227181  0.00206699  1  0.032517  0  0.052691  -0.023719  0  1.808888  0
Br  Br182  1  0.40181307  0.02674806  0.41837942  1  -0.018357  0  0.037067  -0.035927  0  1.527188  0
Br  Br183  1  0.39073123  0.99908647  0.57818331  1  -0.010947  0  0.035818  -0.035728  0  1.607157  0
Br  Br184  1  0.35724662  0.74667709  0.34448162  1  -0.021029  0  0.028647  -0.041615  0  1.446451  0
Br  Br185  1  0.34763329  0.71808202  0.50681798  1  -0.027747  0  0.029701  -0.040692  0  1.442609  0
Br  Br186  1  0.58101957  0.27083933  0.04056875  1  -0.01504  0  0.041354  -0.039716  0  1.564631  0
Br  Br187  1  0.64280812  0.12537010  0.04142471  1  0.019197  0  0.053808  -0.003394  0  1.724703  0
Br  Br188  1  0.67784088  0.30332487  0.78179817  1  -0.021058  0  0.036416  -0.043473  0  1.492283  0
Br  Br189  1  0.76683972  0.17261536  0.79541062  1  0.000678  0  0.052668  0.004102  0  1.64371  0
Br  Br190  1  0.83555722  0.63307205  0.05116003  1  -0.008655  0  0.061566  0.006072  0  1.559965  0
Br  Br191  1  0.72595500  0.49771090  0.05703383  1  -0.016052  0  0.039638  -0.036806  0  1.481667  0
Br  Br192  1  0.73730695  0.66587984  0.78742697  1  -0.008873  0  0.039891  -0.035953  0  1.692595  0
Br  Br193  1  0.63175877  0.52867300  0.78813189  1  -0.014655  0  0.039232  -0.032163  0  1.491724  0
Br  Br194  1  0.12784582  0.33821663  0.15142635  1  -0.015914  0  0.038547  -0.037774  0  1.469557  0
Br  Br195  1  0.01704720  0.20539053  0.15945639  1  -0.00176  0  0.064923  0.022865  0  1.639035  0
Br  Br196  1  0.03486517  0.35500935  0.87961892  1  -0.008771  0  0.039582  -0.034195  0  1.575804  0
Br  Br197  1  0.92172640  0.22424207  0.89359620  1  -0.027193  0  0.05114  -0.033377  0  1.679182  0
Br  Br198  1  0.16692030  0.60528737  0.15188524  1  -0.023456  0  0.029063  -0.044344  0  1.479395  0
Br  Br199  1  0.08214920  0.73939419  0.15373655  1  0.023204  0  0.05004  -0.004493  0  1.609422  0
Br  Br200  1  0.08764423  0.53878889  0.87875764  1  -0.016906  0  0.037382  -0.039934  0  1.617963  0
Br  Br201  1  0.96393469  0.63362465  0.88986785  1  0.041748  0  0.059438  0.005641  0  1.687117  0
Br  Br202  1  0.33786545  0.45237709  0.11830244  1  -0.02158  0  0.032782  -0.03959  0  1.475478  0
Br  Br203  1  0.49800912  0.44225707  0.08302579  1  -0.015351  0  0.037013  -0.03289  0  1.521026  0
Br  Br204  1  0.25850007  0.42244929  0.84027436  1  -0.020622  0  0.031678  -0.039915  0  1.490353  0
Br  Br205  1  0.41883014  0.41124377  0.80466787  1  -0.025807  0  0.030805  -0.039975  0  1.458538  0
Br  Br206  1  0.69632539  0.61828756  0.28105810  1  -0.021394  0  0.028009  -0.047519  0  1.473614  0
Br  Br207  1  0.69733292  0.70092359  0.14670236  1  0.026382  0  0.049479  -0.005816  0  1.606232  0
Br  Br208  1  0.94506467  0.75367474  0.38084251  1  -0.016898  0  0.031134  -0.050012  0  1.648666  0
Br  Br209  1  0.93307120  0.86066387  0.26978153  1  0.016312  0  0.038945  -0.032441  0  1.757022  0
Br  Br210  1  0.68984766  0.80574445  0.70211605  1  -0.014445  0  0.048856  -0.005461  0  1.621897  0
Br  Br211  1  0.67889813  0.70087389  0.56317205  1  -0.019764  0  0.034178  -0.038952  0  1.451784  0
Br  Br212  1  0.97029873  0.85158454  0.67732681  1  0.00334  0  0.050439  -0.021805  0  1.706924  0
Br  Br213  1  0.96445363  0.72848085  0.55605631  1  -0.012202  0  0.043481  -0.024927  0  1.595236  0
Br  Br214  1  0.05281559  0.00688033  0.27069492  1  0.016069  0  0.057858  0.015153  0  1.675247  0
Br  Br215  1  0.07939455  0.11632235  0.40092716  1  -0.025858  0  0.036937  -0.04074  0  1.483468  0
Br  Br216  1  0.80109223  0.13100817  0.21375851  1  0.034169  0  0.057375  -0.004216  0  1.720639  0
Br  Br217  1  0.80874837  0.18484245  0.36877204  1  -0.01885  0  0.03853  -0.042007  0  1.634491  0
Br  Br218  1  0.82751199  0.00167844  0.66389543  1  0.030438  0  0.057197  0.004652  0  1.69088  0
Br  Br219  1  0.81976014  0.11253439  0.55585079  1  -0.009172  0  0.037651  -0.042384  0  1.573928  0
Br  Br220  1  0.05687715  0.16219354  0.80110433  1  0.02169  0  0.055297  -0.002482  0  1.704399  0
Br  Br221  1  0.06647423  0.24397383  0.66736703  1  -0.019828  0  0.032698  -0.041213  0  1.484749  0
Br  Br222  1  0.04811725  0.40579929  0.46577610  1  -0.02129  0  0.032303  -0.03856  0  1.456521  0
Br  Br223  1  0.99669587  0.55627994  0.43697127  1  -0.019001  0  0.034358  -0.038886  0  1.515294  0
Br  Br224  1  0.77983968  0.31393875  0.51283225  1  -0.021734  0  0.03716  -0.032884  0  1.549534  0
Br  Br225  1  0.72860200  0.46342128  0.48155814  1  -0.021329  0  0.032431  -0.03997  0  1.466715  0
O  O226  1  0.97270902  0.04770735  0.83880811  1  -1.170724  0  -0.342361  -0.612233  0  2.373909  0
O  O227  1  0.67948933  0.86401414  0.93396329  1  -1.170939  0  -0.33928  -0.605584  0  2.357997  0
O  O228  1  0.81515939  0.89988652  0.77123122  1  -1.178263  0  -0.342067  -0.606054  0  2.372247  0
O  O229  1  0.75285095  0.05714001  0.88157702  1  -1.168852  0  -0.339992  -0.607718  0  2.377852  0
O  O230  1  0.77533429  0.10013489  0.98884651  1  -1.173822  0  -0.359864  -0.60767  0  2.335859  0
O  O231  1  0.87714852  0.81296369  0.79513459  1  -1.161431  0  -0.352851  -0.602042  0  2.304866  0
O  O232  1  0.70611438  0.92749930  0.84890451  1  -1.175585  0  -0.359984  -0.614512  0  2.340603  0
O  O233  1  0.86356669  0.03157571  0.80207544  1  -1.185641  0  -0.364996  -0.623673  0  2.410716  0
O  O234  1  0.79231548  0.95772502  0.96814043  1  -1.200799  0  -0.790756  -1.145177  0  2.11634  0
O  O235  1  0.90776250  0.93180747  0.88630068  1  -1.19594  0  -0.790358  -1.144587  0  2.120319  0
O  O236  1  0.80334085  0.85422463  0.89252073  1  -1.22812  0  -0.693394  -1.06194  0  2.343421  0
O  O237  1  0.87858518  0.04464060  0.93257494  1  -1.254088  0  -0.696019  -1.057401  0  2.372841  0
O  O238  1  0.78334930  0.80796461  0.09937615  1  -1.170424  0  -0.334049  -0.597486  0  2.352245  0
O  O239  1  0.07615133  0.00314406  0.00889842  1  -1.169028  0  -0.3288  -0.580403  0  2.245264  0
O  O240  1  0.85010561  0.73267531  0.90256024  1  -1.172231  0  -0.338067  -0.597939  0  2.381469  0
O  O241  1  0.73850021  0.01598230  0.08948419  1  -1.166905  0  -0.325874  -0.602749  0  2.317519  0
O  O242  1  0.90640310  0.13071294  0.03925650  1  -1.161464  0  -0.330486  -0.579964  0  2.308978  0
O  O243  1  0.00526686  0.84381232  0.84407696  1  -1.174617  0  -0.347624  -0.61114  0  2.362832  0
O  O244  1  0.99216462  0.79651190  0.06073181  1  -1.162658  0  -0.334013  -0.594355  0  2.349871  0
O  O245  1  0.94219331  0.97184059  0.16941466  1  -1.17242  0  -0.330172  -0.601487  0  2.357766  0
O  O246  1  0.97672138  0.76413165  0.95084792  1  -1.189885  0  -0.379128  -0.634636  0  2.47591  0
O  O247  1  0.88192723  0.05506115  0.13579028  1  -1.183251  0  -0.379847  -0.627661  0  2.476173  0
O  O248  1  0.76317683  0.75452546  0.96720599  1  -1.179352  0  -0.357179  -0.610811  0  2.29184  0
O  O249  1  0.05351129  0.94876513  0.87320277  1  -1.175199  0  -0.347253  -0.602653  0  2.289571  0
O  O250  1  0.99648669  0.10455742  0.98044928  1  -1.173185  0  -0.355899  -0.612134  0  2.267098  0
O  O251  1  0.70426167  0.90579095  0.06393191  1  -1.165705  0  -0.366689  -0.603884  0  2.340081  0
O  O252  1  0.89246645  0.82740990  0.13409641  1  -1.179236  0  -0.371777  -0.623624  0  2.414695  0
O  O253  1  0.04498673  0.93915466  0.09269714  1  -1.172187  0  -0.363009  -0.618859  0  2.315175  0
O  O254  1  0.93115480  0.98683119  0.02527266  1  -1.190727  0  -0.784712  -1.137195  0  2.116809  0
O  O255  1  0.87689598  0.84772361  0.99664116  1  -1.194561  0  -0.794351  -1.14417  0  2.14306  0
O  O256  1  0.99169259  0.89468761  0.97206202  1  -1.250608  0  -0.694752  -1.056592  0  2.369105  0
O  O257  1  0.83686088  0.93135604  0.08253639  1  -1.25157  0  -0.692517  -1.061095  0  2.349657  0
