# generated using pymatgen
data_LaAgH11C15(NO6)2
_symmetry_space_group_name_H-M   'P 1'
_cell_length_a   7.74057033
_cell_length_b   8.29385141
_cell_length_c   14.18104300
_cell_angle_alpha   96.80166532
_cell_angle_beta   101.52864352
_cell_angle_gamma   92.93451832
_symmetry_Int_Tables_number   1
_chemical_formula_structural   LaAgH11C15(NO6)2
_chemical_formula_sum   'La2 Ag2 H22 C30 N4 O24'
_cell_volume   883.13885469
_cell_formula_units_Z   2
loop_
 _symmetry_equiv_pos_site_id
 _symmetry_equiv_pos_as_xyz
  1  'x, y, z'
loop_
 _atom_site_type_symbol
 _atom_site_label
 _atom_site_symmetry_multiplicity
 _atom_site_fract_x
 _atom_site_fract_y
 _atom_site_fract_z
 _atom_site_occupancy
 _atom_site_hle17_bader_spin_density
 _atom_site_hle17_ddec_charge
 _atom_site_hle17_ddec_spin_density
 _atom_site_hle17_ddec_sum_bond_order
 _atom_site_hle17_magmom
 _atom_site_hse06_10hf_bader_spin_density
 _atom_site_hse06_10hf_ddec_charge
 _atom_site_hse06_10hf_ddec_spin_density
 _atom_site_hse06_10hf_ddec_sum_bond_order
 _atom_site_hse06_10hf_magmom
 _atom_site_hse06_bader_spin_density
 _atom_site_hse06_ddec_charge
 _atom_site_hse06_ddec_spin_density
 _atom_site_hse06_ddec_sum_bond_order
 _atom_site_hse06_magmom
 _atom_site_pbe_bader_spin_density
 _atom_site_pbe_cm5_charge
 _atom_site_pbe_ddec_charge
 _atom_site_pbe_ddec_spin_density
 _atom_site_pbe_ddec_sum_bond_order
 _atom_site_pbe_magmom
La  La0  1  0.68550727  0.20269108  0.91458473  1  0  2.147774  0  1.751078  0  0  2.028086  0  2.263345  0  0  2.125565  0  2.16516  0  0  1.399153  1.954659  0  2.332191  0
La  La1  1  0.31448990  0.79730671  0.08541478  1  0  2.147768  0  1.751067  0  0  2.02807  0  2.263333  0  0  2.125552  0  2.165148  0  0  1.399155  1.954636  0  2.33215  0
Ag  Ag2  1  0.32532029  0.07623633  0.46715631  1  0  0.512597  0  1.403996  0  0  0.36339  0  1.840002  0  0  0.394346  0  1.796397  0  0  0.47098  0.342036  0  1.870314  0
Ag  Ag3  1  0.67468000  0.92376629  0.53284458  1  0  0.512618  0  1.403973  0  0  0.363419  0  1.839966  0  0  0.394377  0  1.796357  0  0  0.470968  0.342066  0  1.87027  0
H  H4  1  0.97497412  0.78648833  0.75663694  1  0  0.135222  0  0.912195  0  0  0.143277  0  0.970349  0  0  0.147477  0  0.9663  0  0  0.125465  0.140176  0  0.973357  0
H  H5  1  0.02502865  0.21351306  0.24336270  1  0  0.135209  0  0.912206  0  0  0.143276  0  0.970347  0  0  0.147475  0  0.966298  0  0  0.125476  0.140171  0  0.973354  0
H  H6  1  0.16955964  0.19174645  0.63332687  1  0  0.092319  0  0.958455  0  0  0.095349  0  1.032629  0  0  0.099672  0  1.027109  0  0  0.116875  0.092142  0  1.036618  0
H  H7  1  0.83044049  0.80825497  0.36667180  1  0  0.092309  0  0.958442  0  0  0.095349  0  1.032612  0  0  0.099673  0  1.027092  0  0  0.116882  0.092143  0  1.036601  0
H  H8  1  0.22079035  0.72268133  0.50747429  1  0  0.109652  0  0.954769  0  0  0.115279  0  1.022134  0  0  0.118802  0  1.018069  0  0  0.122802  0.112608  0  1.025149  0
H  H9  1  0.77921000  0.27732254  0.49252387  1  0  0.109678  0  0.954653  0  0  0.115309  0  1.022015  0  0  0.118832  0  1.017949  0  0  0.122795  0.112628  0  1.025039  0
H  H10  1  0.53037353  0.48863698  0.18004925  1  0  0.116723  0  0.97419  0  0  0.120695  0  1.04541  0  0  0.12521  0  1.040104  0  0  0.119369  0.117364  0  1.049247  0
H  H11  1  0.46962655  0.51136319  0.81995285  1  0  0.116681  0  0.974222  0  0  0.120638  0  1.045461  0  0  0.125155  0  1.04015  0  0  0.119344  0.117314  0  1.049294  0
H  H12  1  0.33475758  0.44464705  0.44115276  1  0  0.095451  0  0.934604  0  0  0.102292  0  1.005024  0  0  0.105501  0  1.000862  0  0  0.121207  0.099925  0  1.007995  0
H  H13  1  0.66524536  0.55535554  0.55884910  1  0  0.095495  0  0.934555  0  0  0.102344  0  1.00497  0  0  0.105554  0  1.00081  0  0  0.121234  0.099978  0  1.007939  0
H  H14  1  0.46309646  0.02736971  0.28504812  1  0  0.083545  0  0.979403  0  0  0.084509  0  1.06056  0  0  0.088521  0  1.055685  0  0  0.121239  0.081501  0  1.064155  0
H  H15  1  0.53690244  0.97263169  0.71495465  1  0  0.083557  0  0.979382  0  0  0.084475  0  1.060583  0  0  0.088466  0  1.055728  0  0  0.121222  0.08147  0  1.06418  0
H  H16  1  0.03528664  0.40106073  0.72804062  1  0  0.414907  0  0.880818  0  0  0.383914  0  0.953587  0  0  0.396015  0  0.936467  0  0  0.308931  0.375391  0  0.965627  0
H  H17  1  0.96471771  0.59894306  0.27196077  1  0  0.414863  0  0.880859  0  0  0.383872  0  0.953645  0  0  0.395973  0  0.936524  0  0  0.30891  0.375349  0  0.965684  0
H  H18  1  0.71616753  0.94615493  0.04657569  1  0  0.417674  0  0.887658  0  0  0.386108  0  0.954797  0  0  0.397595  0  0.938025  0  0  0.301595  0.377796  0  0.966908  0
H  H19  1  0.28383335  0.05384037  0.95342402  1  0  0.41765  0  0.887626  0  0  0.386095  0  0.954796  0  0  0.39758  0  0.938029  0  0  0.301584  0.377785  0  0.966906  0
H  H20  1  0.85668131  0.86773645  0.98707666  1  0  0.449602  0  0.840426  0  0  0.419678  0  0.901096  0  0  0.431892  0  0.88332  0  0  0.306987  0.410801  0  0.914016  0
H  H21  1  0.14331826  0.13225887  0.01292291  1  0  0.449514  0  0.840511  0  0  0.419609  0  0.901154  0  0  0.431823  0  0.883377  0  0  0.306963  0.410736  0  0.91407  0
H  H22  1  0.35836417  0.38703592  0.97453704  1  0  0.43642  0  0.857128  0  0  0.40807  0  0.916757  0  0  0.418634  0  0.901505  0  0  0.311367  0.400447  0  0.927764  0
H  H23  1  0.64163573  0.61296306  0.02546213  1  0  0.436408  0  0.857205  0  0  0.408054  0  0.916837  0  0  0.41862  0  0.901583  0  0  0.311365  0.400429  0  0.927847  0
H  H24  1  0.28239548  0.30865280  0.86638815  1  0  0.436854  0  0.856933  0  0  0.408916  0  0.914979  0  0  0.419412  0  0.899808  0  0  0.305335  0.40139  0  0.925845  0
H  H25  1  0.71761099  0.69134612  0.13361099  1  0  0.436838  0  0.856956  0  0  0.408893  0  0.915014  0  0  0.419389  0  0.899841  0  0  0.305322  0.401368  0  0.925877  0
C  C26  1  0.09169575  0.55112255  0.63726261  1  0  0.664306  0  3.827208  0  0  0.613393  0  4.125485  0  0  0.646923  0  4.118652  0  0  0.232658  0.590674  0  4.129604  0
C  C27  1  0.90830294  0.44887768  0.36273582  1  0  0.664212  0  3.827268  0  0  0.613309  0  4.125532  0  0  0.646839  0  4.118701  0  0  0.232619  0.590596  0  4.129644  0
C  C28  1  0.09570855  0.73059594  0.63248842  1  0  -0.127205  0  3.748566  0  0  -0.100179  0  3.988948  0  0  -0.11538  0  4.013526  0  0  -0.010173  -0.090684  0  3.972742  0
C  C29  1  0.90429157  0.26940549  0.36751025  1  0  -0.127151  0  3.74856  0  0  -0.100138  0  3.988963  0  0  -0.115339  0  4.013542  0  0  -0.010192  -0.090651  0  3.972759  0
C  C30  1  0.03611168  0.83468265  0.70201978  1  0  -0.002007  0  3.649397  0  0  -0.046951  0  3.905572  0  0  -0.036902  0  3.917115  0  0  -0.048903  -0.053213  0  3.897942  0
C  C31  1  0.96388976  0.16531876  0.29797902  1  0  -0.002007  0  3.649438  0  0  -0.046956  0  3.90561  0  0  -0.036908  0  3.917154  0  0  -0.048881  -0.053213  0  3.897972  0
C  C32  1  0.06127765  0.00260899  0.70313374  1  0  -0.120878  0  3.75332  0  0  -0.0949  0  3.997681  0  0  -0.107577  0  4.017135  0  0  -0.011994  -0.087271  0  3.985242  0
C  C33  1  0.93872502  0.99739117  0.29686651  1  0  -0.120877  0  3.753406  0  0  -0.094867  0  3.997762  0  0  -0.107543  0  4.017216  0  0  -0.011968  -0.087236  0  3.985317  0
C  C34  1  0.14539785  0.06125181  0.63443794  1  0  0.131701  0  3.637513  0  0  0.086557  0  3.887453  0  0  0.097583  0  3.902601  0  0  0.056962  0.07958  0  3.877208  0
C  C35  1  0.85460382  0.93875204  0.36556107  1  0  0.131645  0  3.63774  0  0  0.086473  0  3.887718  0  0  0.097497  0  3.902864  0  0  0.056906  0.079491  0  3.877472  0
C  C36  1  0.17250036  0.79823384  0.56348481  1  0  0.137304  0  3.622789  0  0  0.091634  0  3.869631  0  0  0.103013  0  3.886098  0  0  0.062434  0.084472  0  3.858319  0
C  C37  1  0.82749975  0.20176760  0.43651315  1  0  0.137215  0  3.622685  0  0  0.091552  0  3.86953  0  0  0.102935  0  3.88599  0  0  0.062405  0.084397  0  3.858227  0
C  C38  1  0.00043130  0.11782537  0.77735369  1  0  0.692873  0  3.883835  0  0  0.64007  0  4.181418  0  0  0.675859  0  4.173289  0  0  0.232924  0.615676  0  4.186352  0
C  C39  1  0.99956892  0.88217728  0.22264438  1  0  0.693111  0  3.883479  0  0  0.64026  0  4.181136  0  0  0.676047  0  4.173006  0  0  0.233007  0.615866  0  4.186064  0
C  C40  1  0.57529695  0.16524766  0.13924402  1  0  0.697337  0  3.886692  0  0  0.647768  0  4.180927  0  0  0.684161  0  4.174755  0  0  0.234755  0.6228  0  4.184399  0
C  C41  1  0.42470268  0.83474764  0.86075838  1  0  0.697388  0  3.88675  0  0  0.647835  0  4.180959  0  0  0.684226  0  4.174783  0  0  0.23476  0.62286  0  4.184449  0
C  C42  1  0.50557799  0.24859352  0.22196073  1  0  -0.123477  0  3.735858  0  0  -0.097069  0  3.97392  0  0  -0.111524  0  3.996846  0  0  -0.010068  -0.088096  0  3.958947  0
C  C43  1  0.49442472  0.75140662  0.77804163  1  0  -0.123501  0  3.735944  0  0  -0.09713  0  3.974011  0  0  -0.111572  0  3.99692  0  0  -0.010088  -0.088149  0  3.959054  0
C  C44  1  0.49095336  0.41651356  0.23267185  1  0  0.009957  0  3.629322  0  0  -0.032476  0  3.876575  0  0  -0.02246  0  3.888696  0  0  -0.045945  -0.038695  0  3.868564  0
C  C45  1  0.50904673  0.58348661  0.76733025  1  0  0.010058  0  3.629348  0  0  -0.032343  0  3.876571  0  0  -0.022331  0  3.888692  0  0  -0.045875  -0.03858  0  3.868581  0
C  C46  1  0.42798097  0.49016116  0.31153148  1  0  -0.103259  0  3.698235  0  0  -0.074868  0  3.932603  0  0  -0.088825  0  3.955235  0  0  -0.004061  -0.066257  0  3.917828  0
C  C47  1  0.57202067  0.50984143  0.68847096  1  0  -0.103422  0  3.698387  0  0  -0.07501  0  3.932748  0  0  -0.088968  0  3.955382  0  0  -0.00415  -0.066397  0  3.917971  0
C  C48  1  0.38310887  0.39218900  0.37804624  1  0  0.142618  0  3.616339  0  0  0.096014  0  3.865242  0  0  0.107199  0  3.881769  0  0  0.062323  0.088888  0  3.853973  0
C  C49  1  0.61689675  0.60781353  0.62195801  1  0  0.142707  0  3.61635  0  0  0.096072  0  3.865279  0  0  0.107256  0  3.881808  0  0  0.062373  0.088954  0  3.853998  0
C  C50  1  0.45428363  0.15883362  0.29026157  1  0  0.121455  0  3.669011  0  0  0.075194  0  3.918555  0  0  0.085664  0  3.936183  0  0  0.055859  0.068661  0  3.906494  0
C  C51  1  0.54571803  0.84116895  0.70974227  1  0  0.121516  0  3.668991  0  0  0.075309  0  3.918516  0  0  0.085792  0  3.936146  0  0  0.055886  0.068771  0  3.906466  0
C  C52  1  0.40923009  0.67163398  0.32451690  1  0  0.689011  0  3.897586  0  0  0.640169  0  4.191707  0  0  0.676385  0  4.184134  0  0  0.217942  0.615349  0  4.196107  0
C  C53  1  0.59076578  0.32836382  0.67548318  1  0  0.689077  0  3.897562  0  0  0.640207  0  4.19172  0  0  0.676423  0  4.184151  0  0  0.217969  0.615405  0  4.196086  0
C  C54  1  0.06624247  0.43731168  0.01770436  1  0  0.567865  0  3.899644  0  0  0.519345  0  4.203418  0  0  0.550707  0  4.19573  0  0  0.23329  0.497791  0  4.207999  0
C  C55  1  0.93375928  0.56269340  0.98229263  1  0  0.567872  0  3.899948  0  0  0.519415  0  4.203624  0  0  0.550779  0  4.195936  0  0  0.233315  0.497854  0  4.208215  0
N  N56  1  0.19719152  0.96073047  0.56495869  1  0  -0.297955  0  3.341465  0  0  -0.203684  0  3.624193  0  0  -0.226758  0  3.641825  0  0  -0.347951  -0.188254  0  3.611763  0
N  N57  1  0.80280977  0.03926974  0.43503859  1  0  -0.297887  0  3.341529  0  0  -0.203623  0  3.624288  0  0  -0.226695  0  3.641921  0  0  -0.347922  -0.188196  0  3.611859  0
N  N58  1  0.39510722  0.22932437  0.36705798  1  0  -0.296274  0  3.342635  0  0  -0.197802  0  3.619883  0  0  -0.221312  0  3.638265  0  0  -0.347181  -0.182032  0  3.606937  0
N  N59  1  0.60489719  0.77067940  0.63294553  1  0  -0.296419  0  3.342751  0  0  -0.197941  0  3.620007  0  0  -0.221452  0  3.638383  0  0  -0.347208  -0.182168  0  3.607058  0
O  O60  1  0.01324363  0.51351942  0.70803403  1  0  -0.551638  0  2.105288  0  0  -0.499561  0  2.318919  0  0  -0.522875  0  2.302823  0  0  -0.326579  -0.483216  0  2.32962  0
O  O61  1  0.98675799  0.48648318  0.29196770  1  0  -0.55156  0  2.105415  0  0  -0.499485  0  2.319045  0  0  -0.522799  0  2.302949  0  0  -0.326535  -0.483142  0  2.329745  0
O  O62  1  0.15888425  0.45448586  0.58501987  1  0  -0.560417  0  1.917706  0  0  -0.518508  0  2.138922  0  0  -0.540895  0  2.132526  0  0  -0.287522  -0.503172  0  2.143038  0
O  O63  1  0.84111049  0.54551441  0.41497817  1  0  -0.560396  0  1.917674  0  0  -0.518499  0  2.138896  0  0  -0.540887  0  2.132502  0  0  -0.287508  -0.503168  0  2.143008  0
O  O64  1  0.88599823  0.06124704  0.81948552  1  0  -0.659929  0  2.000612  0  0  -0.613253  0  2.254761  0  0  -0.64652  0  2.247276  0  0  -0.361599  -0.589324  0  2.259055  0
O  O65  1  0.11399549  0.93875692  0.18051056  1  0  -0.66005  0  2.000533  0  0  -0.613362  0  2.254717  0  0  -0.646628  0  2.247231  0  0  -0.361637  -0.589436  0  2.259005  0
O  O66  1  0.06834975  0.26491247  0.79407911  1  0  -0.666709  0  2.01197  0  0  -0.607034  0  2.233631  0  0  -0.632442  0  2.221197  0  0  -0.312447  -0.589242  0  2.241751  0
O  O67  1  0.93165161  0.73508770  0.20592171  1  0  -0.666771  0  2.011738  0  0  -0.60708  0  2.233427  0  0  -0.632488  0  2.220994  0  0  -0.312487  -0.589292  0  2.241544  0
O  O68  1  0.63588671  0.25254449  0.08424111  1  0  -0.65933  0  1.974579  0  0  -0.611888  0  2.222968  0  0  -0.643939  0  2.213615  0  0  -0.364289  -0.588877  0  2.228658  0
O  O69  1  0.36411416  0.74745082  0.91575789  1  0  -0.65938  0  1.974625  0  0  -0.611934  0  2.222989  0  0  -0.643984  0  2.213637  0  0  -0.364312  -0.588916  0  2.228683  0
O  O70  1  0.57094017  0.00904946  0.12925840  1  0  -0.729207  0  2.047751  0  0  -0.672419  0  2.298373  0  0  -0.707143  0  2.290835  0  0  -0.377164  -0.647357  0  2.302707  0
O  O71  1  0.42906087  0.99094704  0.87074353  1  0  -0.7292  0  2.047774  0  0  -0.672436  0  2.29842  0  0  -0.707159  0  2.290881  0  0  -0.377138  -0.647372  0  2.302766  0
O  O72  1  0.41695929  0.74459340  0.25014724  1  0  -0.730262  0  2.01405  0  0  -0.680399  0  2.27633  0  0  -0.716214  0  2.266687  0  0  -0.414459  -0.654103  0  2.28177  0
O  O73  1  0.58303202  0.25539836  0.74985123  1  0  -0.730285  0  2.013918  0  0  -0.680407  0  2.276217  0  0  -0.716218  0  2.266571  0  0  -0.414481  -0.654119  0  2.28165  0
O  O74  1  0.38910627  0.73935057  0.40523195  1  0  -0.637634  0  1.978392  0  0  -0.584715  0  2.235896  0  0  -0.610559  0  2.222404  0  0  -0.319049  -0.566514  0  2.244703  0
O  O75  1  0.61088896  0.26065456  0.59476720  1  0  -0.637633  0  1.978445  0  0  -0.584706  0  2.235955  0  0  -0.610549  0  2.222461  0  0  -0.319032  -0.566505  0  2.244749  0
O  O76  1  0.00523377  0.29081911  0.00915543  1  0  -0.621274  0  2.072095  0  0  -0.569681  0  2.308403  0  0  -0.599329  0  2.298806  0  0  -0.324491  -0.548488  0  2.314487  0
O  O77  1  0.99476315  0.70917625  0.99084317  1  0  -0.621206  0  2.07241  0  0  -0.569613  0  2.308681  0  0  -0.599268  0  2.29909  0  0  -0.324446  -0.54842  0  2.314766  0
O  O78  1  0.22581633  0.49157212  0.05131320  1  0  -0.646488  0  2.056252  0  0  -0.595069  0  2.299005  0  0  -0.625959  0  2.290664  0  0  -0.344574  -0.572869  0  2.30407  0
O  O79  1  0.77417818  0.50842698  0.94867979  1  0  -0.646524  0  2.056219  0  0  -0.595125  0  2.298936  0  0  -0.626019  0  2.290594  0  0  -0.344564  -0.572921  0  2.304005  0
O  O80  1  0.77785269  0.95764009  0.99271267  1  0  -0.892794  0  1.868189  0  0  -0.844467  0  2.063457  0  0  -0.869923  0  2.028318  0  0  -0.639543  -0.825753  0  2.088276  0
O  O81  1  0.22214266  0.04235285  0.00728489  1  0  -0.892678  0  1.868187  0  0  -0.844369  0  2.063484  0  0  -0.869825  0  2.02835  0  0  -0.639505  -0.82566  0  2.088294  0
O  O82  1  0.39381507  0.33543164  0.91570292  1  0  -0.876444  0  1.862893  0  0  -0.824814  0  2.050387  0  0  -0.849631  0  2.017838  0  0  -0.622509  -0.806733  0  2.073261  0
O  O83  1  0.60619022  0.66456850  0.08429689  1  0  -0.876427  0  1.862992  0  0  -0.824779  0  2.050467  0  0  -0.849598  0  2.017918  0  0  -0.622482  -0.8067  0  2.073337  0
