# generated using pymatgen
data_CuH8C6N2O7
_symmetry_space_group_name_H-M   'P 1'
_cell_length_a   5.88553871
_cell_length_b   10.50548633
_cell_length_c   16.33605650
_cell_angle_alpha   96.06013813
_cell_angle_beta   90.00702938
_cell_angle_gamma   90.00203206
_symmetry_Int_Tables_number   1
_chemical_formula_structural   CuH8C6N2O7
_chemical_formula_sum   'Cu4 H32 C24 N8 O28'
_cell_volume   1004.42104142
_cell_formula_units_Z   4
loop_
 _symmetry_equiv_pos_site_id
 _symmetry_equiv_pos_as_xyz
  1  'x, y, z'
loop_
 _atom_site_type_symbol
 _atom_site_label
 _atom_site_symmetry_multiplicity
 _atom_site_fract_x
 _atom_site_fract_y
 _atom_site_fract_z
 _atom_site_occupancy
 _atom_site_hle17_ddec_charge
 _atom_site_hle17_ddec_spin_density
 _atom_site_hle17_ddec_sum_bond_order
 _atom_site_hle17_magmom
 _atom_site_hse06_10hf_ddec_charge
 _atom_site_hse06_10hf_ddec_spin_density
 _atom_site_hse06_10hf_ddec_sum_bond_order
 _atom_site_hse06_10hf_magmom
 _atom_site_hse06_ddec_charge
 _atom_site_hse06_ddec_spin_density
 _atom_site_hse06_ddec_sum_bond_order
 _atom_site_hse06_magmom
 _atom_site_pbe_cm5_charge
 _atom_site_pbe_ddec_charge
 _atom_site_pbe_ddec_spin_density
 _atom_site_pbe_ddec_sum_bond_order
 _atom_site_pbe_magmom
Cu  Cu0  1  0.13016049  0.89747352  0.36129117  1  0.983008  -0.735835  1.691305  -0.549  1.000651  -0.829037  2.043117  -0.678  1.085439  -0.891952  1.985979  -0.764  0.716396  0.924442  -0.778467  2.11839  -0.616
Cu  Cu1  1  0.63004032  0.10251336  0.13870616  1  0.983174  -0.736225  1.691797  -0.549  1.004575  -0.829216  2.037628  -0.678  1.085535  -0.892014  1.986295  -0.764  0.716551  0.924659  -0.779059  2.118608  -0.617
Cu  Cu2  1  0.86997050  0.10245174  0.63870787  1  0.983299  0.795231  1.691608  0.549  1.004696  0.88003  2.037543  0.678  1.085644  0.954799  1.986235  0.764  0.716706  0.924518  0.817681  2.11891  0.616
Cu  Cu3  1  0.37012807  0.89756238  0.86130776  1  0.983944  -0.735538  1.691316  -0.549  1.004656  -0.82934  2.03774  -0.678  1.085573  -0.892167  1.986406  -0.764  0.71671  0.924502  -0.778314  2.119142  -0.616
H  H4  1  0.41287930  0.43375526  0.39583483  1  0.078206  8e-05  0.90696  0.0  0.097388  3.7e-05  0.960155  0.0  0.098159  2.3e-05  0.959753  0.0  0.115299  0.096635  3.3e-05  0.960654  0.0
H  H5  1  0.91291121  0.56627532  0.10417152  1  0.078381  8.7e-05  0.906851  0.0  0.097473  5.5e-05  0.960196  0.0  0.098243  3.5e-05  0.959816  0.0  0.115291  0.096703  5.7e-05  0.960715  0.0
H  H6  1  0.58707670  0.56622957  0.60420295  1  0.078148  -8.1e-05  0.906874  0.0  0.09733  -4.1e-05  0.96013  0.0  0.098166  -2.6e-05  0.959679  0.0  0.11525  0.096548  -4.7e-05  0.960673  0.0
H  H7  1  0.08705157  0.43373069  0.89578597  1  0.078237  9.4e-05  0.906918  0.0  0.097531  6e-05  0.96003  0.0  0.098275  3.9e-05  0.959695  0.0  0.115337  0.096767  7e-05  0.96054  0.0
H  H8  1  0.34595126  0.31512737  0.46225986  1  0.07672  -6.2e-05  0.914602  0.0  0.091396  -8.8e-05  0.976994  0.0  0.091836  -5.4e-05  0.976838  0.0  0.112318  0.090773  -0.000126  0.977557  0.0
H  H9  1  0.84583622  0.68487762  0.03773916  1  0.076845  -0.000147  0.914269  0.0  0.091597  -0.000192  0.976638  0.0  0.092047  -0.000128  0.976514  0.0  0.112332  0.090968  -0.000258  0.977204  0.0
H  H10  1  0.65403702  0.68485074  0.53777694  1  0.076818  8.3e-05  0.91465  0.0  0.091488  0.000111  0.977071  0.0  0.09195  6.9e-05  0.976939  0.0  0.112341  0.090857  0.000155  0.977662  0.0
H  H11  1  0.15414185  0.31513496  0.96221501  1  0.076881  -0.000153  0.914385  0.0  0.091558  -0.000204  0.976821  0.0  0.092015  -0.000135  0.976686  0.0  0.112344  0.090926  -0.000272  0.977402  0.0
H  H12  1  0.74601698  0.30791726  0.34063058  1  0.09331  -7.9e-05  0.906919  0.0  0.107473  -3.6e-05  0.965923  0.0  0.10841  -2.4e-05  0.965681  0.0  0.115846  0.106632  -4.7e-05  0.966259  0.0
H  H13  1  0.24596212  0.69224561  0.15938370  1  0.093487  0.00011  0.906822  0.0  0.107657  8e-05  0.965783  0.0  0.108606  6.6e-05  0.96552  0.0  0.115942  0.106826  8.6e-05  0.966098  0.0
H  H14  1  0.25397640  0.69209237  0.65940608  1  0.093429  0.0001  0.907104  0.0  0.107597  7e-05  0.966007  0.0  0.108526  5.1e-05  0.965789  0.0  0.115871  0.106758  8.9e-05  0.966333  0.0
H  H15  1  0.75400067  0.30776458  0.84058442  1  0.093149  8.1e-05  0.90716  0.0  0.107435  4.7e-05  0.966013  0.0  0.108373  4e-05  0.965769  0.0  0.115853  0.106591  4.6e-05  0.966345  0.0
H  H16  1  0.66673435  0.17673491  0.39685133  1  0.104317  0.000127  0.920908  0.0  0.115012  0.00014  0.98436  0.0  0.116337  9.8e-05  0.983509  0.0  0.117258  0.113834  0.000168  0.985275  0.0
H  H17  1  0.16660844  0.82334493  0.10310301  1  0.104535  -0.000281  0.921167  0.0  0.115142  -0.000255  0.98463  0.0  0.116413  -0.000161  0.983866  0.0  0.117223  0.113962  -0.000343  0.985557  0.0
H  H18  1  0.33326752  0.82325256  0.60317986  1  0.104257  -0.000119  0.921158  0.0  0.11496  -0.000132  0.984485  0.0  0.116287  -9.1e-05  0.983639  0.0  0.117251  0.113779  -0.000159  0.985414  0.0
H  H19  1  0.83336453  0.17666399  0.89685585  1  0.104459  -0.000275  0.920858  0.0  0.114909  -0.000252  0.984628  0.0  0.116167  -0.000162  0.983888  0.0  0.117162  0.113764  -0.000338  0.985523  0.0
H  H20  1  0.25940202  0.30295155  0.28271215  1  0.32027  -0.00043  0.852083  -0.001  0.304905  -0.000405  0.905997  -0.001  0.313553  -0.000271  0.898782  -0.001  0.329316  0.29848  -0.000547  0.911601  -0.001
H  H21  1  0.75943952  0.69704526  0.21729802  1  0.320366  -0.000427  0.851848  -0.001  0.304823  -0.000403  0.905967  -0.001  0.313499  -0.000271  0.898698  -0.001  0.329236  0.29842  -0.000545  0.911526  -0.001
H  H22  1  0.74044864  0.69705499  0.71734639  1  0.320285  0.000429  0.851979  0.001  0.304669  0.000345  0.906225  0.001  0.313325  0.000246  0.899014  0.001  0.32913  0.29823  0.000436  0.911866  0.001
H  H23  1  0.24039413  0.30292204  0.78264451  1  0.320206  -0.000387  0.85225  -0.001  0.30477  -0.000318  0.906308  -0.001  0.313434  -0.000227  0.899078  -0.001  0.329112  0.298325  -0.000406  0.911951  -0.001
H  H24  1  0.87201094  0.42488553  0.46244731  1  0.302932  0.000213  0.941457  0.001  0.279156  0.00017  1.018079  0.001  0.288241  0.000148  1.010918  0.001  0.306826  0.272659  0.000153  1.023228  0.001
H  H25  1  0.37187882  0.57516453  0.03756812  1  0.302939  -0.000628  0.941217  -0.001  0.279143  -0.000521  1.017773  -0.001  0.28822  -0.000314  1.010611  -0.001  0.306936  0.272657  -0.000749  1.022921  -0.001
H  H26  1  0.12792636  0.57511504  0.53760417  1  0.302586  -0.000157  0.941732  -0.001  0.27895  -0.00014  1.018113  -0.001  0.288032  -0.000126  1.01095  -0.001  0.306854  0.272448  -0.000117  1.023256  -0.001
H  H27  1  0.62801940  0.42483085  0.96238573  1  0.302832  -0.000628  0.94154  -0.001  0.27907  -0.000521  1.017991  -0.001  0.288145  -0.000313  1.010837  -0.001  0.306838  0.272568  -0.000749  1.023142  -0.001
H  H28  1  0.72828954  0.93137262  0.48099826  1  0.429508  -5.1e-05  0.857512  0.0  0.406925  4e-06  0.909166  0.0  0.417744  -1.9e-05  0.892971  0.0  0.29594  0.399259  3.1e-05  0.92056  0.0
H  H29  1  0.22814989  0.06866326  0.01900105  1  0.429533  8.7e-05  0.857679  0.0  0.407075  5.6e-05  0.908913  0.0  0.417814  7.2e-05  0.892834  0.0  0.296218  0.399347  2.1e-05  0.920393  0.0
H  H30  1  0.27175989  0.06857515  0.51898853  1  0.429616  5.7e-05  0.857718  0.0  0.407042  7e-06  0.909093  0.0  0.417816  2.5e-05  0.892959  0.0  0.295963  0.399304  -2.3e-05  0.920588  0.0
H  H31  1  0.77192504  0.93145019  0.98099838  1  0.429614  9.3e-05  0.857777  0.0  0.407025  6.1e-05  0.909057  0.0  0.417779  7.5e-05  0.892951  0.0  0.296098  0.399276  2.9e-05  0.920563  0.0
H  H32  1  0.65221604  0.89702842  0.38851091  1  0.419191  9.6e-05  0.882789  0.0  0.395071  7.7e-05  0.937851  0.0  0.405303  6e-05  0.922622  0.0  0.287461  0.387815  8.1e-05  0.948496  0.0
H  H33  1  0.15206060  0.10301712  0.11148381  1  0.419269  0.000108  0.882602  0.0  0.39505  8e-05  0.937851  0.0  0.405242  6.1e-05  0.922658  0.0  0.287563  0.38775  8.2e-05  0.948538  0.0
H  H34  1  0.34785718  0.10293855  0.61147875  1  0.419304  5.8e-05  0.882688  0.0  0.395202  -2.2e-05  0.937732  0.0  0.405386  -9e-06  0.922549  0.0  0.287524  0.387898  -4e-05  0.948424  0.0
H  H35  1  0.84801263  0.89706469  0.88851207  1  0.419421  -4.3e-05  0.882499  0.0  0.395064  2.6e-05  0.937912  0.0  0.405253  1.1e-05  0.922726  0.0  0.287486  0.387759  4.4e-05  0.948611  0.0
C  C36  1  0.07074170  0.08992455  0.26328464  1  0.560067  0.00297  3.931358  0.004  0.518377  -0.00048  4.239249  0.0  0.551721  -0.000216  4.231596  0.0  0.214702  0.495645  -0.000733  4.240656  0.0
C  C37  1  0.57072232  0.91007417  0.23673405  1  0.560321  0.002965  3.930689  0.004  0.518307  -0.000482  4.239253  0.0  0.551687  -0.000216  4.23143  0.0  0.214825  0.495586  -0.000738  4.240459  0.0
C  C38  1  0.92920580  0.91004900  0.73675865  1  0.561599  -0.001674  3.929347  -0.003  0.51933  0.001352  4.238098  0.0  0.552687  0.000895  4.230157  0.0  0.215259  0.496565  0.00176  4.239236  0.001
C  C39  1  0.42924046  0.08994653  0.76323402  1  0.561256  0.002203  3.929431  0.003  0.519139  -0.001127  4.237996  0.0  0.552488  -0.000704  4.230061  0.0  0.215239  0.496378  -0.001544  4.239123  -0.001
C  C40  1  0.20371358  0.14701748  0.33890499  1  0.438381  0.003346  3.812066  0.005  0.391548  -2.4e-05  4.105107  0.002  0.419052  8.1e-05  4.104991  0.001  0.243716  0.372696  -0.000118  4.103984  0.002
C  C41  1  0.70364454  0.85297118  0.16109805  1  0.437931  0.003385  3.811938  0.005  0.391057  -2.2e-05  4.105472  0.002  0.418574  9e-05  4.104942  0.001  0.243601  0.372292  -0.00012  4.103833  0.002
C  C42  1  0.79633926  0.85294744  0.66110905  1  0.437312  -0.003038  3.812741  -0.005  0.390997  0.000102  4.10557  -0.002  0.418436  4.4e-05  4.105221  -0.001  0.243766  0.372256  0.000119  4.10396  -0.002
C  C43  1  0.29638961  0.14706045  0.83888286  1  0.437914  0.003548  3.811994  0.005  0.39142  0.000107  4.104891  0.002  0.418894  0.000151  4.104488  0.001  0.243776  0.372669  7.7e-05  4.103294  0.002
C  C44  1  0.41827958  0.33086245  0.40211823  1  0.048995  -0.000256  3.598899  0.0  -0.013284  -0.000315  3.866618  0.0  -0.007714  -0.000239  3.875397  0.0  -0.047827  -0.01688  -0.000377  3.860904  0.0
C  C45  1  0.91824910  0.66916605  0.09787967  1  0.048866  -0.000162  3.598169  0.0  -0.013627  -0.000315  3.866053  0.0  -0.008132  -0.000205  3.874954  0.0  -0.047957  -0.017221  -0.000406  3.860351  0.0
C  C46  1  0.58167811  0.66912126  0.59791459  1  0.048946  0.000275  3.598652  0.0  -0.013524  0.000336  3.866588  0.0  -0.008101  0.00026  3.875556  0.0  -0.048  -0.017129  0.000389  3.860922  0.0
C  C47  1  0.08171368  0.33084287  0.90207920  1  0.048805  -0.000167  3.59864  0.0  -0.013615  -0.00031  3.866669  0.0  -0.008121  -0.000205  3.875612  0.0  -0.048038  -0.017237  -0.000392  3.861011  0.0
C  C48  1  0.66495768  0.28127732  0.39684073  1  0.01991  0.000561  3.572922  0.0  -0.036682  0.000515  3.832252  0.0  -0.032934  0.000394  3.842865  0.0  -0.055781  -0.039031  0.000604  3.825515  0.0
C  C49  1  0.16489182  0.71881140  0.10315136  1  0.019269  -0.000172  3.573528  0.0  -0.037251  -0.000361  3.832988  0.0  -0.033447  -0.000219  3.843578  0.0  -0.055984  -0.039612  -0.000477  3.826252  0.0
C  C50  1  0.33502041  0.71871777  0.60318964  1  0.019439  -0.000415  3.574204  0.0  -0.036965  -0.000442  3.83317  0.0  -0.03322  -0.000331  3.84383  0.0  -0.055844  -0.039303  -0.000529  3.826407  0.0
C  C51  1  0.83511174  0.28119451  0.89680305  1  0.019977  -0.000236  3.572858  0.0  -0.036778  -0.000401  3.832425  0.0  -0.032965  -0.000256  3.843038  0.0  -0.055773  -0.039157  -0.000519  3.825697  0.0
C  C52  1  0.82074850  0.28018022  0.53493274  1  0.410902  -0.004157  3.816441  -0.007  0.368352  -0.000335  4.106594  -0.002  0.39576  -0.000274  4.107844  -0.002  0.23728  0.350065  -0.00039  4.102914  -0.003
C  C53  1  0.32072358  0.71986177  0.96509146  1  0.410859  0.004838  3.816777  0.007  0.368268  0.000589  4.106861  0.002  0.395673  0.000514  4.108128  0.002  0.237438  0.349982  0.000634  4.103167  0.003
C  C54  1  0.17926696  0.71978453  0.46510456  1  0.411293  0.004754  3.816089  0.007  0.368954  0.000574  4.1055  0.002  0.396342  0.000492  4.107135  0.002  0.237552  0.35064  0.000616  4.102276  0.003
C  C55  1  0.67931566  0.28015913  0.03488276  1  0.410994  0.004835  3.815998  0.007  0.368199  0.000591  4.106123  0.002  0.395594  0.000514  4.107401  0.002  0.23725  0.349919  0.000633  4.102487  0.003
C  C56  1  0.96172271  0.34707150  0.60654949  1  0.542063  -0.001751  3.971774  -0.003  0.504152  0.001234  4.279274  0.0  0.53647  0.000775  4.271499  0.0  0.204355  0.482175  0.001648  4.281909  0.0
C  C57  1  0.46161822  0.65290702  0.89348468  1  0.542783  0.002288  3.970859  0.003  0.504694  -0.000995  4.278442  0.0  0.536997  -0.000572  4.270677  0.0  0.204832  0.482735  -0.001427  4.281059  -0.001
C  C58  1  0.03830125  0.65288201  0.39349455  1  0.541972  0.002309  3.972019  0.003  0.504098  -0.000983  4.278972  0.0  0.536439  -0.000565  4.271455  0.0  0.204437  0.48216  -0.001405  4.281896  0.0
C  C59  1  0.53839384  0.34713517  0.10649741  1  0.541938  0.002269  3.971506  0.003  0.504034  -0.001002  4.278948  0.0  0.536348  -0.000576  4.271175  0.0  0.204624  0.48208  -0.00144  4.281612  -0.001
N  N60  1  0.27721159  0.26594715  0.33781744  1  -0.348418  0.000333  3.323096  0.0  -0.289289  -0.000485  3.568522  0.0  -0.308445  -5.3e-05  3.576357  0.0  -0.391443  -0.276633  -0.000914  3.563648  -0.001
N  N61  1  0.77716790  0.73405739  0.16218411  1  -0.348316  0.000342  3.322834  0.0  -0.288774  -0.000424  3.568057  0.0  -0.307916  -7e-06  3.575899  0.0  -0.391082  -0.27616  -0.000853  3.563135  -0.001
N  N62  1  0.72277159  0.73403289  0.66222007  1  -0.347911  0.000224  3.322955  0.0  -0.288519  0.000787  3.568057  0.001  -0.307666  0.000321  3.576032  0.0  -0.391096  -0.275955  0.001218  3.563251  0.001
N  N63  1  0.22278468  0.26595640  0.83777747  1  -0.347865  6e-06  3.323155  0.0  -0.288808  -0.000619  3.568486  -0.001  -0.307964  -0.000185  3.576414  0.0  -0.390998  -0.276245  -0.001047  3.563687  -0.001
N  N64  1  0.79496882  0.33773932  0.46727818  1  -0.363892  0.000591  3.366186  0.0  -0.306368  0.000979  3.613976  0.001  -0.327568  0.000445  3.625182  0.0  -0.399146  -0.292563  0.00137  3.606941  0.001
N  N65  1  0.29486877  0.66230814  0.03273809  1  -0.363776  -0.001104  3.366794  -0.002  -0.306106  -0.001326  3.61449  -0.002  -0.327286  -0.000588  3.625697  -0.001  -0.399161  -0.292336  -0.001946  3.607451  -0.002
N  N66  1  0.20499398  0.66224572  0.53276573  1  -0.363454  -0.000372  3.366856  0.0  -0.30595  -0.000851  3.614261  -0.001  -0.327091  -0.00034  3.625407  0.0  -0.399257  -0.292112  -0.001239  3.607175  -0.001
N  N67  1  0.70509401  0.33769221  0.96722154  1  -0.364032  -0.00109  3.366118  -0.002  -0.305976  -0.001325  3.613395  -0.002  -0.327149  -0.000585  3.624591  -0.001  -0.399285  -0.292213  -0.001947  3.606386  -0.002
O  O68  1  0.01478590  0.16013431  0.20956135  1  -0.571582  -0.021017  2.012979  -0.029  -0.553289  -0.007792  2.25402  -0.012  -0.577083  -0.002891  2.241528  -0.005  -0.293774  -0.531468  -0.014396  2.260874  -0.02
O  O69  1  0.51480901  0.83986103  0.29044986  1  -0.571647  -0.020994  2.013074  -0.029  -0.552674  -0.007791  2.254098  -0.012  -0.577035  -0.002889  2.241728  -0.005  -0.293838  -0.531424  -0.014404  2.261092  -0.02
O  O70  1  0.98506986  0.83983665  0.79049037  1  -0.57263  0.024054  2.012284  0.027  -0.553401  0.01004  2.252967  0.012  -0.577197  0.005146  2.240488  0.006  -0.294168  -0.531818  0.016155  2.259995  0.019
O  O71  1  0.48505183  0.16014954  0.70950114  1  -0.572258  -0.022253  2.012715  -0.027  -0.553462  -0.009445  2.253642  -0.012  -0.577263  -0.004784  2.241161  -0.006  -0.294183  -0.531889  -0.015369  2.260672  -0.019
O  O72  1  0.02588534  0.97039576  0.26316498  1  -0.564785  -0.070204  2.11425  -0.096  -0.538288  -0.044391  2.389724  -0.066  -0.578859  -0.033653  2.384269  -0.052  -0.309847  -0.50771  -0.050805  2.393582  -0.072
O  O73  1  0.52587066  0.02960795  0.23683246  1  -0.56484  -0.070203  2.114083  -0.096  -0.539085  -0.044385  2.389484  -0.066  -0.578779  -0.033643  2.384195  -0.052  -0.309863  -0.507635  -0.050834  2.39349  -0.072
O  O74  1  0.97400949  0.02959083  0.73686860  1  -0.565346  0.076939  2.113766  0.097  -0.539884  0.047849  2.389674  0.066  -0.57958  0.036733  2.384352  0.053  -0.310224  -0.508338  0.054275  2.393688  0.073
O  O75  1  0.47404454  0.97039616  0.76312554  1  -0.565666  -0.071085  2.113773  -0.097  -0.539794  -0.044988  2.389248  -0.066  -0.579506  -0.034133  2.383932  -0.053  -0.310175  -0.508233  -0.051619  2.393253  -0.073
O  O76  1  0.23424024  0.07934303  0.39766565  1  -0.518193  -0.062323  2.090833  -0.084  -0.485944  -0.042812  2.351853  -0.062  -0.520503  -0.032374  2.343594  -0.05  -0.281597  -0.459601  -0.050256  2.35813  -0.07
O  O77  1  0.73408596  0.92065367  0.10232934  1  -0.518139  -0.062425  2.090524  -0.084  -0.486814  -0.04287  2.351492  -0.063  -0.52055  -0.032405  2.343337  -0.05  -0.281783  -0.459663  -0.050375  2.357746  -0.07
O  O78  1  0.76591624  0.92059249  0.60232599  1  -0.517967  0.066985  2.091322  0.084  -0.486833  0.045162  2.352183  0.062  -0.520541  0.034596  2.344042  0.05  -0.281873  -0.459731  0.052299  2.358525  0.069
O  O79  1  0.26608072  0.07940253  0.89767189  1  -0.518674  -0.061918  2.091059  -0.084  -0.487043  -0.042499  2.351593  -0.062  -0.520762  -0.032168  2.343452  -0.05  -0.281919  -0.459963  -0.049802  2.358003  -0.069
O  O80  1  0.73312443  0.17239174  0.54377738  1  -0.499543  0.076782  2.126372  0.096  -0.472655  0.049495  2.394523  0.068  -0.509278  0.037871  2.388864  0.054  -0.290836  -0.443855  0.056641  2.399094  0.075
O  O81  1  0.23322179  0.82767187  0.95623626  1  -0.49964  -0.07096  2.126882  -0.096  -0.472532  -0.046554  2.394945  -0.068  -0.509147  -0.035207  2.389303  -0.054  -0.290949  -0.443773  -0.053915  2.39954  -0.075
O  O82  1  0.26698448  0.82754177  0.45623986  1  -0.499557  -0.070834  2.125617  -0.095  -0.472206  -0.046527  2.394225  -0.068  -0.509611  -0.035192  2.388327  -0.054  -0.290977  -0.444374  -0.05379  2.398741  -0.075
O  O83  1  0.76694828  0.17237655  0.04376087  1  -0.499795  -0.07094  2.126434  -0.096  -0.472647  -0.046573  2.394534  -0.068  -0.50927  -0.035215  2.388896  -0.054  -0.290823  -0.444039  -0.053909  2.399189  -0.075
O  O84  1  0.97583188  0.28241101  0.66872717  1  -0.558085  0.082516  2.037121  0.104  -0.541178  0.052957  2.297499  0.074  -0.579028  0.040117  2.288362  0.059  -0.31445  -0.511804  0.060502  2.305287  0.082
O  O85  1  0.47586159  0.71756670  0.83130206  1  -0.559145  -0.076268  2.036598  -0.104  -0.541885  -0.049793  2.29685  -0.074  -0.579715  -0.037273  2.287684  -0.059  -0.31483  -0.512536  -0.057569  2.304671  -0.082
O  O86  1  0.02419548  0.71750756  0.33130028  1  -0.558447  -0.076104  2.036841  -0.104  -0.540719  -0.04978  2.297403  -0.074  -0.579358  -0.037267  2.287989  -0.059  -0.314732  -0.51226  -0.057475  2.304947  -0.082
O  O87  1  0.52424562  0.28248154  0.16868956  1  -0.558542  -0.076129  2.036852  -0.104  -0.541665  -0.049771  2.297238  -0.074  -0.579482  -0.037258  2.288068  -0.059  -0.314915  -0.512447  -0.057526  2.305067  -0.082
O  O88  1  0.04565332  0.45476392  0.60093971  1  -0.551877  0.022078  1.972863  0.027  -0.523469  0.009218  2.197707  0.012  -0.546588  0.003984  2.188504  0.006  -0.308719  -0.506246  0.015241  2.202834  0.02
O  O89  1  0.54538486  0.54520782  0.89910498  1  -0.551694  -0.020496  1.973142  -0.027  -0.523327  -0.008797  2.198145  -0.013  -0.546434  -0.003771  2.188939  -0.006  -0.308819  -0.506115  -0.014701  2.20327  -0.02
O  O90  1  0.95431797  0.54521023  0.39912136  1  -0.551933  -0.02029  1.973353  -0.027  -0.523424  -0.008642  2.198163  -0.012  -0.546493  -0.003667  2.188915  -0.006  -0.308635  -0.506202  -0.014438  2.203263  -0.02
O  O91  1  0.45452864  0.45480132  0.10083186  1  -0.551595  -0.020396  1.973553  -0.027  -0.523005  -0.008783  2.198334  -0.013  -0.546107  -0.003766  2.189125  -0.006  -0.308678  -0.505854  -0.01465  2.20349  -0.02
O  O92  1  0.77351089  0.93653014  0.42393781  1  -0.851021  0.002229  1.853315  0.001  -0.821574  0.001596  2.024057  0.001  -0.839922  0.001482  1.99002  0.001  -0.60311  -0.804835  0.001622  2.049096  0.001
O  O93  1  0.27334847  0.06351270  0.07606871  1  -0.851056  0.001143  1.853433  0.0  -0.822257  0.001257  2.023894  0.001  -0.839941  0.00146  1.990308  0.001  -0.603424  -0.804853  0.000744  2.04935  0.0
O  O94  1  0.22652835  0.06346451  0.57605090  1  -0.851367  -0.002189  1.853574  -0.002  -0.822512  -0.001474  2.023688  -0.001  -0.840187  -0.001343  1.990058  -0.001  -0.603312  -0.805106  -0.001649  2.049236  -0.001
O  O95  1  0.72672136  0.93657109  0.92392911  1  -0.851579  0.001267  1.853743  0.0  -0.822304  0.001219  2.024149  0.0  -0.840011  0.001416  1.990573  0.001  -0.60331  -0.804922  0.000844  2.049776  0.0
