# generated using pymatgen
data_Al6H68C99Br3N3O28
_symmetry_space_group_name_H-M   'P 1'
_cell_length_a   12.78508996
_cell_length_b   13.03188628
_cell_length_c   27.61826405
_cell_angle_alpha   89.74125762
_cell_angle_beta   89.31847382
_cell_angle_gamma   120.02834865
_symmetry_Int_Tables_number   1
_chemical_formula_structural   Al6H68C99Br3N3O28
_chemical_formula_sum   'Al6 H68 C99 Br3 N3 O28'
_cell_volume   3983.37753834
_cell_formula_units_Z   1
loop_
 _symmetry_equiv_pos_site_id
 _symmetry_equiv_pos_as_xyz
  1  'x, y, z'
loop_
 _atom_site_type_symbol
 _atom_site_label
 _atom_site_symmetry_multiplicity
 _atom_site_fract_x
 _atom_site_fract_y
 _atom_site_fract_z
 _atom_site_occupancy
 _atom_site_pbe_bader_charge
 _atom_site_pbe_bader_spin_density
 _atom_site_pbe_cm5_charge
 _atom_site_pbe_ddec_charge
 _atom_site_pbe_ddec_spin_density
 _atom_site_pbe_ddec_sum_bond_order
 _atom_site_pbe_magmom
Al  Al0  1  0.15196300  0.55628231  0.50422266  1  2.499127  0  0.393506  1.689222  0  2.559479  0
Al  Al1  1  0.42031761  0.59770788  0.50345097  1  2.477805  0  0.50195  1.65975  0  2.513822  0
Al  Al2  1  0.39033600  0.81015704  0.49933210  1  2.476498  0  0.497899  1.658443  0  2.520809  0
Al  Al3  1  0.16114852  0.07031232  0.01540961  1  2.499286  0  0.39405  1.685761  0  2.563553  0
Al  Al4  1  0.90912145  0.06776625  0.01902851  1  2.481472  0  0.506037  1.658376  0  2.510695  0
Al  Al5  1  0.90050294  0.83368064  0.01664800  1  2.472874  0  0.506791  1.661029  0  2.50904  0
H  H6  1  0.57315841  0.94170512  0.81214258  1  0.042999  0  0.097951  0.098228  0  0.974789  0
H  H7  1  0.03493246  0.63638737  0.80026841  1  0.040679  0  0.096009  0.095948  0  0.976235  0
H  H8  1  0.33488798  0.38917814  0.81984383  1  0.051749  0  0.099114  0.101012  0  0.973015  0
H  H9  1  0.45149246  0.79141962  0.73064265  1  0.02146  0  0.090701  0.085396  0  1.001445  0
H  H10  1  0.23156191  0.70779572  0.72788779  1  0.013758  0  0.090044  0.083289  0  1.001274  0
H  H11  1  0.34308991  0.52274549  0.73492241  1  0.00904  0  0.090234  0.084371  0  1.007615  0
H  H12  1  0.48185912  0.78579239  0.81386126  1  0.022196  0  0.094798  0.092997  0  0.979635  0
H  H13  1  0.19146643  0.70607590  0.81102210  1  0.039215  0  0.094127  0.092859  0  0.981291  0
H  H14  1  0.28377475  0.49211281  0.81673850  1  0.029566  0  0.093722  0.092246  0  0.980156  0
H  H15  1  0.73282300  0.72164878  0.79335965  1  0.046  0  0.093469  0.091176  0  0.995028  0
H  H16  1  0.24976866  0.01690688  0.79732741  1  0.026925  0  0.093888  0.092213  0  0.99029  0
H  H17  1  0.96308618  0.27039866  0.78819158  1  0.022178  0  0.092622  0.090517  0  0.985639  0
H  H18  1  0.70773845  0.02203152  0.13729056  1  0.116189  0  0.101467  0.10881  0  1.041358  0
H  H19  1  0.93121259  0.66313290  0.13811952  1  0.097612  0  0.096766  0.106001  0  1.045147  0
H  H20  1  0.28445093  0.24562082  0.13514959  1  0.125143  0  0.1065  0.120684  0  1.030927  0
H  H21  1  0.63841079  0.08879607  0.30186791  1  0.047153  0  0.101849  0.101407  0  1.028711  0
H  H22  1  0.90172483  0.50842723  0.29833513  1  0.074671  0  0.097781  0.102173  0  1.069701  0
H  H23  1  0.47226292  0.37174655  0.28946560  1  0.073676  0  0.100625  0.105862  0  1.055923  0
H  H24  1  0.70670166  0.69161455  0.14081198  1  0.131634  0  0.112578  0.122902  0  0.993596  0
H  H25  1  0.26320508  0.99680600  0.13582301  1  0.086692  0  0.116041  0.130934  0  0.988094  0
H  H26  1  0.94080200  0.22671149  0.15199240  1  0.088858  0  0.10486  0.112244  0  1.01396  0
H  H27  1  0.66054545  0.57542899  0.21682590  1  0.093072  0  0.08265  0.080858  0  1.090261  0
H  H28  1  0.38905952  0.06782992  0.20799755  1  0.072298  0  0.081134  0.079094  0  1.093503  0
H  H29  1  0.88139213  0.27643811  0.22944669  1  0.095848  0  0.078321  0.075902  0  1.106498  0
H  H30  1  0.62677408  0.56068140  0.30574031  1  0.053786  0  0.096926  0.094788  0  1.024226  0
H  H31  1  0.42350840  0.04137076  0.29418847  1  0.028212  0  0.092157  0.090485  0  1.020606  0
H  H32  1  0.92551198  0.33747878  0.31517319  1  0.043083  0  0.092078  0.087302  0  1.031123  0
H  H33  1  0.55485035  0.94520054  0.72792909  1  0.039596  0  0.095014  0.093372  0  0.981233  0
H  H34  1  0.07472935  0.63131683  0.71746870  1  0.035423  0  0.096215  0.095157  0  0.982282  0
H  H35  1  0.37403680  0.40492745  0.73602537  1  0.04467  0  0.095249  0.095506  0  0.972786  0
H  H36  1  0.58869784  0.64022481  0.38090871  1  0.072314  0  0.104213  0.108095  0  1.032307  0
H  H37  1  0.35666957  0.92147530  0.36934878  1  0.110174  0  0.104113  0.110897  0  1.012589  0
H  H38  1  0.06688397  0.40456911  0.38289388  1  0.087428  0  0.10934  0.117312  0  1.020576  0
H  H39  1  0.83020547  0.92004830  0.70564562  1  0.025511  0  0.09443  0.093932  0  0.983275  0
H  H40  1  0.04909364  0.90287857  0.69893531  1  0.037311  0  0.093468  0.091125  0  0.984709  0
H  H41  1  0.05834148  0.16766184  0.70780789  1  0.051649  0  0.093756  0.093279  0  0.982165  0
H  H42  1  0.77692283  0.02166331  0.70780163  1  0.04001  0  0.095032  0.093686  0  0.980478  0
H  H43  1  0.96637290  0.74657859  0.70284377  1  0.052899  0  0.095158  0.093814  0  0.978073  0
H  H44  1  0.20835483  0.19602911  0.71149146  1  0.012059  0  0.09335  0.090197  0  0.988169  0
H  H45  1  0.79689408  0.03511613  0.79217927  1  0.022938  0  0.094935  0.092917  0  0.983981  0
H  H46  1  0.93540533  0.76014162  0.78587212  1  0.051575  0  0.093642  0.090326  0  0.993126  0
H  H47  1  0.19488699  0.17716256  0.79634137  1  0.022496  0  0.094881  0.093108  0  0.986521  0
H  H48  1  0.86475369  0.94606300  0.78877900  1  0.029909  0  0.09216  0.086052  0  1.018393  0
H  H49  1  0.02540990  0.91620954  0.78243840  1  0.014266  0  0.09192  0.088303  0  1.004259  0
H  H50  1  0.03841306  0.12258334  0.79094516  1  0.028479  0  0.091461  0.086044  0  1.018881  0
H  H51  1  0.53191644  0.64687825  0.72504071  1  0.050729  0  0.091878  0.087817  0  1.015491  0
H  H52  1  0.35108736  0.93313643  0.72255978  1  0.028454  0  0.092176  0.089781  0  1.000639  0
H  H53  1  0.12979312  0.47916754  0.72656502  1  0.050255  0  0.092077  0.089817  0  1.004435  0
H  H54  1  0.68537168  0.70017332  0.71093888  1  0.044763  0  0.095544  0.095786  0  0.975907  0
H  H55  1  0.27453462  0.01252057  0.71315777  1  0.020498  0  0.092847  0.091064  0  0.983981  0
H  H56  1  0.01507727  0.33897413  0.70769365  1  0.028935  0  0.095897  0.096337  0  0.975936  0
H  H57  1  0.57739900  0.65603137  0.80738094  1  0.045014  0  0.096884  0.098917  0  0.974989  0
H  H58  1  0.31933245  0.93112943  0.80646857  1  0.028007  0  0.095522  0.096595  0  0.97575  0
H  H59  1  0.05788807  0.41823571  0.80612954  1  0.039853  0  0.095385  0.096116  0  0.982277  0
H  H60  1  0.70175688  0.09717460  0.36425169  1  0.432034  0  0.311847  0.246609  0  0.966455  0
H  H61  1  0.65927051  0.05159004  0.46225641  1  0.080498  0  0.104535  0.113507  0  0.995113  0
H  H62  1  0.80163742  0.15043578  0.43384471  1  0.046503  0  0.111935  0.120755  0  0.97236  0
H  H63  1  0.76005548  0.00028518  0.44656512  1  0.057626  0  0.108468  0.115459  0  0.980501  0
H  H64  1  0.02550910  0.58208760  0.42107469  1  0.530773  0  0.31269  0.270258  0  1.01564  0
H  H65  1  0.82814268  0.47548803  0.41754383  1  0.091227  0  0.111796  0.122641  0  0.976062  0
H  H66  1  0.84328061  0.42273262  0.36040088  1  0.018219  0  0.08868  0.080081  0  1.025025  0
H  H67  1  0.82550088  0.55008109  0.36329225  1  0.019056  0  0.101013  0.106457  0  0.995001  0
H  H68  1  0.42545811  0.43010635  0.41455233  1  0.49704  0  0.304877  0.257065  0  1.015807  0
H  H69  1  0.50177206  0.30860054  0.40839395  1  0.029767  0  0.108421  0.113965  0  0.97315  0
H  H70  1  0.56287917  0.37575705  0.35112777  1  0.029341  0  0.091797  0.088481  0  1.012845  0
H  H71  1  0.41795525  0.24484375  0.35499898  1  0.074361  0  0.106523  0.116625  0  0.989302  0
H  H72  1  0.94895212  0.45759219  0.53094112  1  0.582668  0  0.292228  0.379715  0  0.927777  0
H  H73  1  0.35859432  0.14877941  0.98435758  1  0.58308  0  0.289539  0.379239  0  0.928792  0
C  C74  1  0.21068662  0.76102174  0.56861810  1  1.665103  0  0.277767  0.726671  0  4.146404  0
C  C75  1  0.25560283  0.45011751  0.57278744  1  1.632856  0  0.278654  0.725847  0  4.145236  0
C  C76  1  0.53833016  0.79057162  0.57062784  1  1.636613  0  0.280295  0.730353  0  4.139605  0
C  C77  1  0.65193322  0.72839756  0.78667027  1  -0.049814  0  -0.152982  -0.185799  0  3.837965  0
C  C78  1  0.24776647  0.93504186  0.78633440  1  -0.024598  0  -0.152684  -0.184621  0  3.838929  0
C  C79  1  0.05578506  0.34582935  0.78514515  1  -0.021754  0  -0.155073  -0.189571  0  3.855174  0
C  C80  1  0.62377252  0.71927483  0.73199112  1  -0.05022  0  -0.154479  -0.187405  0  3.840719  0
C  C81  1  0.26712711  0.93353632  0.73100088  1  -0.001859  0  -0.154729  -0.188059  0  3.850208  0
C  C82  1  0.09284673  0.38343283  0.73168881  1  -0.039465  0  -0.154164  -0.187869  0  3.843527  0
C  C83  1  0.69729937  0.85772183  0.85808781  1  -0.392408  0  -0.011577  -0.018819  0  3.998573  0
C  C84  1  0.10387048  0.83220140  0.85356433  1  -0.214098  0  -0.021587  -0.037303  0  4.033929  0
C  C85  1  0.11708965  0.28270797  0.85948191  1  -0.504546  0  -0.020229  -0.036134  0  4.024414  0
C  C86  1  0.61201726  0.82921821  0.66124950  1  -0.440322  0  -0.006919  -0.006803  0  3.994729  0
C  C87  1  0.17752591  0.81323379  0.65763842  1  -0.194615  0  -0.015594  -0.02193  0  4.023556  0
C  C88  1  0.21727176  0.37877765  0.66424424  1  -0.020586  0  -0.013639  -0.019278  0  4.016275  0
C  C89  1  0.58758145  0.81945309  0.61845781  1  0.176283  0  -0.052625  -0.231748  0  3.96656  0
C  C90  1  0.18909529  0.79624878  0.61518908  1  -0.108714  0  -0.053312  -0.227873  0  3.981813  0
C  C91  1  0.23678312  0.40286970  0.62130495  1  -0.229718  0  -0.053484  -0.228997  0  3.976281  0
C  C92  1  0.08203962  0.18733717  0.08885637  1  1.55284  0  0.274799  0.640487  0  4.081775  0
C  C93  1  0.75832314  0.88042614  0.08373782  1  1.535101  0  0.281271  0.652891  0  4.064107  0
C  C94  1  0.07070321  0.86010491  0.08333754  1  1.539708  0  0.274546  0.642792  0  4.08094  0
C  C95  1  0.08039262  0.20490675  0.95009506  1  1.635224  0  0.27779  0.719323  0  4.154901  0
C  C96  1  0.76900974  0.89029862  0.94909916  1  1.64318  0  0.282251  0.727874  0  4.144296  0
C  C97  1  0.06996140  0.86690634  0.94527731  1  1.687003  0  0.276566  0.72179  0  4.155608  0
C  C98  1  0.64314583  0.92352198  0.36370568  1  0.451032  0  0.128377  0.200768  0  3.974457  0
C  C99  1  0.07830181  0.67052075  0.35802321  1  0.498288  0  0.12735  0.196271  0  3.962999  0
C  C100  1  0.31984989  0.38575685  0.35726745  1  0.486455  0  0.119967  0.188621  0  3.979743  0
C  C101  1  0.64483911  0.92478486  0.31155625  1  0.019084  0  -0.01334  -0.017826  0  3.996776  0
C  C102  1  0.06273111  0.68206497  0.30714733  1  -0.006424  0  -0.015723  -0.016023  0  3.976212  0
C  C103  1  0.29647926  0.35335202  0.30731347  1  -0.020409  0  -0.014812  -0.014342  0  3.979465  0
C  C104  1  0.67063805  0.93628402  0.20771880  1  0.008612  0  -0.008701  0.032687  0  4.020968  0
C  C105  1  0.02912929  0.70901400  0.20537296  1  -0.031615  0  -0.012043  0.033249  0  4.035036  0
C  C106  1  0.24823706  0.29003683  0.20660961  1  0.003409  0  -0.010553  0.033636  0  4.036332  0
C  C107  1  0.22011741  0.75408003  0.42989330  1  1.497783  0  0.263113  0.641113  0  4.076719  0
C  C108  1  0.25323509  0.45435026  0.43321303  1  1.506986  0  0.267135  0.642451  0  4.068142  0
C  C109  1  0.55781645  0.78342151  0.43697942  1  1.503093  0  0.266228  0.645004  0  4.090976  0
C  C110  1  0.65773141  0.02316001  0.23464914  1  -0.127427  0  -0.01082  0.074865  0  3.945287  0
C  C111  1  0.94966041  0.60466561  0.23273684  1  -0.101365  0  -0.019276  0.065804  0  3.959198  0
C  C112  1  0.36046734  0.31855961  0.22846126  1  -0.095014  0  -0.015348  0.065962  0  3.955504  0
C  C113  1  0.64859555  0.01972050  0.28411019  1  0.009914  0  -0.101002  -0.194034  0  4.04295  0
C  C114  1  0.96476758  0.59151088  0.28079237  1  0.04451  0  -0.104278  -0.184314  0  4.032445  0
C  C115  1  0.38377160  0.34805384  0.27607729  1  0.024046  0  -0.101936  -0.186059  0  4.030295  0
C  C116  1  0.69563526  0.94526395  0.15780657  1  0.000123  0  -0.081154  -0.132591  0  3.932185  0
C  C117  1  0.01120439  0.72831539  0.15692408  1  0.042648  0  -0.088898  -0.145735  0  3.949337  0
C  C118  1  0.22065704  0.25543033  0.15836308  1  -0.034003  0  -0.082321  -0.139227  0  3.930446  0
C  C119  1  0.71062978  0.85851410  0.13432657  1  -0.009615  0  -0.014975  -0.041736  0  4.010716  0
C  C120  1  0.09485967  0.83228058  0.13274976  1  -0.026132  0  -0.016701  -0.037595  0  4.024921  0
C  C121  1  0.11021562  0.23211802  0.13924606  1  -0.01394  0  -0.015434  -0.035241  0  4.013741  0
C  C122  1  0.61127836  0.72189945  0.36154883  1  -0.044328  0  -0.080606  -0.119147  0  3.962186  0
C  C123  1  0.27423996  0.85685014  0.35160310  1  -0.07319  0  -0.083451  -0.120634  0  3.992015  0
C  C124  1  0.12866953  0.38749024  0.36156956  1  -0.049661  0  -0.080561  -0.120687  0  3.977112  0
C  C125  1  0.63217397  0.72901474  0.31174936  1  0.061482  0  -0.020065  0.050686  0  4.077092  0
C  C126  1  0.25686129  0.87317369  0.30316665  1  0.007243  0  -0.023721  0.046172  0  4.090782  0
C  C127  1  0.10001090  0.34762733  0.31429805  1  0.012541  0  -0.022342  0.051201  0  4.088306  0
C  C128  1  0.64441640  0.83018413  0.28601823  1  0.018067  0  0.006756  0.021696  0  3.930178  0
C  C129  1  0.14986525  0.78407755  0.28045041  1  0.007159  0  0.005786  0.02003  0  3.921475  0
C  C130  1  0.18604913  0.33254390  0.28630952  1  0.054473  0  0.006451  0.018328  0  3.926851  0
C  C131  1  0.63709092  0.63719975  0.28538448  1  -0.07007  0  -0.090726  -0.11554  0  4.009255  0
C  C132  1  0.34272873  0.97501292  0.27593350  1  -0.062629  0  -0.097162  -0.123897  0  4.03577  0
C  C133  1  0.98954011  0.32554519  0.29282024  1  -0.056889  0  -0.096773  -0.123553  0  4.028918  0
C  C134  1  0.65540831  0.64510429  0.23649088  1  -0.051563  0  -0.096865  -0.135419  0  4.004272  0
C  C135  1  0.32440407  0.98959635  0.22854710  1  0.015118  0  -0.102903  -0.145126  0  4.032908  0
C  C136  1  0.96506611  0.29196177  0.24579435  1  -0.044794  0  -0.102597  -0.140156  0  4.025268  0
C  C137  1  0.66897762  0.74570071  0.20960679  1  -0.004244  0  -0.000782  0.086777  0  4.006894  0
C  C138  1  0.21921836  0.90182579  0.20434625  1  -0.048223  0  -0.004195  0.088047  0  4.018166  0
C  C139  1  0.05013030  0.27843399  0.21620095  1  -0.002134  0  -0.004139  0.086741  0  4.009504  0
C  C140  1  0.54318224  0.85989622  0.74050656  1  -0.023611  0  -0.152396  -0.187156  0  3.845673  0
C  C141  1  0.14782567  0.71011098  0.73458890  1  -0.025433  0  -0.153087  -0.186283  0  3.849  0
C  C142  1  0.30566939  0.42935802  0.74555100  1  -0.025055  0  -0.154229  -0.189588  0  3.856098  0
C  C143  1  0.66023802  0.83725597  0.23466325  1  0.029868  0  0.014748  0.025401  0  3.871365  0
C  C144  1  0.13250525  0.79762698  0.23037765  1  0.002203  0  0.011213  0.019376  0  3.872745  0
C  C145  1  0.16180477  0.30010062  0.23671716  1  -0.068394  0  0.010942  0.019813  0  3.876624  0
C  C146  1  0.69475058  0.75829032  0.15976792  1  -0.061451  0  -0.071337  -0.126553  0  3.893989  0
C  C147  1  0.19904866  0.91713917  0.15585432  1  -0.011874  0  -0.075163  -0.134979  0  3.902537  0
C  C148  1  0.02608406  0.24456963  0.16764804  1  0.003113  0  -0.077916  -0.13558  0  3.912556  0
C  C149  1  0.61177310  0.81420621  0.38802494  1  0.006536  0  -0.033566  -0.176311  0  3.986734  0
C  C150  1  0.18922070  0.76005254  0.37933420  1  0.023423  0  -0.034295  -0.178579  0  3.997533  0
C  C151  1  0.23556219  0.40790201  0.38343567  1  -0.017662  0  -0.033373  -0.174992  0  3.993548  0
C  C152  1  0.76463732  0.93885343  0.72372042  1  -0.020547  0  -0.152365  -0.187095  0  3.84582  0
C  C153  1  0.04235314  0.82599522  0.71841163  1  -0.057984  0  -0.152659  -0.185466  0  3.848789  0
C  C154  1  0.14414755  0.22060893  0.72663074  1  -0.030645  0  -0.152515  -0.184858  0  3.847861  0
C  C155  1  0.78379197  0.95000286  0.77912083  1  -0.019178  0  -0.152289  -0.186859  0  3.836727  0
C  C156  1  0.02344255  0.83323542  0.77342936  1  -0.027022  0  -0.153013  -0.185379  0  3.839301  0
C  C157  1  0.12792280  0.19815359  0.78194230  1  -0.017226  0  -0.153719  -0.1876  0  3.840436  0
C  C158  1  0.72074142  0.86826999  0.90096141  1  0.139646  0  -0.046245  -0.216847  0  3.958306  0
C  C159  1  0.08826792  0.83924910  0.89660391  1  -0.10283  0  -0.048283  -0.214767  0  3.977985  0
C  C160  1  0.09995889  0.25661653  0.90228510  1  0.210339  0  -0.04792  -0.212194  0  3.970476  0
C  C161  1  0.63563304  0.83670565  0.71283789  1  0.129248  0  0.001844  0.166855  0  3.893949  0
C  C162  1  0.15994373  0.82200693  0.70900919  1  0.154004  0  0.000971  0.168182  0  3.902998  0
C  C163  1  0.19097851  0.35339792  0.71552706  1  0.137205  0  0.001023  0.168472  0  3.898203  0
C  C164  1  0.56100677  0.85978302  0.79584970  1  -0.025594  0  -0.152264  -0.187108  0  3.845873  0
C  C165  1  0.12303869  0.71188374  0.78935846  1  -0.045099  0  -0.153411  -0.189482  0  3.854897  0
C  C166  1  0.27428396  0.41126653  0.80030634  1  -0.048214  0  -0.15291  -0.189994  0  3.850345  0
C  C167  1  0.67343318  0.84833386  0.80647250  1  0.137029  0  0.00226  0.168355  0  3.893284  0
C  C168  1  0.12427557  0.82799275  0.80209484  1  0.164549  0  0.000734  0.170961  0  3.9033  0
C  C169  1  0.14235047  0.30953661  0.80823183  1  0.173448  0  0.001717  0.172709  0  3.897889  0
C  C170  1  0.72595593  0.05883851  0.43504616  1  0.30049  0  -0.128417  -0.207515  0  3.950574  0
C  C171  1  0.86708892  0.50378816  0.38099794  1  0.314035  0  -0.128721  -0.205682  0  3.977945  0
C  C172  1  0.47850059  0.32889144  0.37283259  1  0.301766  0  -0.130705  -0.209138  0  3.97612  0
Br  Br173  1  0.64973060  0.14637919  0.20077400  1  -0.062763  0  0.063886  -0.040527  0  1.61864  0
Br  Br174  1  0.81707365  0.47585595  0.20147762  1  -0.092446  0  0.030091  -0.07877  0  1.592231  0
Br  Br175  1  0.48475257  0.32054658  0.18888457  1  -0.076377  0  0.049662  -0.046722  0  1.558396  0
N  N176  1  0.67536004  0.02696239  0.38692834  1  -1.192807  0  -0.424553  -0.247805  0  3.59523  0
N  N177  1  0.99590269  0.57979435  0.38652817  1  -1.272425  0  -0.428402  -0.257731  0  3.579337  0
N  N178  1  0.42033099  0.39910254  0.38027417  1  -1.238121  0  -0.442288  -0.281336  0  3.579778  0
O  O179  1  0.17036117  0.45957390  0.55481832  1  -1.221141  0  -0.210185  -0.566062  0  2.287575  0
O  O180  1  0.52988435  0.69738503  0.55176789  1  -1.239194  0  -0.230102  -0.591872  0  2.25287  0
O  O181  1  0.29712325  0.84151246  0.54233906  1  -1.257452  0  -0.243663  -0.609048  0  2.237611  0
O  O182  1  0.14986353  0.96553915  0.96125017  1  -1.224378  0  -0.210951  -0.564433  0  2.29411  0
O  O183  1  0.98742669  0.19137866  0.97453125  1  -1.255157  0  -0.244596  -0.606871  0  2.219851  0
O  O184  1  0.78448535  0.80989259  0.96870295  1  -1.238758  0  -0.22809  -0.58779  0  2.243725  0
O  O185  1  0.14596365  0.65268541  0.55817480  1  -1.233254  0  -0.216708  -0.571955  0  2.279953  0
O  O186  1  0.35946575  0.48327584  0.55247489  1  -1.258422  0  -0.245682  -0.608902  0  2.220468  0
O  O187  1  0.50158057  0.85652504  0.55163539  1  -1.243848  0  -0.232743  -0.594671  0  2.239628  0
O  O188  1  0.17120096  0.46936018  0.45194006  1  -1.255342  0  -0.219486  -0.560516  0  2.37411  0
O  O189  1  0.53959379  0.68547722  0.45665767  1  -1.274177  0  -0.250289  -0.619922  0  2.299714  0
O  O190  1  0.32124288  0.83879302  0.44613545  1  -1.284086  0  -0.253749  -0.61341  0  2.280758  0
O  O191  1  0.14869241  0.66524384  0.45649843  1  -1.265332  0  -0.227072  -0.589711  0  2.425344  0
O  O192  1  0.35293340  0.48090707  0.45572789  1  -1.272003  0  -0.250982  -0.621795  0  2.317214  0
O  O193  1  0.52059921  0.84865790  0.45669762  1  -1.277678  0  -0.236225  -0.614312  0  2.397441  0
O  O194  1  0.32217917  0.65505608  0.50342308  1  -1.609925  0  -0.391609  -1.265229  0  2.308371  0
O  O195  1  0.14862025  0.95718779  0.06420198  1  -1.256443  0  -0.212064  -0.564573  0  2.371701  0
O  O196  1  0.98054512  0.16775124  0.07127338  1  -1.275217  0  -0.247705  -0.613372  0  2.28385  0
O  O197  1  0.78161670  0.80456244  0.06468174  1  -1.262258  0  -0.231881  -0.595881  0  2.303059  0
O  O198  1  0.15750180  0.16765682  0.06703780  1  -1.244746  0  -0.208969  -0.547745  0  2.353215  0
O  O199  1  0.78128491  0.97793466  0.06299715  1  -1.275141  0  -0.23401  -0.594439  0  2.296861  0
O  O200  1  0.96902078  0.78574775  0.06395409  1  -1.271421  0  -0.249439  -0.611323  0  2.272492  0
O  O201  1  0.98795467  0.98935868  0.01618308  1  -1.609032  0  -0.39199  -1.269568  0  2.294698  0
O  O202  1  0.15378829  0.17271500  0.96316864  1  -1.20476  0  -0.20744  -0.556321  0  2.296168  0
O  O203  1  0.79815788  0.99090662  0.96724950  1  -1.24459  0  -0.227558  -0.586343  0  2.246197  0
O  O204  1  0.97171841  0.79096743  0.96733153  1  -1.252277  0  -0.241778  -0.603777  0  2.231504  0
O  O205  1  0.99281626  0.46702431  0.50095233  1  -1.380017  0  -0.575388  -0.996274  0  1.811418  0
O  O206  1  0.31972387  0.14646675  0.01488061  1  -1.375842  0  -0.580062  -0.996646  0  1.797355  0
