# generated using pymatgen
data_ZnH11C9Br(NO)2
_symmetry_space_group_name_H-M   'P 1'
_cell_length_a   10.23465238
_cell_length_b   17.78091698
_cell_length_c   17.78269306
_cell_angle_alpha   120.01225891
_cell_angle_beta   89.99977163
_cell_angle_gamma   90.00028057
_symmetry_Int_Tables_number   1
_chemical_formula_structural   ZnH11C9Br(NO)2
_chemical_formula_sum   'Zn6 H66 C54 Br6 N12 O12'
_cell_volume   2802.21693435
_cell_formula_units_Z   6
loop_
 _symmetry_equiv_pos_site_id
 _symmetry_equiv_pos_as_xyz
  1  'x, y, z'
loop_
 _atom_site_type_symbol
 _atom_site_label
 _atom_site_symmetry_multiplicity
 _atom_site_fract_x
 _atom_site_fract_y
 _atom_site_fract_z
 _atom_site_occupancy
 _atom_site_pbe_bader_charge
 _atom_site_pbe_bader_spin_density
 _atom_site_pbe_cm5_charge
 _atom_site_pbe_ddec_charge
 _atom_site_pbe_ddec_spin_density
 _atom_site_pbe_ddec_sum_bond_order
 _atom_site_pbe_magmom
Zn  Zn0  1  0.86686747  0.45546692  0.92082173  1  1.150334  0  0.592735  0.686566  0  2.493114  0
Zn  Zn1  1  0.70018729  0.92077578  0.46514552  1  1.151426  0  0.592781  0.6866  0  2.492365  0
Zn  Zn2  1  0.53375442  0.46530558  0.54458693  1  1.150794  0  0.592553  0.686139  0  2.493447  0
Zn  Zn3  1  0.36686648  0.54453316  0.07918108  1  1.150405  0  0.592733  0.686503  0  2.493119  0
Zn  Zn4  1  0.20018701  0.07922476  0.53485441  1  1.151412  0  0.592795  0.686627  0  2.492414  0
Zn  Zn5  1  0.03375954  0.53469633  0.45541820  1  1.150747  0  0.59255  0.686143  0  2.493384  0
H  H6  1  0.98272417  0.51860180  0.06363806  1  0.477198  0  0.290734  0.250299  0  0.998249  0
H  H7  1  0.81605053  0.06366863  0.54499277  1  0.468019  0  0.290383  0.249771  0  0.998331  0
H  H8  1  0.64963580  0.54488966  0.48135038  1  0.467766  0  0.290596  0.249853  0  0.998234  0
H  H9  1  0.48272355  0.48140306  0.93636459  1  0.477059  0  0.290758  0.250313  0  0.998306  0
H  H10  1  0.31605808  0.93633411  0.45500508  1  0.467917  0  0.290377  0.249744  0  0.998355  0
H  H11  1  0.14963297  0.45511088  0.51865623  1  0.467731  0  0.290549  0.249824  0  0.998359  0
H  H12  1  0.94934494  0.37106598  0.02012384  1  0.107388  0  0.120594  0.117461  0  0.945567  0
H  H13  1  0.78289106  0.02005143  0.64897259  1  0.084307  0  0.120373  0.117024  0  0.945786  0
H  H14  1  0.61663510  0.64907449  0.62889770  1  0.075398  0  0.120478  0.116924  0  0.945471  0
H  H15  1  0.44933354  0.62893807  0.97988071  1  0.107384  0  0.120569  0.117429  0  0.945578  0
H  H16  1  0.28289580  0.97995188  0.35102464  1  0.084287  0  0.120364  0.117048  0  0.94577  0
H  H17  1  0.11663338  0.35092607  0.37110774  1  0.075508  0  0.120442  0.116864  0  0.945554  0
H  H18  1  0.78149653  0.39264573  0.04961948  1  0.063489  0  0.111674  0.096106  0  0.974234  0
H  H19  1  0.61504667  0.04956007  0.65697310  1  0.074679  0  0.111954  0.096352  0  0.973577  0
H  H20  1  0.44878291  0.65710041  0.60743820  1  0.055295  0  0.11181  0.095882  0  0.973295  0
H  H21  1  0.28148711  0.60735472  0.95038399  1  0.08267  0  0.11168  0.096047  0  0.974199  0
H  H22  1  0.11505415  0.95044134  0.34302475  1  0.074799  0  0.111941  0.096354  0  0.973575  0
H  H23  1  0.94877976  0.34290243  0.39256644  1  0.05528  0  0.111804  0.09585  0  0.973325  0
H  H24  1  0.76835133  0.56503618  0.16494163  1  0.040733  0  0.109533  0.074865  0  0.962049  0
H  H25  1  0.60181291  0.16501113  0.60012008  1  0.076155  0  0.109383  0.074963  0  0.962617  0
H  H26  1  0.43532506  0.59998944  0.43514212  1  0.074411  0  0.109795  0.075322  0  0.961747  0
H  H27  1  0.26835297  0.43496167  0.83505994  1  0.040806  0  0.109545  0.07483  0  0.962089  0
H  H28  1  0.10181412  0.83499198  0.39987043  1  0.076049  0  0.109357  0.074941  0  0.962657  0
H  H29  1  0.93532413  0.40001175  0.56486416  1  0.074505  0  0.109803  0.075334  0  0.961743  0
H  H30  1  0.80375639  0.44234000  0.33797021  1  0.131638  0  0.118262  0.091703  0  1.024241  0
H  H31  1  0.63702534  0.33798286  0.89562195  1  0.120466  0  0.117854  0.091174  0  1.024098  0
H  H32  1  0.47044580  0.89556923  0.55767203  1  0.131833  0  0.118196  0.091624  0  1.024214  0
H  H33  1  0.30374855  0.55766485  0.66203564  1  0.13141  0  0.118258  0.091677  0  1.02424  0
H  H34  1  0.13702030  0.66201686  0.10438323  1  0.120548  0  0.117849  0.091133  0  1.024051  0
H  H35  1  0.97044223  0.10442610  0.44232438  1  0.131731  0  0.118152  0.091583  0  1.024337  0
H  H36  1  0.10675458  0.49591147  0.15539427  1  0.116118  0  0.104435  0.122501  0  1.034616  0
H  H37  1  0.94019445  0.15547584  0.65949874  1  0.125265  0  0.103852  0.12206  0  1.035112  0
H  H38  1  0.77381825  0.65942074  0.50369494  1  0.119383  0  0.10425  0.122866  0  1.034338  0
H  H39  1  0.60674772  0.50409199  0.84460826  1  0.116245  0  0.104437  0.122487  0  1.034629  0
H  H40  1  0.44019811  0.84452612  0.34050115  1  0.125198  0  0.103876  0.122061  0  1.035077  0
H  H41  1  0.27381362  0.34057842  0.49630532  1  0.119477  0  0.104226  0.122838  0  1.034274  0
H  H42  1  0.73581304  0.39674781  0.18539109  1  0.084147  0  0.113713  0.127242  0  0.989272  0
H  H43  1  0.56931783  0.18528929  0.78866374  1  0.096824  0  0.11373  0.126495  0  0.990862  0
H  H44  1  0.40307015  0.78863111  0.60344463  1  0.071358  0  0.11354  0.126914  0  0.990182  0
H  H45  1  0.23580355  0.60325343  0.81461268  1  0.083907  0  0.113717  0.127265  0  0.989353  0
H  H46  1  0.06932116  0.81471119  0.21133723  1  0.096878  0  0.113731  0.126509  0  0.990813  0
H  H47  1  0.90306586  0.21136576  0.39655355  1  0.071154  0  0.113503  0.126859  0  0.990246  0
H  H48  1  0.15670122  0.53846180  0.30868284  1  0.126282  0  0.121657  0.101118  0  1.006266  0
H  H49  1  0.98990037  0.30885344  0.77019142  1  0.155032  0  0.121485  0.100636  0  1.00594  0
H  H50  1  0.82319036  0.77006668  0.46093843  1  0.137859  0  0.12141  0.10087  0  1.005824  0
H  H51  1  0.65669505  0.46154523  0.69132180  1  0.126306  0  0.121597  0.101013  0  1.006426  0
H  H52  1  0.48990056  0.69114724  0.22981092  1  0.155017  0  0.12149  0.10065  0  1.005936  0
H  H53  1  0.32318547  0.22993067  0.53905919  1  0.138021  0  0.121394  0.100833  0  1.006007  0
H  H54  1  0.93025369  0.66977995  0.16963892  1  0.042469  0  0.08515  0.117189  0  1.020492  0
H  H55  1  0.76328334  0.16959561  0.49982610  1  0.033334  0  0.085245  0.117287  0  1.020606  0
H  H56  1  0.59696214  0.49986815  0.33033790  1  0.024876  0  0.085299  0.117661  0  1.020292  0
H  H57  1  0.43026131  0.33022524  0.83037008  1  0.04235  0  0.085137  0.117143  0  1.020603  0
H  H58  1  0.26327600  0.83039342  0.50015953  1  0.033267  0  0.085287  0.117292  0  1.020632  0
H  H59  1  0.09695669  0.50014375  0.66966855  1  0.024845  0  0.085293  0.117724  0  1.02028  0
H  H60  1  0.77043211  0.70380142  0.16247525  1  0.108217  0  0.0862  0.146555  0  1.018429  0
H  H61  1  0.60334153  0.16242328  0.45882221  1  0.090381  0  0.086059  0.146597  0  1.018269  0
H  H62  1  0.43711298  0.45871424  0.29636773  1  0.062421  0  0.085996  0.146478  0  1.018449  0
H  H63  1  0.27043939  0.29619838  0.83752436  1  0.108296  0  0.086195  0.146484  0  1.018419  0
H  H64  1  0.10333104  0.83757515  0.54116622  1  0.090197  0  0.086094  0.14659  0  1.018189  0
H  H65  1  0.93710741  0.54129359  0.70363415  1  0.062344  0  0.08597  0.146503  0  1.018373  0
H  H66  1  0.87230477  0.65546327  0.06803782  1  0.067945  0  0.081009  0.124276  0  1.02957  0
H  H67  1  0.70517963  0.06796087  0.41262914  1  0.076341  0  0.081016  0.123956  0  1.030565  0
H  H68  1  0.53902717  0.41255396  0.34462005  1  0.036291  0  0.081403  0.124621  0  1.028762  0
H  H69  1  0.37230204  0.34453632  0.93196773  1  0.06784  0  0.080981  0.124245  0  1.029515  0
H  H70  1  0.20518720  0.93203141  0.58735992  1  0.076662  0  0.080999  0.123961  0  1.030462  0
H  H71  1  0.03901572  0.58744866  0.65537538  1  0.036484  0  0.081434  0.124658  0  1.028635  0
C  C72  1  0.91530942  0.44358188  0.15772702  1  -0.089369  0  0.013199  0.142658  0  3.942748  0
C  C73  1  0.74879940  0.15770128  0.71416136  1  -0.103841  0  0.013497  0.142607  0  3.943647  0
C  C74  1  0.58243320  0.71408563  0.55629561  1  -0.046874  0  0.013147  0.141324  0  3.944124  0
C  C75  1  0.41530324  0.55642088  0.84227766  1  -0.08992  0  0.013198  0.142593  0  3.942949  0
C  C76  1  0.24880537  0.84230131  0.28583657  1  -0.10375  0  0.013428  0.142564  0  3.943648  0
C  C77  1  0.08242749  0.28591470  0.44370777  1  -0.04741  0  0.01314  0.141418  0  3.944222  0
C  C78  1  0.66275351  0.54587338  0.05384055  1  1.596399  0  0.211619  0.57666  0  4.131448  0
C  C79  1  0.49594692  0.05393878  0.50836579  1  1.587044  0  0.211446  0.576469  0  4.130651  0
C  C80  1  0.32952130  0.50821046  0.45436057  1  1.583644  0  0.212085  0.578082  0  4.130441  0
C  C81  1  0.16275455  0.45412657  0.94616218  1  1.596359  0  0.211662  0.576749  0  4.131269  0
C  C82  1  0.99594333  0.94605774  0.49163171  1  1.587654  0  0.211424  0.576424  0  4.130456  0
C  C83  1  0.82952031  0.49178720  0.54564124  1  1.583529  0  0.211988  0.578068  0  4.130806  0
C  C84  1  0.88050337  0.42019416  0.06608153  1  0.257296  0  -0.060931  -0.087113  0  3.900508  0
C  C85  1  0.71403109  0.06603185  0.64588365  1  0.290148  0  -0.060583  -0.086113  0  3.898955  0
C  C86  1  0.54773111  0.64591819  0.57981796  1  0.2708  0  -0.060881  -0.085928  0  3.897671  0
C  C87  1  0.38049774  0.57980982  0.93392189  1  0.238427  0  -0.060934  -0.086959  0  3.900463  0
C  C88  1  0.21403835  0.93397196  0.35411302  1  0.290078  0  -0.060581  -0.086205  0  3.898927  0
C  C89  1  0.04772908  0.35408174  0.42018578  1  0.270827  0  -0.060866  -0.085873  0  3.89771  0
C  C90  1  0.79193514  0.56459246  0.10418153  1  0.290238  0  -0.003488  0.045593  0  3.862076  0
C  C91  1  0.62523036  0.10421321  0.53975146  1  0.275107  0  -0.003932  0.044052  0  3.863521  0
C  C92  1  0.45879995  0.53963848  0.43555174  1  0.288664  0  -0.003463  0.044943  0  3.862628  0
C  C93  1  0.29193441  0.43540801  0.89582193  1  0.29009  0  -0.003557  0.045544  0  3.862037  0
C  C94  1  0.12523265  0.89578647  0.46024137  1  0.275495  0  -0.00391  0.04407  0  3.863667  0
C  C95  1  0.95879563  0.46036083  0.56445193  1  0.288535  0  -0.003505  0.044719  0  3.862802  0
C  C96  1  0.86671915  0.45309210  0.29477874  1  0.412149  0  0.046739  0.090034  0  3.940947  0
C  C97  1  0.70002602  0.29479517  0.84168900  1  0.479177  0  0.046651  0.089691  0  3.941598  0
C  C98  1  0.53348145  0.84160015  0.54678102  1  0.471301  0  0.046621  0.089887  0  3.941642  0
C  C99  1  0.36671385  0.54691209  0.70522558  1  0.412514  0  0.04678  0.090109  0  3.941055  0
C  C100  1  0.20002585  0.70520454  0.15831401  1  0.479125  0  0.046668  0.089806  0  3.941477  0
C  C101  1  0.03347752  0.15839711  0.45321751  1  0.471749  0  0.04664  0.089747  0  3.941924  0
C  C102  1  0.03487018  0.48401990  0.19357322  1  0.11108  0  -0.080667  -0.16744  0  3.913215  0
C  C103  1  0.86826039  0.19362087  0.70956009  1  0.044452  0  -0.080349  -0.167154  0  3.912799  0
C  C104  1  0.70177201  0.70944234  0.51562155  1  -0.019599  0  -0.080807  -0.167568  0  3.912372  0
C  C105  1  0.53486270  0.51598476  0.80643141  1  0.111489  0  -0.08073  -0.16751  0  3.913364  0
C  C106  1  0.36826505  0.80638101  0.29043867  1  0.044475  0  -0.080319  -0.167093  0  3.912894  0
C  C107  1  0.20176508  0.29055657  0.48438000  1  -0.018863  0  -0.080765  -0.167549  0  3.912413  0
C  C108  1  0.83051879  0.42763679  0.20988539  1  0.029488  0  -0.08242  -0.188693  0  3.951244  0
C  C109  1  0.66395723  0.20983822  0.78226345  1  -0.034556  0  -0.082508  -0.187806  0  3.952873  0
C  C110  1  0.49757662  0.78219984  0.57235671  1  -0.018049  0  -0.082343  -0.188211  0  3.953378  0
C  C111  1  0.33051312  0.57236756  0.79011986  1  0.02961  0  -0.08242  -0.188708  0  3.951418  0
C  C112  1  0.16396030  0.79016279  0.21773709  1  -0.034637  0  -0.08245  -0.187785  0  3.952669  0
C  C113  1  0.99757021  0.21779772  0.42764313  1  -0.017819  0  -0.082303  -0.188133  0  3.953372  0
C  C114  1  0.06398676  0.50815567  0.27885223  1  0.40342  0  0.052087  0.104601  0  3.908875  0
C  C115  1  0.89726397  0.27895154  0.77068394  1  0.416826  0  0.051738  0.105184  0  3.907069  0
C  C116  1  0.73061554  0.77054566  0.49137801  1  0.502348  0  0.051631  0.10433  0  3.906478  0
C  C117  1  0.56398064  0.49185010  0.72115470  1  0.403126  0  0.052224  0.104876  0  3.908758  0
C  C118  1  0.39726540  0.72104869  0.22931762  1  0.416752  0  0.051734  0.105149  0  3.90715  0
C  C119  1  0.23061086  0.22945172  0.50862061  1  0.501586  0  0.051653  0.104311  0  3.906643  0
C  C120  1  0.84467001  0.65392154  0.12704962  1  -0.13147  0  -0.246182  -0.401107  0  3.896138  0
C  C121  1  0.67768093  0.12700586  0.47319807  1  -0.120962  0  -0.246058  -0.399961  0  3.896174  0
C  C122  1  0.51140167  0.47313387  0.34620420  1  -0.056429  0  -0.246556  -0.401933  0  3.896382  0
C  C123  1  0.34467161  0.34607937  0.87295346  1  -0.131323  0  -0.246113  -0.400921  0  3.896105  0
C  C124  1  0.17768061  0.87298541  0.52678748  1  -0.12118  0  -0.246141  -0.400023  0  3.896253  0
C  C125  1  0.01139655  0.52687283  0.65380061  1  -0.056602  0  -0.246513  -0.401928  0  3.896013  0
Br  Br126  1  0.89486217  0.55671105  0.87244176  1  -0.620623  0  -0.333401  -0.51642  0  1.084903  0
Br  Br127  1  0.72653535  0.87273483  0.31544328  1  -0.619915  0  -0.332912  -0.516019  0  1.085779  0
Br  Br128  1  0.56035592  0.31551318  0.44334559  1  -0.620828  0  -0.333073  -0.516129  0  1.086365  0
Br  Br129  1  0.39485804  0.44328243  0.12755306  1  -0.620617  0  -0.333391  -0.516381  0  1.084901  0
Br  Br130  1  0.22654030  0.12726963  0.68455725  1  -0.619923  0  -0.332971  -0.516073  0  1.085753  0
Br  Br131  1  0.06035281  0.68448968  0.55665974  1  -0.620854  0  -0.333074  -0.516145  0  1.086363  0
N  N132  1  0.88772822  0.49576285  0.05272603  1  -1.10348  0  -0.485202  -0.339941  0  3.526368  0
N  N133  1  0.72110925  0.05271521  0.55696868  1  -1.110095  0  -0.48506  -0.340209  0  3.527124  0
N  N134  1  0.55468678  0.55692681  0.50429140  1  -1.09046  0  -0.484995  -0.338728  0  3.525403  0
N  N135  1  0.38772673  0.50423961  0.94727779  1  -1.103127  0  -0.485167  -0.3399  0  3.52627  0
N  N136  1  0.22111406  0.94728563  0.44302759  1  -1.110185  0  -0.485029  -0.340127  0  3.527228  0
N  N137  1  0.05468400  0.44307539  0.49571459  1  -1.090408  0  -0.484934  -0.338642  0  3.5255  0
N  N138  1  0.98086475  0.49350943  0.32917149  1  -1.271698  0  -0.330016  -0.213412  0  3.555067  0
N  N139  1  0.81407598  0.32924884  0.83564789  1  -1.252043  0  -0.329439  -0.213232  0  3.556553  0
N  N140  1  0.64737503  0.83552072  0.50612214  1  -1.278081  0  -0.329218  -0.212744  0  3.554376  0
N  N141  1  0.48085739  0.50649711  0.67083285  1  -1.27181  0  -0.330075  -0.21358  0  3.554889  0
N  N142  1  0.31407450  0.67075056  0.16435442  1  -1.252038  0  -0.329503  -0.213339  0  3.556553  0
N  N143  1  0.14736892  0.16447600  0.49387480  1  -1.278216  0  -0.329242  -0.212603  0  3.554391  0
O  O144  1  0.66131574  0.48824301  0.97328242  1  -1.199923  0  -0.315115  -0.552446  0  2.290653  0
O  O145  1  0.49442863  0.97340214  0.48543503  1  -1.20031  0  -0.315214  -0.551971  0  2.290207  0
O  O146  1  0.32798603  0.48525420  0.51194498  1  -1.19557  0  -0.315372  -0.553467  0  2.29059  0
O  O147  1  0.16131484  0.51175524  0.02671862  1  -1.199981  0  -0.315158  -0.552484  0  2.290644  0
O  O148  1  0.99443855  0.02660491  0.51457107  1  -1.200122  0  -0.315255  -0.552022  0  2.289705  0
O  O149  1  0.82798465  0.51474314  0.48805716  1  -1.195492  0  -0.315292  -0.553454  0  2.290714  0
O  O150  1  0.56581426  0.59059579  0.09710310  1  -1.198805  0  -0.321946  -0.548767  0  2.346343  0
O  O151  1  0.39897068  0.09731197  0.50710852  1  -1.204541  0  -0.321406  -0.548321  0  2.347551  0
O  O152  1  0.23261147  0.50697263  0.40971920  1  -1.19796  0  -0.322008  -0.549178  0  2.348045  0
O  O153  1  0.06581521  0.40940323  0.90289708  1  -1.198767  0  -0.32195  -0.548808  0  2.346202  0
O  O154  1  0.89897941  0.90269233  0.49288672  1  -1.20521  0  -0.321338  -0.548179  0  2.347993  0
O  O155  1  0.73260823  0.49302378  0.59028039  1  -1.197878  0  -0.321996  -0.549141  0  2.348169  0
