# generated using pymatgen
data_Pr2H12C8SO14
_symmetry_space_group_name_H-M   'P 1'
_cell_length_a   9.52098196
_cell_length_b   12.80410002
_cell_length_c   13.02030580
_cell_angle_alpha   110.29284880
_cell_angle_beta   90.00008186
_cell_angle_gamma   89.99997880
_symmetry_Int_Tables_number   1
_chemical_formula_structural   Pr2H12C8SO14
_chemical_formula_sum   'Pr8 H48 C32 S4 O56'
_cell_volume   1488.75572196
_cell_formula_units_Z   4
loop_
 _symmetry_equiv_pos_site_id
 _symmetry_equiv_pos_as_xyz
  1  'x, y, z'
loop_
 _atom_site_type_symbol
 _atom_site_label
 _atom_site_symmetry_multiplicity
 _atom_site_fract_x
 _atom_site_fract_y
 _atom_site_fract_z
 _atom_site_occupancy
 _atom_site_hle17_bader_spin_density
 _atom_site_hle17_ddec_charge
 _atom_site_hle17_ddec_spin_density
 _atom_site_hle17_ddec_sum_bond_order
 _atom_site_hle17_magmom
 _atom_site_hse06_10hf_bader_spin_density
 _atom_site_hse06_10hf_ddec_charge
 _atom_site_hse06_10hf_ddec_spin_density
 _atom_site_hse06_10hf_ddec_sum_bond_order
 _atom_site_hse06_10hf_magmom
 _atom_site_hse06_bader_spin_density
 _atom_site_hse06_ddec_charge
 _atom_site_hse06_ddec_spin_density
 _atom_site_hse06_ddec_sum_bond_order
 _atom_site_hse06_magmom
 _atom_site_pbe_bader_spin_density
 _atom_site_pbe_cm5_charge
 _atom_site_pbe_ddec_charge
 _atom_site_pbe_ddec_spin_density
 _atom_site_pbe_ddec_sum_bond_order
 _atom_site_pbe_magmom
Pr  Pr0  1  0.83856536  0.04212205  0.61566319  1  0  2.363946  0  1.579988  0  0  2.249999  0  1.947809  0  0  2.28776  0  1.905844  0  0  1.520717  2.177754  0  2.059614  0
Pr  Pr1  1  0.33856562  0.45787794  0.88433408  1  0  2.363967  0  1.579965  0  0  2.250029  0  1.947775  0  0  2.287788  0  1.905813  0  0  1.52073  2.17778  0  2.059595  0
Pr  Pr2  1  0.16143412  0.95787658  0.38433569  1  0  2.363948  0  1.579983  0  0  2.250011  0  1.947805  0  0  2.28777  0  1.90584  0  0  1.520719  2.177811  0  2.059555  0
Pr  Pr3  1  0.66143491  0.54212152  0.11566585  1  0  2.363963  0  1.579977  0  0  2.250025  0  1.947795  0  0  2.287789  0  1.905827  0  0  1.52071  2.177809  0  2.05955  0
Pr  Pr4  1  0.63590981  0.94786554  0.86866197  1  0  2.347262  0  1.60288  0  0  2.235727  0  1.968296  0  0  2.272795  0  1.927537  0  0  1.521863  2.160694  0  2.084534  0
Pr  Pr5  1  0.13590873  0.55213486  0.63133834  1  0  2.347273  0  1.60286  0  0  2.235748  0  1.968278  0  0  2.272812  0  1.927518  0  0  1.521875  2.160717  0  2.084524  0
Pr  Pr6  1  0.36409071  0.05213475  0.13133748  1  0  2.347275  0  1.60284  0  0  2.23575  0  1.968254  0  0  2.272819  0  1.927495  0  0  1.521878  2.160724  0  2.084505  0
Pr  Pr7  1  0.86409074  0.44786543  0.36866264  1  0  2.347273  0  1.602873  0  0  2.235744  0  1.968291  0  0  2.272809  0  1.927531  0  0  1.521872  2.160688  0  2.084579  0
H  H8  1  0.53827465  0.63150008  0.50895615  1  0  0.14201  0  0.928468  0  0  0.155377  0  0.985224  0  0  0.15869  0  0.98351  0  0  0.11858  0.152888  0  0.986859  0
H  H9  1  0.03827516  0.86849947  0.99104377  1  0  0.141994  0  0.928497  0  0  0.155382  0  0.985231  0  0  0.158696  0  0.983514  0  0  0.118576  0.152894  0  0.986867  0
H  H10  1  0.46172482  0.36850021  0.49104253  1  0  0.141973  0  0.928484  0  0  0.155364  0  0.985218  0  0  0.158677  0  0.983505  0  0  0.118584  0.152878  0  0.986851  0
H  H11  1  0.96172536  0.13150082  0.00895644  1  0  0.142005  0  0.928492  0  0  0.155388  0  0.985228  0  0  0.158702  0  0.983511  0  0  0.118579  0.152901  0  0.986863  0
H  H12  1  0.69826653  0.70163434  0.50860153  1  0  0.119219  0  0.946685  0  0  0.130908  0  1.010219  0  0  0.133623  0  1.008997  0  0  0.114479  0.129215  0  1.010631  0
H  H13  1  0.19826603  0.79836523  0.99139780  1  0  0.119204  0  0.946708  0  0  0.130891  0  1.010247  0  0  0.133604  0  1.009028  0  0  0.114475  0.129197  0  1.010668  0
H  H14  1  0.30173294  0.29836595  0.49139791  1  0  0.119207  0  0.946694  0  0  0.130913  0  1.010215  0  0  0.13363  0  1.008991  0  0  0.114474  0.129218  0  1.010635  0
H  H15  1  0.80173344  0.20163506  0.00860165  1  0  0.11923  0  0.946668  0  0  0.130917  0  1.0102  0  0  0.13363  0  1.008982  0  0  0.114478  0.129224  0  1.010612  0
H  H16  1  0.87311535  0.76144850  0.78210534  1  0  0.457075  0  0.834784  0  0  0.428956  0  0.892026  0  0  0.440087  0  0.875727  0  0  0.309691  0.420912  0  0.903672  0
H  H17  1  0.37311644  0.73855109  0.71789341  1  0  0.456915  0  0.834979  0  0  0.428802  0  0.89221  0  0  0.439931  0  0.875913  0  0  0.309632  0.420761  0  0.90385  0
H  H18  1  0.12688412  0.23855096  0.21789383  1  0  0.456957  0  0.834934  0  0  0.428849  0  0.892156  0  0  0.439979  0  0.875859  0  0  0.309649  0.420808  0  0.903796  0
H  H19  1  0.62688303  0.26144837  0.28210498  1  0  0.456927  0  0.834962  0  0  0.42882  0  0.892185  0  0  0.439949  0  0.875889  0  0  0.309647  0.42078  0  0.903824  0
H  H20  1  0.84138427  0.81168261  0.68887321  1  0  0.435327  0  0.858536  0  0  0.4066  0  0.919379  0  0  0.416606  0  0.904524  0  0  0.310115  0.399618  0  0.929473  0
H  H21  1  0.34138453  0.68831864  0.81112684  1  0  0.435319  0  0.858552  0  0  0.406588  0  0.919402  0  0  0.416595  0  0.904546  0  0  0.310111  0.399606  0  0.929496  0
H  H22  1  0.15861625  0.18831768  0.31112701  1  0  0.435299  0  0.858583  0  0  0.406568  0  0.919433  0  0  0.416576  0  0.904577  0  0  0.310098  0.399587  0  0.929526  0
H  H23  1  0.65861495  0.31168165  0.18887261  1  0  0.435299  0  0.858583  0  0  0.406571  0  0.919427  0  0  0.416577  0  0.904572  0  0  0.310099  0.399586  0  0.929527  0
H  H24  1  0.57982107  0.22262147  0.69755750  1  0  0.451928  0  0.842352  0  0  0.423945  0  0.900582  0  0  0.434599  0  0.885029  0  0  0.307139  0.416177  0  0.911825  0
H  H25  1  0.07982126  0.27737849  0.80244181  1  0  0.451923  0  0.842364  0  0  0.423939  0  0.900598  0  0  0.434593  0  0.885045  0  0  0.307133  0.416171  0  0.911843  0
H  H26  1  0.42017840  0.77737882  0.30244195  1  0  0.451947  0  0.842332  0  0  0.423968  0  0.900557  0  0  0.434622  0  0.885002  0  0  0.307151  0.416204  0  0.911795  0
H  H27  1  0.92018031  0.72262180  0.19755841  1  0  0.451931  0  0.84235  0  0  0.423948  0  0.900582  0  0  0.434603  0  0.885026  0  0  0.307135  0.416183  0  0.91182  0
H  H28  1  0.62547718  0.17490238  0.78834508  1  0  0.434652  0  0.861054  0  0  0.407294  0  0.919168  0  0  0.417427  0  0.904175  0  0  0.30802  0.400195  0  0.929451  0
H  H29  1  0.12547822  0.32509675  0.71165399  1  0  0.434662  0  0.861031  0  0  0.407302  0  0.919149  0  0  0.417435  0  0.904157  0  0  0.308012  0.400207  0  0.929427  0
H  H30  1  0.37452230  0.82509708  0.21165485  1  0  0.434676  0  0.861015  0  0  0.407315  0  0.919135  0  0  0.417448  0  0.904141  0  0  0.308022  0.40022  0  0.929411  0
H  H31  1  0.87452125  0.67490354  0.28834546  1  0  0.434667  0  0.861033  0  0  0.407309  0  0.919146  0  0  0.417442  0  0.904152  0  0  0.308022  0.40021  0  0.92943  0
H  H32  1  0.54701525  0.85633907  0.47033399  1  0  0.126077  0  0.944338  0  0  0.136512  0  1.00595  0  0  0.139855  0  1.003939  0  0  0.114201  0.134108  0  1.007471  0
H  H33  1  0.04701498  0.64366152  0.02966673  1  0  0.126042  0  0.944367  0  0  0.136531  0  1.005963  0  0  0.139874  0  1.003954  0  0  0.114207  0.134125  0  1.007483  0
H  H34  1  0.45298422  0.14366206  0.52966651  1  0  0.126027  0  0.94436  0  0  0.136521  0  1.005925  0  0  0.139863  0  1.003916  0  0  0.114211  0.134117  0  1.007445  0
H  H35  1  0.95298554  0.35633877  0.97033348  1  0  0.126077  0  0.944379  0  0  0.136553  0  1.005932  0  0  0.139896  0  1.003924  0  0  0.114211  0.134151  0  1.007451  0
H  H36  1  0.39893919  0.79025746  0.50607727  1  0  0.121659  0  0.911934  0  0  0.136198  0  0.96733  0  0  0.13852  0  0.966803  0  0  0.11516  0.134679  0  0.967569  0
H  H37  1  0.89893853  0.70974297  0.99392410  1  0  0.121635  0  0.911912  0  0  0.136202  0  0.967335  0  0  0.138524  0  0.966809  0  0  0.115151  0.134683  0  0.967563  0
H  H38  1  0.60106028  0.20974367  0.49392400  1  0  0.121643  0  0.911922  0  0  0.136192  0  0.967331  0  0  0.138514  0  0.966802  0  0  0.11515  0.134672  0  0.967565  0
H  H39  1  0.10106094  0.29025732  0.00607688  1  0  0.121669  0  0.911926  0  0  0.136208  0  0.967328  0  0  0.13853  0  0.9668  0  0  0.115161  0.134688  0  0.967564  0
H  H40  1  0.77073375  0.11414362  0.25594463  1  0  0.123796  0  0.933558  0  0  0.137532  0  0.991899  0  0  0.140447  0  0.990598  0  0  0.113185  0.135234  0  0.993377  0
H  H41  1  0.27073272  0.38585655  0.24405693  1  0  0.123739  0  0.933617  0  0  0.137518  0  0.991921  0  0  0.140434  0  0.990621  0  0  0.113174  0.135222  0  0.993396  0
H  H42  1  0.22926572  0.88585584  0.74405530  1  0  0.123808  0  0.933613  0  0  0.137552  0  0.991965  0  0  0.140467  0  0.990664  0  0  0.113193  0.135252  0  0.993442  0
H  H43  1  0.72926570  0.61414374  0.75594483  1  0  0.123796  0  0.933558  0  0  0.137534  0  0.991896  0  0  0.140448  0  0.990596  0  0  0.113182  0.135237  0  0.993372  0
H  H44  1  0.91274113  0.02081512  0.20492780  1  0  0.111972  0  0.940852  0  0  0.124418  0  1.001715  0  0  0.127242  0  1.000348  0  0  0.110946  0.122512  0  1.002454  0
H  H45  1  0.41274121  0.47918507  0.29507390  1  0  0.111979  0  0.940832  0  0  0.124424  0  1.001713  0  0  0.127249  0  1.000345  0  0  0.110946  0.12252  0  1.002451  0
H  H46  1  0.08725939  0.97918517  0.79507241  1  0  0.111979  0  0.940817  0  0  0.124436  0  1.001688  0  0  0.12726  0  1.000322  0  0  0.110946  0.122533  0  1.002423  0
H  H47  1  0.58725931  0.52081439  0.70492756  1  0  0.111982  0  0.940848  0  0  0.124424  0  1.001721  0  0  0.127248  0  1.000353  0  0  0.110951  0.122518  0  1.00246  0
H  H48  1  0.61789217  0.95105415  0.25808514  1  0  0.105406  0  0.943763  0  0  0.115339  0  1.009844  0  0  0.118379  0  1.0081  0  0  0.110223  0.113688  0  1.010232  0
H  H49  1  0.11789340  0.54894562  0.24191461  1  0  0.1054  0  0.94379  0  0  0.115335  0  1.009866  0  0  0.118376  0  1.008122  0  0  0.110225  0.113687  0  1.010255  0
H  H50  1  0.38210836  0.04894531  0.74191402  1  0  0.105426  0  0.943761  0  0  0.115329  0  1.00986  0  0  0.118367  0  1.008117  0  0  0.110224  0.113681  0  1.010251  0
H  H51  1  0.88210712  0.45105384  0.75808532  1  0  0.105403  0  0.943747  0  0  0.115336  0  1.009825  0  0  0.118376  0  1.00808  0  0  0.110211  0.113685  0  1.010212  0
H  H52  1  0.76435498  0.86191923  0.21497113  1  0  0.123252  0  0.936328  0  0  0.137427  0  0.994112  0  0  0.140121  0  0.993156  0  0  0.112991  0.135242  0  0.995437  0
H  H53  1  0.26435416  0.63808054  0.28502955  1  0  0.123233  0  0.936331  0  0  0.137406  0  0.994127  0  0  0.140101  0  0.993171  0  0  0.112975  0.135223  0  0.995452  0
H  H54  1  0.23564554  0.13808023  0.78502957  1  0  0.123224  0  0.936339  0  0  0.137385  0  0.99413  0  0  0.140079  0  0.993172  0  0  0.112981  0.135209  0  0.99545  0
H  H55  1  0.73564532  0.36191892  0.71497115  1  0  0.123254  0  0.936333  0  0  0.137427  0  0.994118  0  0  0.140121  0  0.993162  0  0  0.112986  0.135243  0  0.995442  0
C  C56  1  0.54499566  0.86166971  0.63481228  1  0  0.762074  0  3.780118  0  0  0.718623  0  4.076615  0  0  0.752628  0  4.06625  0  0  0.230341  0.695749  0  4.07838  0
C  C57  1  0.04499394  0.63833152  0.86518975  1  0  0.762073  0  3.779991  0  0  0.718669  0  4.076496  0  0  0.752678  0  4.066127  0  0  0.230322  0.6958  0  4.078252  0
C  C58  1  0.45500591  0.13833225  0.36518850  1  0  0.76205  0  3.780137  0  0  0.718632  0  4.076627  0  0  0.752639  0  4.066259  0  0  0.230293  0.695761  0  4.078389  0
C  C59  1  0.95500448  0.36166878  0.13481046  1  0  0.762101  0  3.78009  0  0  0.718665  0  4.076578  0  0  0.752674  0  4.066208  0  0  0.230303  0.695791  0  4.078344  0
C  C60  1  0.59896152  0.63953410  0.35652930  1  0  0.757423  0  3.792946  0  0  0.709129  0  4.095269  0  0  0.743107  0  4.08522  0  0  0.227462  0.686244  0  4.096789  0
C  C61  1  0.09896031  0.86046649  0.14347225  1  0  0.757475  0  3.792864  0  0  0.709167  0  4.095199  0  0  0.743146  0  4.085147  0  0  0.227454  0.686281  0  4.096722  0
C  C62  1  0.40104005  0.36046620  0.64347168  1  0  0.757445  0  3.792892  0  0  0.709139  0  4.095231  0  0  0.743117  0  4.085181  0  0  0.227439  0.686255  0  4.096745  0
C  C63  1  0.90103811  0.13953463  0.85653056  1  0  0.757418  0  3.792893  0  0  0.709128  0  4.095196  0  0  0.743108  0  4.085144  0  0  0.227459  0.686238  0  4.096719  0
C  C64  1  0.58950462  0.69183132  0.47830626  1  0  -0.263359  0  3.653593  0  0  -0.300916  0  3.899709  0  0  -0.307228  0  3.906749  0  0  -0.155196  -0.296679  0  3.895425  0
C  C65  1  0.08950529  0.80816844  0.02169423  1  0  -0.26335  0  3.65358  0  0  -0.300867  0  3.899717  0  0  -0.307176  0  3.906758  0  0  -0.155164  -0.296633  0  3.895443  0
C  C66  1  0.41049486  0.30816897  0.52169319  1  0  -0.263333  0  3.6535  0  0  -0.300914  0  3.899665  0  0  -0.307227  0  3.906705  0  0  -0.155198  -0.296681  0  3.895388  0
C  C67  1  0.91049523  0.19183185  0.97830599  1  0  -0.263361  0  3.653633  0  0  -0.300913  0  3.899711  0  0  -0.307225  0  3.906751  0  0  -0.155174  -0.296681  0  3.895436  0
C  C68  1  0.74346962  0.00199687  0.09311262  1  0  0.752634  0  3.784386  0  0  0.710758  0  4.084389  0  0  0.744404  0  4.074282  0  0  0.222976  0.688184  0  4.085657  0
C  C69  1  0.24346886  0.49800247  0.40688785  1  0  0.752682  0  3.784378  0  0  0.710767  0  4.084465  0  0  0.74441  0  4.074363  0  0  0.223004  0.688189  0  4.085743  0
C  C70  1  0.25653090  0.99800259  0.90688731  1  0  0.752628  0  3.784339  0  0  0.710776  0  4.084337  0  0  0.744421  0  4.074231  0  0  0.222969  0.688199  0  4.085615  0
C  C71  1  0.75652956  0.50199699  0.59311285  1  0  0.752617  0  3.784411  0  0  0.710739  0  4.084415  0  0  0.744384  0  4.07431  0  0  0.222965  0.68817  0  4.085675  0
C  C72  1  0.51274994  0.80362397  0.51617626  1  0  -0.248526  0  3.661065  0  0  -0.289365  0  3.908956  0  0  -0.294724  0  3.915237  0  0  -0.157704  -0.285964  0  3.905345  0
C  C73  1  0.01274947  0.69637641  0.98382468  1  0  -0.248397  0  3.660926  0  0  -0.289411  0  3.909026  0  0  -0.29478  0  3.915321  0  0  -0.157682  -0.286007  0  3.905404  0
C  C74  1  0.48724953  0.19637632  0.48382472  1  0  -0.248442  0  3.660962  0  0  -0.289367  0  3.908929  0  0  -0.294726  0  3.915209  0  0  -0.157686  -0.285963  0  3.90531  0
C  C75  1  0.98725000  0.30362388  0.01617630  1  0  -0.248557  0  3.661144  0  0  -0.289423  0  3.909016  0  0  -0.294786  0  3.915297  0  0  -0.1577  -0.286023  0  3.905403  0
C  C76  1  0.77607869  0.97533334  0.37808418  1  0  0.762858  0  3.776199  0  0  0.719538  0  4.074298  0  0  0.753785  0  4.063329  0  0  0.227793  0.696581  0  4.076376  0
C  C77  1  0.27607760  0.52466644  0.12191497  1  0  0.762915  0  3.776189  0  0  0.719578  0  4.074317  0  0  0.753828  0  4.063345  0  0  0.227828  0.69662  0  4.076397  0
C  C78  1  0.22392078  0.02466695  0.62191604  1  0  0.762814  0  3.776215  0  0  0.719486  0  4.074311  0  0  0.753729  0  4.063345  0  0  0.227789  0.696528  0  4.076393  0
C  C79  1  0.72392187  0.47533302  0.87808496  1  0  0.762885  0  3.776197  0  0  0.719544  0  4.074333  0  0  0.753792  0  4.063362  0  0  0.227802  0.69658  0  4.076421  0
C  C80  1  0.79809645  0.02768801  0.20800278  1  0  -0.234278  0  3.607375  0  0  -0.272548  0  3.850794  0  0  -0.278046  0  3.85737  0  0  -0.151655  -0.26915  0  3.847648  0
C  C81  1  0.29809652  0.47231217  0.29199727  1  0  -0.234218  0  3.607303  0  0  -0.272523  0  3.850764  0  0  -0.278023  0  3.857352  0  0  -0.15164  -0.269122  0  3.847615  0
C  C82  1  0.20190408  0.97231145  0.79199639  1  0  -0.234286  0  3.607353  0  0  -0.272632  0  3.850845  0  0  -0.278134  0  3.857428  0  0  -0.151646  -0.269227  0  3.847696  0
C  C83  1  0.70190400  0.52768812  0.70800295  1  0  -0.234293  0  3.607411  0  0  -0.272566  0  3.850829  0  0  -0.278064  0  3.857407  0  0  -0.15167  -0.269167  0  3.847681  0
C  C84  1  0.73276687  0.94814527  0.26032396  1  0  -0.23441  0  3.615465  0  0  -0.270337  0  3.857112  0  0  -0.275944  0  3.864045  0  0  -0.150169  -0.266942  0  3.853705  0
C  C85  1  0.23276705  0.55185450  0.23967668  1  0  -0.234393  0  3.615435  0  0  -0.270322  0  3.857127  0  0  -0.275925  0  3.864047  0  0  -0.150161  -0.266928  0  3.853723  0
C  C86  1  0.26723365  0.05185335  0.73967568  1  0  -0.234376  0  3.615458  0  0  -0.270211  0  3.857043  0  0  -0.275812  0  3.863981  0  0  -0.150163  -0.266825  0  3.853641  0
C  C87  1  0.76723242  0.44814579  0.76032354  1  0  -0.234435  0  3.615486  0  0  -0.270339  0  3.857116  0  0  -0.275945  0  3.864045  0  0  -0.150154  -0.266947  0  3.853709  0
S  S88  1  0.00264498  0.75063375  0.49752886  1  0  1.712203  0  5.697065  0  0  1.593869  0  6.235851  0  0  1.650656  0  6.194505  0  0  0.62804  1.553592  0  6.259236  0
S  S89  1  0.50264650  0.74936683  0.00247105  1  0  1.712196  0  5.697077  0  0  1.59385  0  6.235875  0  0  1.650636  0  6.19453  0  0  0.628013  1.553577  0  6.259252  0
S  S90  1  0.99735449  0.24936654  0.50247059  1  0  1.712187  0  5.697081  0  0  1.593843  0  6.235875  0  0  1.650628  0  6.194532  0  0  0.628006  1.553571  0  6.25925  0
S  S91  1  0.49735402  0.25063346  0.99752763  1  0  1.712301  0  5.696995  0  0  1.593963  0  6.235797  0  0  1.650748  0  6.194446  0  0  0.628094  1.553686  0  6.25918  0
O  O92  1  0.63417450  0.94183671  0.66575285  1  0  -0.810269  0  2.071972  0  0  -0.763436  0  2.334975  0  0  -0.7871  0  2.322233  0  0  -0.423991  -0.737414  0  2.343199  0
O  O93  1  0.13417276  0.55816203  0.83424690  1  0  -0.810288  0  2.071922  0  0  -0.763462  0  2.334918  0  0  -0.787128  0  2.322177  0  0  -0.424  -0.737444  0  2.343144  0
O  O94  1  0.36582707  0.05816275  0.33424709  1  0  -0.81026  0  2.071934  0  0  -0.763459  0  2.334978  0  0  -0.787126  0  2.32224  0  0  -0.423978  -0.737444  0  2.343202  0
O  O95  1  0.86582566  0.44183577  0.16575323  1  0  -0.81028  0  2.072034  0  0  -0.763441  0  2.33501  0  0  -0.787108  0  2.322271  0  0  -0.423961  -0.737423  0  2.343236  0
O  O96  1  0.66625288  0.54665180  0.31522357  1  0  -0.840975  0  2.100081  0  0  -0.794843  0  2.36956  0  0  -0.818489  0  2.35601  0  0  -0.448327  -0.767802  0  2.377811  0
O  O97  1  0.16625275  0.95334796  0.18477853  1  0  -0.841003  0  2.100011  0  0  -0.794862  0  2.36949  0  0  -0.818507  0  2.355939  0  0  -0.448341  -0.767823  0  2.377744  0
O  O98  1  0.33374659  0.45334849  0.68477741  1  0  -0.841  0  2.099998  0  0  -0.794862  0  2.369481  0  0  -0.818508  0  2.355929  0  0  -0.448358  -0.767821  0  2.377732  0
O  O99  1  0.83374672  0.04665233  0.81522245  1  0  -0.840914  0  2.099985  0  0  -0.794794  0  2.369477  0  0  -0.818439  0  2.355926  0  0  -0.448323  -0.76775  0  2.377726  0
O  O100  1  0.89756427  0.83648337  0.56061126  1  0  -0.837696  0  1.975393  0  0  -0.780987  0  2.235428  0  0  -0.802266  0  2.21601  0  0  -0.397234  -0.760469  0  2.249355  0
O  O101  1  0.39756164  0.66351705  0.93938780  1  0  -0.837677  0  1.975313  0  0  -0.780953  0  2.235342  0  0  -0.80223  0  2.21592  0  0  -0.397227  -0.760439  0  2.249275  0
O  O102  1  0.10243730  0.16351692  0.43938742  1  0  -0.837673  0  1.975313  0  0  -0.780977  0  2.235382  0  0  -0.802251  0  2.215955  0  0  -0.397234  -0.760469  0  2.24931  0
O  O103  1  0.60243784  0.33648241  0.06061213  1  0  -0.837745  0  1.975369  0  0  -0.781035  0  2.235414  0  0  -0.802316  0  2.215998  0  0  -0.39725  -0.760525  0  2.249342  0
O  O104  1  0.48969577  0.82859396  0.70739998  1  0  -0.703925  0  2.01417  0  0  -0.646599  0  2.242649  0  0  -0.671886  0  2.232618  0  0  -0.357844  -0.624829  0  2.249786  0
O  O105  1  0.98969369  0.67140648  0.79260071  1  0  -0.703969  0  2.014058  0  0  -0.646662  0  2.242557  0  0  -0.671951  0  2.232523  0  0  -0.357839  -0.624893  0  2.249694  0
O  O106  1  0.51030475  0.17140717  0.29260129  1  0  -0.703898  0  2.01415  0  0  -0.646604  0  2.242655  0  0  -0.671893  0  2.232623  0  0  -0.35781  -0.624832  0  2.24979  0
O  O107  1  0.01030578  0.32859381  0.20740027  1  0  -0.703931  0  2.014045  0  0  -0.646652  0  2.242563  0  0  -0.671941  0  2.232531  0  0  -0.357849  -0.624878  0  2.249702  0
O  O108  1  0.10175864  0.79754127  0.43736545  1  0  -0.813259  0  1.978386  0  0  -0.766256  0  2.251135  0  0  -0.787297  0  2.232241  0  0  -0.418521  -0.745395  0  2.265033  0
O  O109  1  0.60175715  0.70245849  0.06263351  1  0  -0.813293  0  1.978401  0  0  -0.766299  0  2.251175  0  0  -0.787325  0  2.232251  0  0  -0.418517  -0.74544  0  2.26507  0
O  O110  1  0.89824293  0.20245819  0.56263371  1  0  -0.813296  0  1.978403  0  0  -0.766302  0  2.251189  0  0  -0.787337  0  2.232281  0  0  -0.418519  -0.745438  0  2.265083  0
O  O111  1  0.39824233  0.29754097  0.93736565  1  0  -0.813318  0  1.97837  0  0  -0.766311  0  2.25111  0  0  -0.787352  0  2.232225  0  0  -0.418568  -0.745443  0  2.265005  0
O  O112  1  0.92459395  0.65596263  0.41602056  1  0  -0.839526  0  1.996721  0  0  -0.783364  0  2.258551  0  0  -0.80493  0  2.239454  0  0  -0.388987  -0.762349  0  2.27153  0
O  O113  1  0.42459263  0.84403716  0.08397876  1  0  -0.839502  0  1.996712  0  0  -0.783342  0  2.258552  0  0  -0.804914  0  2.23947  0  0  -0.388988  -0.762335  0  2.271531  0
O  O114  1  0.07540657  0.34403766  0.58397966  1  0  -0.839495  0  1.996694  0  0  -0.78333  0  2.258539  0  0  -0.804902  0  2.239455  0  0  -0.388982  -0.762321  0  2.271512  0
O  O115  1  0.57540684  0.15596230  0.91602041  1  0  -0.839529  0  1.996694  0  0  -0.783379  0  2.25855  0  0  -0.804945  0  2.239462  0  0  -0.388996  -0.762367  0  2.271522  0
O  O116  1  0.80301960  0.80533734  0.75675375  1  0  -0.914619  0  1.819806  0  0  -0.87428  0  2.007523  0  0  -0.890991  0  1.97507  0  0  -0.646248  -0.856266  0  2.03305  0
O  O117  1  0.30301867  0.69466308  0.74324675  1  0  -0.914458  0  1.819938  0  0  -0.874118  0  2.007657  0  0  -0.890829  0  1.975206  0  0  -0.646187  -0.856107  0  2.033179  0
O  O118  1  0.19698092  0.19466212  0.24324618  1  0  -0.914489  0  1.819932  0  0  -0.874147  0  2.007638  0  0  -0.890857  0  1.975186  0  0  -0.64619  -0.856137  0  2.033158  0
O  O119  1  0.69698080  0.30533721  0.25675270  1  0  -0.914446  0  1.819941  0  0  -0.874114  0  2.007641  0  0  -0.890823  0  1.975192  0  0  -0.646187  -0.856099  0  2.033168  0
O  O120  1  0.08036184  0.71183588  0.57591937  1  0  -0.808459  0  1.972616  0  0  -0.759823  0  2.239954  0  0  -0.780628  0  2.221059  0  0  -0.417826  -0.738879  0  2.254248  0
O  O121  1  0.58036206  0.78816368  0.92407983  1  0  -0.808457  0  1.972648  0  0  -0.75981  0  2.239981  0  0  -0.780619  0  2.221095  0  0  -0.417815  -0.738862  0  2.254255  0
O  O122  1  0.91963868  0.28816358  0.42407979  1  0  -0.808452  0  1.972652  0  0  -0.759804  0  2.239986  0  0  -0.780611  0  2.221096  0  0  -0.417811  -0.738853  0  2.254262  0
O  O123  1  0.41963846  0.21183578  0.07591934  1  0  -0.808447  0  1.972626  0  0  -0.759798  0  2.239942  0  0  -0.780612  0  2.221072  0  0  -0.41781  -0.738855  0  2.254229  0
O  O124  1  0.68310515  0.99934305  0.45249375  1  0  -0.680443  0  1.932882  0  0  -0.631482  0  2.165718  0  0  -0.654484  0  2.155698  0  0  -0.366295  -0.610775  0  2.172631  0
O  O125  1  0.18310604  0.50065755  0.04750712  1  0  -0.68045  0  1.932978  0  0  -0.63151  0  2.165844  0  0  -0.654512  0  2.155822  0  0  -0.366311  -0.610803  0  2.172761  0
O  O126  1  0.31689537  0.00065725  0.54750569  1  0  -0.680441  0  1.93286  0  0  -0.631496  0  2.165715  0  0  -0.654497  0  2.155697  0  0  -0.366304  -0.610794  0  2.172633  0
O  O127  1  0.81689344  0.49934107  0.95249253  1  0  -0.680414  0  1.932956  0  0  -0.631479  0  2.165827  0  0  -0.654482  0  2.155805  0  0  -0.366301  -0.610777  0  2.172741  0
O  O128  1  0.65522089  0.17862996  0.71696253  1  0  -0.914541  0  1.82119  0  0  -0.874735  0  2.009688  0  0  -0.891683  0  1.977861  0  0  -0.644449  -0.857092  0  2.034631  0
O  O129  1  0.15522102  0.32137000  0.78303762  1  0  -0.914551  0  1.821161  0  0  -0.874749  0  2.009657  0  0  -0.891696  0  1.977834  0  0  -0.644455  -0.857107  0  2.034602  0
O  O130  1  0.34477859  0.82137116  0.28303874  1  0  -0.914579  0  1.821135  0  0  -0.874771  0  2.009631  0  0  -0.891719  0  1.977807  0  0  -0.64446  -0.857132  0  2.034566  0
O  O131  1  0.84477950  0.67862946  0.21696231  1  0  -0.914548  0  1.821147  0  0  -0.874748  0  2.009649  0  0  -0.891698  0  1.977824  0  0  -0.644451  -0.857109  0  2.034589  0
O  O132  1  0.61457743  0.02639505  0.07860917  1  0  -0.864055  0  2.12057  0  0  -0.818467  0  2.388779  0  0  -0.842403  0  2.376657  0  0  -0.459745  -0.79063  0  2.396453  0
O  O133  1  0.11457986  0.47360511  0.42139144  1  0  -0.864078  0  2.120663  0  0  -0.818468  0  2.388884  0  0  -0.842407  0  2.376772  0  0  -0.459778  -0.790625  0  2.396566  0
O  O134  1  0.38542204  0.97360441  0.92139153  1  0  -0.864084  0  2.120607  0  0  -0.818491  0  2.388795  0  0  -0.842429  0  2.376681  0  0  -0.459752  -0.79065  0  2.396476  0
O  O135  1  0.88542276  0.52639518  0.57860877  1  0  -0.864038  0  2.120545  0  0  -0.818461  0  2.388778  0  0  -0.842388  0  2.376637  0  0  -0.459747  -0.790622  0  2.396455  0
O  O136  1  0.54528001  0.68332185  0.29215798  1  0  -0.676596  0  2.01155  0  0  -0.617981  0  2.238599  0  0  -0.642833  0  2.229608  0  0  -0.334074  -0.597357  0  2.24509  0
O  O137  1  0.04527999  0.81667873  0.20784198  1  0  -0.676632  0  2.01158  0  0  -0.618006  0  2.238635  0  0  -0.642855  0  2.229643  0  0  -0.334069  -0.59738  0  2.245125  0
O  O138  1  0.45471842  0.31667927  0.70784022  1  0  -0.676569  0  2.011613  0  0  -0.61794  0  2.238659  0  0  -0.642789  0  2.229667  0  0  -0.334029  -0.597314  0  2.245149  0
O  O139  1  0.95471948  0.18332239  0.79215775  1  0  -0.676603  0  2.011505  0  0  -0.617986  0  2.238552  0  0  -0.642837  0  2.229561  0  0  -0.334074  -0.597356  0  2.245043  0
O  O140  1  0.90677322  0.97440235  0.40376373  1  0  -0.857424  0  2.124399  0  0  -0.811255  0  2.391494  0  0  -0.835349  0  2.378764  0  0  -0.44774  -0.784245  0  2.399901  0
O  O141  1  0.40677313  0.52559745  0.09623633  1  0  -0.857501  0  2.124353  0  0  -0.81132  0  2.39146  0  0  -0.835416  0  2.378729  0  0  -0.447768  -0.784309  0  2.399873  0
O  O142  1  0.09322835  0.02559795  0.59623572  1  0  -0.857407  0  2.124439  0  0  -0.811241  0  2.391544  0  0  -0.835335  0  2.378817  0  0  -0.447733  -0.784229  0  2.399956  0
O  O143  1  0.59322739  0.47440285  0.90376388  1  0  -0.857458  0  2.12431  0  0  -0.811286  0  2.391434  0  0  -0.835381  0  2.378703  0  0  -0.447759  -0.784273  0  2.399848  0
O  O144  1  0.82111151  0.95680339  0.01075057  1  0  -0.668433  0  1.92029  0  0  -0.621483  0  2.146746  0  0  -0.644455  0  2.13799  0  0  -0.357917  -0.601057  0  2.153246  0
O  O145  1  0.32111218  0.54319806  0.48924996  1  0  -0.668464  0  1.920269  0  0  -0.621495  0  2.146737  0  0  -0.644465  0  2.137982  0  0  -0.357911  -0.601063  0  2.153242  0
O  O146  1  0.17888901  0.04319690  0.98924887  1  0  -0.668414  0  1.920265  0  0  -0.621479  0  2.146722  0  0  -0.644448  0  2.137967  0  0  -0.357905  -0.601049  0  2.153229  0
O  O147  1  0.67888834  0.45680224  0.51075025  1  0  -0.668426  0  1.920324  0  0  -0.621465  0  2.146773  0  0  -0.644438  0  2.138017  0  0  -0.357898  -0.601038  0  2.153275  0
