# generated using pymatgen
data_CuH14C7N2O5
_symmetry_space_group_name_H-M   'P 1'
_cell_length_a   7.94097198
_cell_length_b   9.08505295
_cell_length_c   14.90083753
_cell_angle_alpha   90.00004558
_cell_angle_beta   89.99992469
_cell_angle_gamma   90.01161089
_symmetry_Int_Tables_number   1
_chemical_formula_structural   CuH14C7N2O5
_chemical_formula_sum   'Cu4 H56 C28 N8 O20'
_cell_volume   1075.00824921
_cell_formula_units_Z   4
loop_
 _symmetry_equiv_pos_site_id
 _symmetry_equiv_pos_as_xyz
  1  'x, y, z'
loop_
 _atom_site_type_symbol
 _atom_site_label
 _atom_site_symmetry_multiplicity
 _atom_site_fract_x
 _atom_site_fract_y
 _atom_site_fract_z
 _atom_site_occupancy
 _atom_site_hle17_ddec_charge
 _atom_site_hle17_ddec_spin_density
 _atom_site_hle17_ddec_sum_bond_order
 _atom_site_hle17_magmom
 _atom_site_hse06_10hf_ddec_charge
 _atom_site_hse06_10hf_ddec_spin_density
 _atom_site_hse06_10hf_ddec_sum_bond_order
 _atom_site_hse06_10hf_magmom
 _atom_site_hse06_ddec_charge
 _atom_site_hse06_ddec_spin_density
 _atom_site_hse06_ddec_sum_bond_order
 _atom_site_hse06_magmom
 _atom_site_pbe_cm5_charge
 _atom_site_pbe_ddec_charge
 _atom_site_pbe_ddec_spin_density
 _atom_site_pbe_ddec_sum_bond_order
 _atom_site_pbe_magmom
Cu  Cu0  1  0.53990480  0.73662242  0.50000007  1  0.887318  0.695915  1.760551  0.504  0.870346  0.782907  2.149925  0.616  0.9532  0.850458  2.087652  0.698  0.711939  0.82001  0.734165  2.193648  0.562
Cu  Cu1  1  0.46005763  0.23658310  0.50000065  1  0.887131  0.69593  1.761055  0.504  0.87028  0.783029  2.150428  0.616  0.953134  0.850497  2.088202  0.698  0.71188  0.819966  0.734949  2.194173  0.563
Cu  Cu2  1  0.98216949  0.46355301  0.00000044  1  0.902504  -0.753525  1.743013  -0.502  0.888641  -0.834924  2.127172  -0.617  0.972317  -0.919816  2.064455  -0.699  0.713554  0.837481  -0.771976  2.171688  -0.563
Cu  Cu3  1  0.01786614  0.96358759  0.00000023  1  0.90266  0.69462  1.74327  0.503  0.888806  0.785164  2.127261  0.617  0.971958  0.852267  2.064729  0.699  0.713596  0.837829  0.737286  2.171645  0.564
H  H4  1  0.68721024  0.46612514  0.55443851  1  0.405366  -0.000252  0.910986  0.0  0.373631  -0.000246  0.979809  0.0  0.385951  -0.000247  0.961283  0.0  0.276423  0.36465  -0.000229  0.993463  0.0
H  H5  1  0.31278192  0.96611679  0.44557173  1  0.405452  -0.000264  0.910906  0.0  0.373743  -0.000262  0.979714  0.0  0.386065  -0.000255  0.961184  0.0  0.276463  0.364755  -0.000256  0.99338  0.0
H  H6  1  0.68720912  0.46612507  0.44556409  1  0.405403  -0.000251  0.910944  0.0  0.373659  -0.000246  0.979784  0.0  0.385978  -0.000247  0.961258  0.0  0.276457  0.364679  -0.00023  0.993437  0.0
H  H7  1  0.31277801  0.96611576  0.55442735  1  0.405446  -0.000265  0.910916  0.0  0.373733  -0.000262  0.979728  0.0  0.386055  -0.000255  0.961199  0.0  0.276471  0.364747  -0.000256  0.993394  0.0
H  H8  1  0.80999592  0.73703058  0.94559306  1  0.405087  -0.000144  0.912581  0.0  0.375133  -0.000122  0.978564  0.0  0.387428  -0.000135  0.960173  0.0  0.275055  0.366341  -8.6e-05  0.991878  0.0
H  H9  1  0.18997291  0.23704671  0.05441237  1  0.405129  0.000138  0.91257  0.0  0.375212  0.000121  0.97848  0.0  0.387393  0.000123  0.960269  0.0  0.275116  0.366413  0.000103  0.991805  0.0
H  H10  1  0.80999325  0.73703110  0.05440825  1  0.405136  -0.000143  0.912489  0.0  0.375193  -0.000122  0.978451  0.0  0.387487  -0.000135  0.960062  0.0  0.275101  0.366403  -8.6e-05  0.991763  0.0
H  H11  1  0.18997054  0.23704618  0.94559181  1  0.405193  0.000138  0.912485  0.0  0.375282  0.000121  0.978385  0.0  0.387462  0.000123  0.960174  0.0  0.275155  0.366483  0.000103  0.99171  0.0
H  H12  1  0.63814999  0.94269143  0.39866418  1  0.296642  -0.000656  0.935499  -0.002  0.283509  0.000338  1.003643  0.0  0.290615  1.2e-05  0.999677  -0.001  0.287155  0.278365  0.000605  1.006831  0.0
H  H13  1  0.36190091  0.44264599  0.60134336  1  0.296834  -0.0007  0.935404  -0.002  0.283666  0.000297  1.003615  0.0  0.290792  -1.5e-05  0.999619  -0.001  0.287167  0.278488  0.000553  1.006856  0.0
H  H14  1  0.63814848  0.94269266  0.60133869  1  0.296675  -0.000654  0.935442  -0.002  0.283527  0.000338  1.003607  0.0  0.290634  1.2e-05  0.999638  -0.001  0.287169  0.278382  0.000605  1.006798  0.0
H  H15  1  0.36190116  0.44264696  0.39865744  1  0.296833  -0.000699  0.935366  -0.002  0.283684  0.000298  1.003525  0.0  0.290809  -1.4e-05  0.99953  -0.001  0.287186  0.278508  0.000553  1.006762  0.0
H  H16  1  0.64601465  0.78380253  0.34374038  1  0.298004  -0.000509  0.876307  -0.001  0.295848  0.000598  0.922532  0.0  0.301323  0.000228  0.920562  0.0  0.304464  0.291627  0.00087  0.924903  0.001
H  H17  1  0.35401043  0.28372716  0.65623756  1  0.298349  -0.000518  0.876037  -0.001  0.296046  0.000588  0.922419  0.0  0.30151  0.00022  0.920475  0.0  0.304604  0.291812  0.000859  0.924839  0.001
H  H18  1  0.64601426  0.78380163  0.65626106  1  0.298049  -0.00051  0.876254  -0.001  0.295861  0.000597  0.922498  0.0  0.301337  0.000227  0.920527  0.0  0.304446  0.291645  0.00087  0.924872  0.001
H  H19  1  0.35401712  0.28373137  0.34376317  1  0.298417  -0.000518  0.87615  -0.001  0.296128  0.000588  0.922495  0.0  0.301591  0.00022  0.920552  0.0  0.304688  0.291893  0.000858  0.924907  0.001
H  H20  1  0.87563768  0.41558476  0.15593801  1  0.295398  0.000291  0.87772  0.001  0.293321  -0.000716  0.924438  0.0  0.298813  -0.000335  0.922389  0.0  0.303966  0.289167  -0.000985  0.926799  -0.001
H  H21  1  0.12440564  0.91561759  0.84404670  1  0.295665  -0.000473  0.877451  -0.001  0.293525  0.000647  0.924239  0.0  0.298968  0.000255  0.922206  0.0  0.304064  0.289374  0.000941  0.92659  0.001
H  H22  1  0.87563683  0.41558410  0.84406242  1  0.29541  0.000286  0.877723  0.001  0.293324  -0.000716  0.92445  0.0  0.298814  -0.000335  0.922404  0.0  0.303984  0.289171  -0.000985  0.926813  -0.001
H  H23  1  0.12441153  0.91562154  0.15595182  1  0.295663  -0.000477  0.87743  -0.001  0.293503  0.000647  0.924243  0.0  0.298945  0.000256  0.922212  0.0  0.30405  0.28935  0.000941  0.926588  0.001
H  H24  1  0.86487150  0.25994131  0.09775199  1  0.302548  0.000747  0.924043  0.002  0.28996  -0.000203  0.989671  0.0  0.297042  -2.1e-05  0.985731  0.001  0.289234  0.284946  -0.000333  0.992701  0.0
H  H25  1  0.13509513  0.75999591  0.90225009  1  0.301834  -0.000906  0.924796  -0.002  0.289257  0.000139  0.990373  0.0  0.296349  -5.1e-05  0.986369  -0.001  0.289084  0.284218  0.000286  0.993431  0.0
H  H26  1  0.86487051  0.25994073  0.90225106  1  0.302586  0.000744  0.923989  0.002  0.289996  -0.000203  0.989614  0.0  0.297075  -2.1e-05  0.98568  0.001  0.289253  0.284982  -0.000333  0.992645  0.0
H  H27  1  0.13509739  0.75999649  0.09774834  1  0.301879  -0.00091  0.924746  -0.002  0.289311  0.000139  0.990327  0.0  0.296406  -5.1e-05  0.986314  -0.001  0.289095  0.284272  0.000286  0.993385  0.0
H  H28  1  0.92360703  0.88444053  0.35636711  1  0.049561  0.00734  0.932406  0.009  0.06114  0.004843  1.001827  0.006  0.058957  0.003357  1.003883  0.004  0.094228  0.062684  0.005938  1.000206  0.007
H  H29  1  0.07645669  0.38436152  0.64362765  1  0.049412  0.00735  0.932685  0.009  0.060926  0.004839  1.002128  0.006  0.058723  0.003353  1.004171  0.004  0.094279  0.062457  0.005935  1.000527  0.007
H  H30  1  0.92360668  0.88444511  0.64363419  1  0.049613  0.007346  0.932397  0.009  0.061172  0.004843  1.001842  0.006  0.05899  0.003357  1.003894  0.004  0.094268  0.062718  0.005939  1.000227  0.007
H  H31  1  0.07646209  0.38436244  0.35636863  1  0.049363  0.00735  0.93269  0.009  0.060874  0.004839  1.00214  0.006  0.058674  0.003353  1.004177  0.004  0.094256  0.062404  0.005935  1.000537  0.007
H  H32  1  0.90264397  0.71583651  0.41639860  1  0.064762  0.000717  0.915117  0.001  0.0853  0.000543  0.969495  0.001  0.083941  0.000359  0.971214  0.001  0.106577  0.086078  0.000694  0.968418  0.001
H  H33  1  0.09735767  0.21578313  0.58361218  1  0.064706  0.000727  0.915614  0.001  0.085168  0.000558  0.970028  0.001  0.083799  0.00037  0.971747  0.001  0.106563  0.085972  0.000714  0.968915  0.001
H  H34  1  0.90264376  0.71583882  0.58360330  1  0.06481  0.000718  0.915043  0.001  0.085305  0.000543  0.969476  0.001  0.083943  0.000359  0.971194  0.001  0.106584  0.086092  0.000694  0.968391  0.001
H  H35  1  0.09736040  0.21578302  0.41638400  1  0.064711  0.000728  0.915607  0.001  0.085164  0.000558  0.970029  0.001  0.083795  0.00037  0.971749  0.001  0.106582  0.085968  0.000714  0.968916  0.001
H  H36  1  0.62756579  0.50972308  0.08590783  1  0.06597  -0.000778  0.918663  -0.001  0.086583  -0.000591  0.972935  -0.001  0.085457  -0.000391  0.974199  -0.001  0.106225  0.087335  -0.000736  0.971954  -0.001
H  H37  1  0.37252242  0.00976137  0.91407869  1  0.065776  0.000709  0.91889  0.001  0.086365  0.00055  0.973174  0.001  0.085226  0.000356  0.974444  0.001  0.106195  0.087115  0.000698  0.972182  0.001
H  H38  1  0.62756350  0.50972362  0.91409215  1  0.065898  -0.000776  0.918727  -0.001  0.086536  -0.000591  0.972978  -0.001  0.08541  -0.000391  0.974241  -0.001  0.106213  0.087291  -0.000736  0.971997  -0.001
H  H39  1  0.37251967  0.00976304  0.08591316  1  0.065803  0.000704  0.918967  0.001  0.086409  0.00055  0.973211  0.001  0.085272  0.000356  0.974478  0.001  0.106206  0.087159  0.000698  0.972215  0.001
H  H40  1  0.58825237  0.34146198  0.14369784  1  0.052906  -0.007722  0.942263  -0.009  0.063526  -0.004959  1.013823  -0.006  0.061416  -0.003488  1.015996  -0.004  0.094951  0.064985  -0.005988  1.012218  -0.007
H  H41  1  0.41173584  0.84148145  0.85630227  1  0.052881  0.007129  0.942217  0.009  0.063503  0.00464  1.013774  0.006  0.061363  0.003216  1.015981  0.004  0.094922  0.064926  0.005688  1.012205  0.007
H  H42  1  0.58825400  0.34146024  0.85630342  1  0.052905  -0.007722  0.942272  -0.009  0.063519  -0.004959  1.013842  -0.006  0.06141  -0.003488  1.016015  -0.004  0.094957  0.06498  -0.005988  1.012241  -0.007
H  H43  1  0.41174050  0.84148870  0.14369131  1  0.05288  0.007126  0.942228  0.009  0.063505  0.00464  1.013779  0.006  0.061365  0.003216  1.015989  0.004  0.094906  0.064929  0.005689  1.012205  0.007
H  H44  1  0.86209424  0.02268680  0.49999979  1  0.084733  -0.000142  0.932341  0.0  0.102759  -6.8e-05  0.988401  0.0  0.103524  -5.9e-05  0.989553  0.0  0.095111  0.10196  -7.3e-05  0.98785  0.0
H  H45  1  0.13799321  0.52258838  0.49999815  1  0.084764  -0.000147  0.932308  0.0  0.102906  -7.2e-05  0.988353  0.0  0.103676  -6.3e-05  0.989497  0.0  0.095283  0.102105  -7.9e-05  0.987823  0.0
H  H46  1  0.05211483  0.92352621  0.50000029  1  0.090885  -0.000334  0.972618  0.0  0.107983  -0.000125  1.031714  0.0  0.10854  -9.7e-05  1.032213  0.0  0.098068  0.107214  -0.000144  1.031856  0.0
H  H47  1  0.94796055  0.42344159  0.49999784  1  0.090708  -0.000337  0.972814  0.0  0.107924  -0.000119  1.031846  0.0  0.108465  -9.3e-05  1.032363  0.0  0.098025  0.10722  -0.000137  1.031936  0.0
H  H48  1  0.45146906  0.32654297  0.00000059  1  0.086893  0.000362  0.953151  0.0  0.103156  0.00015  1.013167  0.0  0.102954  0.000125  1.014816  0.0  0.099067  0.102992  0.000158  1.012444  0.0
H  H49  1  0.54850433  0.82659216  0.99999749  1  0.086972  -0.000384  0.953101  0.0  0.103135  -0.000162  1.013203  0.0  0.102909  -0.000137  1.014904  0.0  0.099137  0.102965  -0.00017  1.01248  0.0
H  H50  1  0.62149795  0.20212670  1.00000000  1  0.086485  9.9e-05  0.926088  0.0  0.104397  5.4e-05  0.980776  0.0  0.105194  3.1e-05  0.981852  0.0  0.09642  0.103623  7.7e-05  0.980205  0.0
H  H51  1  0.37842622  0.70217839  0.99999819  1  0.086372  -0.000109  0.92593  0.0  0.10426  -6.2e-05  0.980651  0.0  0.105087  -3.6e-05  0.981697  0.0  0.09645  0.103464  -8.5e-05  0.980099  0.0
H  H52  1  0.10235921  0.69384220  0.24847744  1  0.116384  0.000703  0.942504  0.001  0.125619  0.000626  1.003041  0.0  0.129604  0.000436  1.000399  0.0  0.110674  0.122846  0.000784  1.005153  0.001
H  H53  1  0.89762596  0.19390427  0.75147025  1  0.116457  0.000238  0.942706  0.0  0.125672  0.000163  1.003226  0.0  0.129656  8e-05  1.000571  0.0  0.110723  0.122921  0.000252  1.005334  0.0
H  H54  1  0.10235859  0.69383592  0.75151964  1  0.116389  0.000703  0.942552  0.001  0.125638  0.000626  1.003067  0.0  0.129626  0.000436  1.000422  0.0  0.110711  0.122865  0.000784  1.005179  0.001
H  H55  1  0.89762029  0.19390394  0.24853543  1  0.116456  0.000235  0.942701  0.0  0.12566  0.000163  1.003237  0.0  0.12964  8e-05  1.000591  0.0  0.110722  0.122908  0.000252  1.005344  0.0
H  H56  1  0.42732144  0.50631102  0.24932287  1  0.121714  -0.000525  0.942145  -0.001  0.129587  -0.000274  1.00478  0.0  0.133403  -0.000192  1.002388  0.0  0.111322  0.126902  -0.000339  1.006756  0.0
H  H57  1  0.57266018  0.00624226  0.75069586  1  0.121743  0.000611  0.94222  0.001  0.129589  0.000588  1.004877  0.001  0.133399  0.000399  1.002522  0.0  0.111297  0.126924  0.000739  1.006819  0.001
H  H58  1  0.42732334  0.50630914  0.75067523  1  0.121716  -0.000529  0.942187  -0.001  0.12959  -0.000274  1.004812  0.0  0.133407  -0.000192  1.00242  0.0  0.111332  0.126909  -0.000339  1.00679  0.0
H  H59  1  0.57265324  0.00624414  0.24930659  1  0.121775  0.00061  0.942252  0.001  0.129622  0.000588  1.004918  0.001  0.133434  0.000399  1.002561  0.0  0.111291  0.126956  0.000739  1.006859  0.001
C  C60  1  0.86244580  0.83158245  0.41445379  1  0.091672  -0.001721  3.63125  -0.004  0.038831  0.001035  3.901993  -0.001  0.04545  2.4e-05  3.917443  -0.002  -0.073555  0.034747  0.001931  3.89136  0.0
C  C61  1  0.13756401  0.33151851  0.58553759  1  0.091643  -0.001725  3.632182  -0.004  0.039089  0.001042  3.902852  -0.001  0.045759  3.1e-05  3.918247  -0.002  -0.073655  0.034993  0.001943  3.892259  0.0
C  C62  1  0.86244685  0.83158476  0.58554686  1  0.091616  -0.001731  3.631316  -0.004  0.038781  0.001034  3.902061  -0.001  0.045413  2.3e-05  3.917497  -0.002  -0.073612  0.03469  0.001931  3.891435  0.0
C  C63  1  0.13756801  0.33151950  0.41445794  1  0.091582  -0.001727  3.63211  -0.004  0.039021  0.001042  3.902791  -0.001  0.045691  3e-05  3.918183  -0.002  -0.073753  0.034921  0.001942  3.892196  0.0
C  C64  1  0.65372880  0.39094677  0.08595343  1  0.083679  0.00108  3.635398  0.004  0.029664  -0.001317  3.905562  0.001  0.036309  -0.000297  3.920616  0.002  -0.075663  0.025533  -0.002185  3.895377  0.0
C  C65  1  0.34628735  0.89099334  0.91403865  1  0.083766  -0.001648  3.635448  -0.004  0.029811  0.001067  3.905438  -0.001  0.036398  4.8e-05  3.920426  -0.002  -0.075621  0.025699  0.001974  3.895307  0.0
C  C66  1  0.65372777  0.39094840  0.91404849  1  0.083825  0.001071  3.635403  0.004  0.029792  -0.001317  3.905586  0.001  0.036435  -0.000297  3.920635  0.002  -0.075613  0.02566  -0.002185  3.895408  0.0
C  C67  1  0.34628964  0.89099721  0.08595298  1  0.083683  -0.001624  3.635917  -0.004  0.029704  0.001068  3.905903  -0.001  0.036288  4.7e-05  3.920898  -0.002  -0.075658  0.025582  0.001974  3.895768  0.0
C  C68  1  0.91483138  0.91048483  0.49999999  1  -0.174158  0.001541  3.666348  0.002  -0.207473  0.001027  3.915521  0.002  -0.210939  0.000618  3.930001  0.001  -0.16949  -0.204829  0.001393  3.90555  0.002
C  C69  1  0.08521325  0.41041488  0.49999881  1  -0.173568  0.001565  3.666191  0.002  -0.207471  0.001025  3.915838  0.002  -0.210949  0.000616  3.930315  0.001  -0.169632  -0.204883  0.001391  3.905899  0.002
C  C70  1  0.58939349  0.32010823  0.00000054  1  -0.165072  -0.001658  3.66325  -0.002  -0.197067  -0.001046  3.913698  -0.002  -0.200182  -0.000663  3.928344  -0.001  -0.165542  -0.194696  -0.001375  3.903656  -0.002
C  C71  1  0.41057965  0.82016842  0.99999821  1  -0.164523  0.00148  3.66254  0.002  -0.196464  0.00097  3.913122  0.002  -0.19963  0.000597  3.927799  0.001  -0.165566  -0.194102  0.001304  3.9031  0.002
C  C72  1  0.30355973  0.73547664  0.34716714  1  0.669634  -0.001959  3.923382  -0.004  0.628632  0.000615  4.218574  -0.001  0.665642  0.000166  4.208403  -0.001  0.203702  0.603388  0.001011  4.224717  -0.001
C  C73  1  0.69640621  0.23547573  0.65283493  1  0.670442  -0.001967  3.922608  -0.004  0.62918  0.000692  4.218152  -0.001  0.666172  0.000191  4.207984  -0.001  0.203878  0.603985  0.001174  4.224245  0.0
C  C74  1  0.30355935  0.73547244  0.65283049  1  0.669681  -0.001957  3.923267  -0.004  0.628586  0.000615  4.218605  -0.001  0.665597  0.000166  4.208434  -0.001  0.203604  0.60334  0.001011  4.224752  -0.001
C  C75  1  0.69640533  0.23547773  0.34716755  1  0.670336  -0.001962  3.922615  -0.004  0.629164  0.000691  4.218039  -0.001  0.666157  0.000191  4.207869  -0.001  0.203914  0.60396  0.001174  4.224129  0.0
C  C76  1  0.22443096  0.46473697  0.15122509  1  0.669804  0.001418  3.92126  0.003  0.628294  -0.000786  4.218296  0.001  0.665161  -0.0004  4.208372  0.001  0.203115  0.603211  -0.00116  4.224369  0.0
C  C77  1  0.77559237  0.96474108  0.84878581  1  0.670149  -0.001796  3.921067  -0.003  0.628615  0.000746  4.218068  0.0  0.665383  0.000251  4.208131  -0.001  0.203413  0.603592  0.001292  4.224086  0.0
C  C78  1  0.22443261  0.46474072  0.84877582  1  0.66972  0.001421  3.921008  0.003  0.628248  -0.000786  4.217993  0.001  0.665114  -0.0004  4.208068  0.001  0.203094  0.60317  -0.00116  4.224072  0.0
C  C79  1  0.77559071  0.96474063  0.15121898  1  0.670161  -0.001808  3.921065  -0.003  0.628627  0.000747  4.218095  0.0  0.665394  0.000252  4.208159  -0.001  0.203464  0.603605  0.001292  4.224104  0.0
C  C80  1  0.22540755  0.65464136  0.27091908  1  -0.172659  0.005094  3.67449  0.006  -0.192465  0.002794  3.930307  0.003  -0.195591  0.001783  3.939339  0.002  -0.087982  -0.190872  0.003472  3.9249  0.004
C  C81  1  0.77458483  0.15464107  0.72907355  1  -0.173114  0.007781  3.674986  0.008  -0.192739  0.00517  3.93076  0.006  -0.195849  0.003538  3.939813  0.004  -0.088131  -0.191188  0.006805  3.92535  0.007
C  C82  1  0.22540446  0.65463506  0.72907856  1  -0.172649  0.005089  3.674553  0.006  -0.192446  0.002796  3.930394  0.003  -0.195572  0.001783  3.939424  0.002  -0.087976  -0.190851  0.003473  3.924991  0.004
C  C83  1  0.77458036  0.15464517  0.27093085  1  -0.173145  0.00781  3.674975  0.008  -0.192787  0.00517  3.930761  0.006  -0.195898  0.003534  3.939812  0.004  -0.088177  -0.191236  0.006804  3.925347  0.007
C  C84  1  0.30427061  0.54577713  0.22697250  1  -0.174808  -0.003534  3.666062  -0.004  -0.193772  -0.000923  3.921216  -0.002  -0.19667  -0.000579  3.930388  -0.001  -0.087348  -0.192277  -0.000958  3.915699  -0.002
C  C85  1  0.69573283  0.04577074  0.77303014  1  -0.175187  0.007176  3.666481  0.007  -0.194093  0.005037  3.921556  0.005  -0.19707  0.003325  3.930848  0.004  -0.087521  -0.192563  0.006654  3.915969  0.007
C  C86  1  0.30426994  0.54577418  0.77302436  1  -0.174887  -0.003519  3.666305  -0.004  -0.193852  -0.000924  3.921443  -0.002  -0.19675  -0.000578  3.930614  -0.001  -0.087422  -0.192362  -0.000958  3.915938  -0.002
C  C87  1  0.69572595  0.04577809  0.22697157  1  -0.175133  0.007156  3.66648  0.007  -0.194058  0.005037  3.921596  0.005  -0.197037  0.003328  3.930892  0.004  -0.087454  -0.192531  0.006656  3.916  0.007
N  N88  1  0.67766271  0.83436531  0.40270753  1  -0.597974  0.105356  3.146965  0.132  -0.585321  0.069659  3.426877  0.091  -0.618826  0.056016  3.43077  0.078  -0.640214  -0.564913  0.076918  3.426494  0.096
N  N89  1  0.32230872  0.33433274  0.59730599  1  -0.598395  0.105398  3.147416  0.132  -0.585648  0.069699  3.42723  0.091  -0.619169  0.056039  3.431096  0.078  -0.640238  -0.565279  0.077014  3.42692  0.096
N  N90  1  0.67766373  0.83436654  0.59729324  1  -0.598076  0.105359  3.146961  0.132  -0.585321  0.069661  3.42678  0.091  -0.618829  0.056019  3.430666  0.078  -0.640172  -0.564915  0.076916  3.426408  0.096
N  N91  1  0.32231274  0.33433372  0.40269411  1  -0.598453  0.10539  3.147461  0.132  -0.5857  0.069696  3.42726  0.091  -0.61922  0.056037  3.431119  0.078  -0.640316  -0.565331  0.077015  3.42695  0.096
N  N92  1  0.83752011  0.37123160  0.09624338  1  -0.597508  -0.113287  3.141046  -0.13  -0.583568  -0.073872  3.41811  -0.091  -0.617575  -0.060638  3.422585  -0.078  -0.639391  -0.563038  -0.080052  3.417499  -0.095
N  N93  1  0.16249269  0.87128661  0.90375204  1  -0.597374  0.104543  3.14158  0.131  -0.583275  0.069434  3.418609  0.091  -0.616836  0.055977  3.422741  0.078  -0.639521  -0.562872  0.076497  3.418067  0.096
N  N94  1  0.83751785  0.37123323  0.90375772  1  -0.597605  -0.113273  3.140994  -0.13  -0.583659  -0.073872  3.418113  -0.091  -0.617658  -0.060639  3.422579  -0.078  -0.639451  -0.563129  -0.080049  3.41751  -0.095
N  N95  1  0.16249496  0.87128829  0.09624575  1  -0.597404  0.104556  3.141663  0.131  -0.583292  0.069435  3.41865  0.091  -0.616857  0.055979  3.422786  0.078  -0.639482  -0.56288  0.076503  3.418103  0.096
O  O96  1  0.38573184  0.65674908  0.40446051  1  -0.624436  0.057439  2.090318  0.078  -0.580217  0.040338  2.356411  0.059  -0.618423  0.032165  2.346264  0.049  -0.324729  -0.553975  0.045836  2.363293  0.064
O  O97  1  0.61411496  0.15679528  0.59555494  1  -0.625033  0.057432  2.09042  0.078  -0.580815  0.040493  2.356828  0.059  -0.618963  0.032257  2.346635  0.05  -0.325266  -0.554686  0.046097  2.363757  0.064
O  O98  1  0.38573538  0.65674810  0.59553836  1  -0.624451  0.057432  2.090454  0.078  -0.580168  0.040336  2.356555  0.059  -0.618375  0.032163  2.346409  0.049  -0.324683  -0.553924  0.04583  2.363438  0.064
O  O99  1  0.61411898  0.15679626  0.40444890  1  -0.624983  0.05743  2.090463  0.078  -0.580785  0.040492  2.35681  0.059  -0.618935  0.032257  2.346624  0.05  -0.325317  -0.554654  0.046098  2.363734  0.064
O  O100  1  0.13686266  0.54239968  0.09568397  1  -0.626528  -0.060832  2.080198  -0.076  -0.582661  -0.042255  2.345153  -0.057  -0.621102  -0.034566  2.335539  -0.049  -0.326463  -0.556444  -0.046888  2.351848  -0.062
O  O101  1  0.86316895  0.04239755  0.90432337  1  -0.626464  0.056077  2.080916  0.076  -0.58253  0.039763  2.345846  0.057  -0.620483  0.031879  2.335915  0.049  -0.326489  -0.556507  0.044999  2.352596  0.062
O  O102  1  0.13685914  0.54240130  0.90431637  1  -0.626436  -0.060831  2.080273  -0.076  -0.582587  -0.042253  2.34522  -0.057  -0.621025  -0.034565  2.335603  -0.049  -0.326434  -0.556372  -0.046883  2.35192  -0.062
O  O103  1  0.86316744  0.04239813  0.09568024  1  -0.626462  0.056091  2.080842  0.076  -0.582536  0.039766  2.34578  0.057  -0.620492  0.031881  2.335849  0.049  -0.3265  -0.556514  0.045007  2.352528  0.062
O  O104  1  0.28621651  0.87332022  0.34855300  1  -0.608939  -0.000456  1.904349  0.0  -0.557425  0.000205  2.11388  0.001  -0.581899  -0.000331  2.102034  0.0  -0.318297  -0.540136  0.000753  2.122219  0.001
O  O105  1  0.71382322  0.37330584  0.65146390  1  -0.609004  0.000508  1.904451  0.001  -0.557375  0.000697  2.114039  0.001  -0.581848  -6.2e-05  2.102195  0.0  -0.318049  -0.540062  0.001654  2.122365  0.003
O  O106  1  0.28621362  0.87332042  0.65144605  1  -0.608976  -0.000456  1.904227  0.0  -0.557425  0.000205  2.113798  0.001  -0.5819  -0.00033  2.101951  0.0  -0.318245  -0.540135  0.000754  2.122142  0.001
O  O107  1  0.71381730  0.37331115  0.34853730  1  -0.608991  0.000505  1.904424  0.001  -0.557373  0.000698  2.113947  0.001  -0.581848  -6.2e-05  2.102102  0.0  -0.31806  -0.540059  0.001654  2.122268  0.003
O  O108  1  0.24553320  0.32719532  0.14890438  1  -0.609878  0.000619  1.89986  0.0  -0.558851  8.6e-05  2.1081  0.0  -0.583255  0.00044  2.096863  0.0  -0.319381  -0.541539  -0.000173  2.115724  0.0
O  O109  1  0.75444033  0.82718912  0.85106284  1  -0.610178  0.000639  1.899409  0.001  -0.55908  0.000913  2.107604  0.002  -0.583522  6.4e-05  2.096344  0.0  -0.319505  -0.54174  0.001886  2.115198  0.003
O  O110  1  0.24552855  0.32719027  0.85109712  1  -0.609834  0.00062  1.899409  0.0  -0.558839  8.5e-05  2.107664  0.0  -0.583248  0.000441  2.096434  0.0  -0.319354  -0.541525  -0.000173  2.11529  0.0
O  O111  1  0.75443617  0.82719417  0.14894123  1  -0.610228  0.00064  1.899517  0.001  -0.559116  0.000912  2.107693  0.002  -0.583542  6.5e-05  2.096402  0.0  -0.319587  -0.541781  0.001885  2.115286  0.003
O  O112  1  0.68659317  0.52999039  0.50000132  1  -0.866832  -0.002246  1.919225  -0.001  -0.828216  -0.001853  2.127248  -0.001  -0.848255  -0.002003  2.086472  -0.001  -0.611696  -0.813727  -0.001507  2.157252  0.0
O  O113  1  0.31327814  0.02997813  0.49999998  1  -0.866833  -0.002369  1.919347  -0.001  -0.828367  -0.001939  2.12745  -0.001  -0.848397  -0.002049  2.086649  -0.001  -0.611784  -0.813873  -0.001662  2.157448  -0.001
O  O114  1  0.84579098  0.68124807  0.00000054  1  -0.885044  0.000513  1.913909  0.001  -0.852874  -7.1e-05  2.125142  0.0  -0.872788  -8.6e-05  2.083948  0.0  -0.615196  -0.838709  8e-06  2.155337  0.0
O  O115  1  0.15419879  0.18125299  0.00000133  1  -0.885189  -0.000581  1.914075  0.0  -0.852942  4.1e-05  2.125186  0.0  -0.872668  -2e-05  2.084193  0.0  -0.61536  -0.838792  5.8e-05  2.155396  0.0
