# generated using pymatgen
data_ZnH28C30(SN5)2
_symmetry_space_group_name_H-M   'P 1'
_cell_length_a   9.52467086
_cell_length_b   9.60307585
_cell_length_c   16.61617874
_cell_angle_alpha   90.00052982
_cell_angle_beta   90.00001633
_cell_angle_gamma   97.87447902
_symmetry_Int_Tables_number   1
_chemical_formula_structural   ZnH28C30(SN5)2
_chemical_formula_sum   'Zn2 H56 C60 S4 N20'
_cell_volume   1505.48668599
_cell_formula_units_Z   2
loop_
 _symmetry_equiv_pos_site_id
 _symmetry_equiv_pos_as_xyz
  1  'x, y, z'
loop_
 _atom_site_type_symbol
 _atom_site_label
 _atom_site_symmetry_multiplicity
 _atom_site_fract_x
 _atom_site_fract_y
 _atom_site_fract_z
 _atom_site_occupancy
 _atom_site_hle17_bader_spin_density
 _atom_site_hle17_ddec_charge
 _atom_site_hle17_ddec_spin_density
 _atom_site_hle17_ddec_sum_bond_order
 _atom_site_hle17_magmom
 _atom_site_hse06_10hf_bader_spin_density
 _atom_site_hse06_10hf_ddec_charge
 _atom_site_hse06_10hf_ddec_spin_density
 _atom_site_hse06_10hf_ddec_sum_bond_order
 _atom_site_hse06_10hf_magmom
 _atom_site_hse06_bader_spin_density
 _atom_site_hse06_ddec_charge
 _atom_site_hse06_ddec_spin_density
 _atom_site_hse06_ddec_sum_bond_order
 _atom_site_hse06_magmom
 _atom_site_pbe_bader_spin_density
 _atom_site_pbe_cm5_charge
 _atom_site_pbe_ddec_charge
 _atom_site_pbe_ddec_spin_density
 _atom_site_pbe_ddec_sum_bond_order
 _atom_site_pbe_magmom
Zn  Zn0  1  0.50000322  0.99999175  0.00000331  1  0  0.902552  0  2.030021  0  0  0.700663  0  2.4876  0  0  0.744597  0  2.445355  0  0  0.696823  0.67048  0  2.515057  0
Zn  Zn1  1  0.99999826  0.50000358  0.49999965  1  0  0.902491  0  2.029889  0  0  0.700626  0  2.48743  0  0  0.744568  0  2.445184  0  0  0.696819  0.670442  0  2.514887  0
H  H2  1  0.41706245  0.01620493  0.82058105  1  0  0.079832  0  0.955654  0  0  0.08548  0  1.025649  0  0  0.088458  0  1.022365  0  0  0.113001  0.083671  0  1.027252  0
H  H3  1  0.08293892  0.48379098  0.32057801  1  0  0.079848  0  0.955495  0  0  0.085467  0  1.025546  0  0  0.088434  0  1.022276  0  0  0.113021  0.08368  0  1.027127  0
H  H4  1  0.58293721  0.98379638  0.17942058  1  0  0.07984  0  0.955611  0  0  0.085478  0  1.025632  0  0  0.088447  0  1.022359  0  0  0.113019  0.083671  0  1.027233  0
H  H5  1  0.91705984  0.51621139  0.67942181  1  0  0.079896  0  0.955449  0  0  0.085514  0  1.025499  0  0  0.088482  0  1.022229  0  0  0.113056  0.083731  0  1.027071  0
H  H6  1  0.26176188  0.88156943  0.71656665  1  0  0.102297  0  0.974845  0  0  0.104051  0  1.047927  0  0  0.108073  0  1.045962  0  0  0.100146  0.101269  0  1.049239  0
H  H7  1  0.23824557  0.61842464  0.21656590  1  0  0.102275  0  0.974886  0  0  0.104067  0  1.047922  0  0  0.108087  0  1.045956  0  0  0.100132  0.101287  0  1.049232  0
H  H8  1  0.73824166  0.11842975  0.28343558  1  0  0.102299  0  0.974806  0  0  0.104066  0  1.04788  0  0  0.108087  0  1.045916  0  0  0.100135  0.101285  0  1.049192  0
H  H9  1  0.76175483  0.38157456  0.78343452  1  0  0.102259  0  0.974903  0  0  0.104055  0  1.047938  0  0  0.108082  0  1.045954  0  0  0.100127  0.101275  0  1.049249  0
H  H10  1  0.12829374  0.64697081  0.75412940  1  0  0.102356  0  0.94206  0  0  0.109181  0  1.009926  0  0  0.112356  0  1.007526  0  0  0.108609  0.106714  0  1.01201  0
H  H11  1  0.37171277  0.85302389  0.25413113  1  0  0.102369  0  0.94195  0  0  0.109196  0  1.009813  0  0  0.112368  0  1.007417  0  0  0.108626  0.106731  0  1.011894  0
H  H12  1  0.87170816  0.35303154  0.24587163  1  0  0.102329  0  0.941977  0  0  0.109149  0  1.00986  0  0  0.11231  0  1.007475  0  0  0.108614  0.1067  0  1.011929  0
H  H13  1  0.62828973  0.14697530  0.74586869  1  0  0.102361  0  0.941944  0  0  0.109187  0  1.009805  0  0  0.112359  0  1.007409  0  0  0.108632  0.106723  0  1.011885  0
H  H14  1  0.32879269  0.69729334  0.98661321  1  0  0.076246  0  0.988666  0  0  0.085069  0  1.055592  0  0  0.086909  0  1.054419  0  0  0.11313  0.083609  0  1.05656  0
H  H15  1  0.17120307  0.80270629  0.48661163  1  0  0.076231  0  0.988697  0  0  0.08508  0  1.055608  0  0  0.086921  0  1.054434  0  0  0.113134  0.08362  0  1.056576  0
H  H16  1  0.67120786  0.30270691  0.01338782  1  0  0.076228  0  0.988696  0  0  0.085075  0  1.055594  0  0  0.086914  0  1.054423  0  0  0.113133  0.083614  0  1.056564  0
H  H17  1  0.82879164  0.19729716  0.51338638  1  0  0.076215  0  0.988669  0  0  0.085045  0  1.055622  0  0  0.086886  0  1.054448  0  0  0.113116  0.083585  0  1.056591  0
H  H18  1  0.10992387  0.36106948  0.99391541  1  0  0.120383  0  0.964954  0  0  0.138034  0  1.026407  0  0  0.13996  0  1.026763  0  0  0.094355  0.136782  0  1.026081  0
H  H19  1  0.39007857  0.13893348  0.49391541  1  0  0.120347  0  0.964959  0  0  0.138001  0  1.026411  0  0  0.139927  0  1.026766  0  0  0.09436  0.136757  0  1.026086  0
H  H20  1  0.89007714  0.63893393  0.00608742  1  0  0.120383  0  0.964934  0  0  0.138028  0  1.026394  0  0  0.139954  0  1.026749  0  0  0.094355  0.136779  0  1.026063  0
H  H21  1  0.60992513  0.86106675  0.50608562  1  0  0.120373  0  0.964972  0  0  0.138021  0  1.026428  0  0  0.139948  0  1.026783  0  0  0.094349  0.136773  0  1.026097  0
H  H22  1  0.15115203  0.53729986  0.03026713  1  0  0.123333  0  0.96986  0  0  0.136097  0  1.044243  0  0  0.138288  0  1.043454  0  0  0.092577  0.134747  0  1.044359  0
H  H23  1  0.34884835  0.96270383  0.53026712  1  0  0.123357  0  0.969802  0  0  0.136108  0  1.044217  0  0  0.138299  0  1.043428  0  0  0.092578  0.134752  0  1.044333  0
H  H24  1  0.84884823  0.46270566  0.96973510  1  0  0.123371  0  0.969844  0  0  0.136146  0  1.044194  0  0  0.138337  0  1.043408  0  0  0.092608  0.134797  0  1.044312  0
H  H25  1  0.65115340  0.03729747  0.46973391  1  0  0.123357  0  0.96981  0  0  0.136113  0  1.044214  0  0  0.138304  0  1.043427  0  0  0.092593  0.134764  0  1.044329  0
H  H26  1  0.28642034  0.45137020  0.98788841  1  0  0.114697  0  0.98802  0  0  0.130558  0  1.060553  0  0  0.13125  0  1.061935  0  0  0.08698  0.130165  0  1.059432  0
H  H27  1  0.21358119  0.04863372  0.48788910  1  0  0.114741  0  0.987954  0  0  0.130581  0  1.060505  0  0  0.131271  0  1.061885  0  0  0.087006  0.130189  0  1.059382  0
H  H28  1  0.71357992  0.54863532  0.01211201  1  0  0.114731  0  0.987946  0  0  0.13057  0  1.060506  0  0  0.13126  0  1.061886  0  0  0.08699  0.130177  0  1.059386  0
H  H29  1  0.78642386  0.95136861  0.51211193  1  0  0.114707  0  0.98798  0  0  0.13056  0  1.060521  0  0  0.131253  0  1.0619  0  0  0.086979  0.130168  0  1.0594  0
H  H30  1  0.34472613  0.24187192  0.06233932  1  0  0.082313  0  0.950603  0  0  0.08778  0  1.02022  0  0  0.089953  0  1.018635  0  0  0.112774  0.086047  0  1.021701  0
H  H31  1  0.15527110  0.25813240  0.56233637  1  0  0.08234  0  0.950565  0  0  0.087801  0  1.020194  0  0  0.089978  0  1.018599  0  0  0.112771  0.086068  0  1.021675  0
H  H32  1  0.65527128  0.75812835  0.93765930  1  0  0.082307  0  0.950557  0  0  0.087769  0  1.020183  0  0  0.089945  0  1.018589  0  0  0.112769  0.086037  0  1.02166  0
H  H33  1  0.84472676  0.74187102  0.43766104  1  0  0.08231  0  0.950595  0  0  0.08777  0  1.02023  0  0  0.089948  0  1.018636  0  0  0.112771  0.086039  0  1.021708  0
H  H34  1  0.12127540  0.27902779  0.13469117  1  0  0.108098  0  0.935564  0  0  0.120859  0  0.987921  0  0  0.12375  0  0.987851  0  0  0.109579  0.118708  0  0.988261  0
H  H35  1  0.37871798  0.22097880  0.63469228  1  0  0.108041  0  0.935617  0  0  0.120772  0  0.988023  0  0  0.123663  0  0.987964  0  0  0.109514  0.118618  0  0.988363  0
H  H36  1  0.87872305  0.72097248  0.86530685  1  0  0.108055  0  0.935642  0  0  0.12081  0  0.987997  0  0  0.123698  0  0.987934  0  0  0.109585  0.118664  0  0.988338  0
H  H37  1  0.62127778  0.77902464  0.36530694  1  0  0.10811  0  0.935595  0  0  0.120871  0  0.987933  0  0  0.123757  0  0.987875  0  0  0.109595  0.118723  0  0.988274  0
H  H38  1  0.95344442  0.06976039  0.17730457  1  0  0.087432  0  0.995883  0  0  0.096355  0  1.063406  0  0  0.098096  0  1.063591  0  0  0.099438  0.095155  0  1.063322  0
H  H39  1  0.54655133  0.43024639  0.67730554  1  0  0.08743  0  0.995888  0  0  0.09634  0  1.063441  0  0  0.098082  0  1.063625  0  0  0.099427  0.095141  0  1.063356  0
H  H40  1  0.04655703  0.93023880  0.82269405  1  0  0.087421  0  0.995878  0  0  0.096343  0  1.063402  0  0  0.098085  0  1.063587  0  0  0.099432  0.095143  0  1.063318  0
H  H41  1  0.45344652  0.56975704  0.32269308  1  0  0.087426  0  0.995931  0  0  0.096338  0  1.06346  0  0  0.09808  0  1.063644  0  0  0.099437  0.09514  0  1.063374  0
H  H42  1  0.24893164  0.80973941  0.08271976  1  0  0.075644  0  0.977865  0  0  0.07712  0  1.057243  0  0  0.079544  0  1.054998  0  0  0.113772  0.075463  0  1.058496  0
H  H43  1  0.25106768  0.69026409  0.58271767  1  0  0.075648  0  0.977911  0  0  0.07718  0  1.057216  0  0  0.079605  0  1.054968  0  0  0.113783  0.075525  0  1.058466  0
H  H44  1  0.75107101  0.19026084  0.91727886  1  0  0.075655  0  0.977875  0  0  0.077125  0  1.057257  0  0  0.079546  0  1.055012  0  0  0.113783  0.075468  0  1.058511  0
H  H45  1  0.74893407  0.30973720  0.41727854  1  0  0.075636  0  0.977925  0  0  0.077098  0  1.057301  0  0  0.079521  0  1.055053  0  0  0.113763  0.075446  0  1.058548  0
H  H46  1  0.16357274  0.29903536  0.76175658  1  0  0.125605  0  0.956752  0  0  0.141077  0  1.02311  0  0  0.142935  0  1.02373  0  0  0.09588  0.139626  0  1.023167  0
H  H47  1  0.33642501  0.20095750  0.26175991  1  0  0.125606  0  0.95672  0  0  0.141071  0  1.023097  0  0  0.142931  0  1.023717  0  0  0.09586  0.139622  0  1.023147  0
H  H48  1  0.83642886  0.70096489  0.23824023  1  0  0.125584  0  0.95679  0  0  0.141062  0  1.02315  0  0  0.142921  0  1.02377  0  0  0.095875  0.139612  0  1.023205  0
H  H49  1  0.66357343  0.79903540  0.73824172  1  0  0.125559  0  0.956777  0  0  0.141033  0  1.023146  0  0  0.142891  0  1.023765  0  0  0.095861  0.139585  0  1.023197  0
H  H50  1  0.12223593  0.11178277  0.75212330  1  0  0.114753  0  0.988988  0  0  0.136094  0  1.051003  0  0  0.137599  0  1.050729  0  0  0.083499  0.134776  0  1.051622  0
H  H51  1  0.37776359  0.38820782  0.25212643  1  0  0.114857  0  0.988966  0  0  0.136213  0  1.050942  0  0  0.13773  0  1.050658  0  0  0.083554  0.134878  0  1.051577  0
H  H52  1  0.87776987  0.88821745  0.24787472  1  0  0.114765  0  0.988955  0  0  0.136115  0  1.050956  0  0  0.137621  0  1.050678  0  0  0.083514  0.134794  0  1.051579  0
H  H53  1  0.62222945  0.61178406  0.74787400  1  0  0.114745  0  0.988968  0  0  0.136091  0  1.050978  0  0  0.137595  0  1.050706  0  0  0.083506  0.13476  0  1.051608  0
H  H54  1  0.23034882  0.18761896  0.83251082  1  0  0.132555  0  0.942191  0  0  0.154645  0  1.00026  0  0  0.155227  0  1.001462  0  0  0.098997  0.154368  0  0.999246  0
H  H55  1  0.26965362  0.31237715  0.33251473  1  0  0.132571  0  0.942192  0  0  0.154664  0  1.000273  0  0  0.155253  0  1.001466  0  0  0.098981  0.154387  0  0.999261  0
H  H56  1  0.76965413  0.81238339  0.16748599  1  0  0.132569  0  0.942195  0  0  0.15467  0  1.000263  0  0  0.155252  0  1.001462  0  0  0.098998  0.154393  0  0.99925  0
H  H57  1  0.73034497  0.68761681  0.66748629  1  0  0.132564  0  0.942201  0  0  0.154645  0  1.000287  0  0  0.155233  0  1.00148  0  0  0.098989  0.154368  0  0.999273  0
C  C58  1  0.35925036  0.91276353  0.83348291  1  0  0.132121  0  3.676904  0  0  0.096793  0  3.933228  0  0  0.104951  0  3.948914  0  0  0.045864  0.09174  0  3.921305  0
C  C59  1  0.14075217  0.58723249  0.33348138  1  0  0.132178  0  3.676573  0  0  0.096829  0  3.93299  0  0  0.104994  0  3.948677  0  0  0.045848  0.091759  0  3.921066  0
C  C60  1  0.64074929  0.08723778  0.16651812  1  0  0.132203  0  3.676782  0  0  0.096846  0  3.933165  0  0  0.10501  0  3.948854  0  0  0.045875  0.091793  0  3.921242  0
C  C61  1  0.85924539  0.41276883  0.66651844  1  0  0.132003  0  3.676647  0  0  0.09667  0  3.933058  0  0  0.104835  0  3.948743  0  0  0.045798  0.091601  0  3.921132  0
C  C62  1  0.27222782  0.83771760  0.77629205  1  0  -0.120507  0  3.757909  0  0  -0.13095  0  4.014325  0  0  -0.137662  0  4.034214  0  0  -0.086457  -0.126685  0  4.001159  0
C  C63  1  0.22777665  0.66227747  0.27629094  1  0  -0.120549  0  3.757747  0  0  -0.131009  0  4.014186  0  0  -0.137718  0  4.034064  0  0  -0.086435  -0.126745  0  4.001027  0
C  C64  1  0.72777288  0.16228370  0.22370957  1  0  -0.120558  0  3.757839  0  0  -0.13101  0  4.014273  0  0  -0.13772  0  4.034155  0  0  -0.086431  -0.126747  0  4.00111  0
C  C65  1  0.77222300  0.33772384  0.72370888  1  0  -0.120531  0  3.757762  0  0  -0.130993  0  4.014197  0  0  -0.1377  0  4.03408  0  0  -0.086436  -0.126732  0  4.001039  0
C  C66  1  0.19819837  0.70784351  0.79705520  1  0  -0.031467  0  3.681888  0  0  -0.061387  0  3.933845  0  0  -0.05736  0  3.950536  0  0  -0.062191  -0.063864  0  3.922449  0
C  C67  1  0.30180511  0.79215191  0.29705600  1  0  -0.031501  0  3.68171  0  0  -0.061394  0  3.933678  0  0  -0.057368  0  3.950375  0  0  -0.062245  -0.063868  0  3.922282  0
C  C68  1  0.80180053  0.29215991  0.20294522  1  0  -0.031459  0  3.681752  0  0  -0.061373  0  3.93373  0  0  -0.057334  0  3.950422  0  0  -0.062232  -0.063864  0  3.922323  0
C  C69  1  0.69819455  0.20784941  0.70294443  1  0  -0.031428  0  3.681638  0  0  -0.061321  0  3.933606  0  0  -0.057295  0  3.950307  0  0  -0.062224  -0.063795  0  3.922209  0
C  C70  1  0.21489766  0.65404931  0.87448261  1  0  -0.041477  0  3.774867  0  0  -0.021121  0  4.009553  0  0  -0.02696  0  4.031882  0  0  -0.00515  -0.017412  0  3.993274  0
C  C71  1  0.28510589  0.84594633  0.37448369  1  0  -0.041424  0  3.774722  0  0  -0.02111  0  4.009485  0  0  -0.026952  0  4.031813  0  0  -0.005128  -0.017402  0  3.993209  0
C  C72  1  0.78510215  0.34595305  0.12551782  1  0  -0.041385  0  3.774798  0  0  -0.021068  0  4.009441  0  0  -0.026906  0  4.031766  0  0  -0.005135  -0.017359  0  3.99317  0
C  C73  1  0.71489602  0.15405602  0.62551613  1  0  -0.041497  0  3.774759  0  0  -0.021167  0  4.009488  0  0  -0.027013  0  4.031816  0  0  -0.005158  -0.017458  0  3.993212  0
C  C74  1  0.30721960  0.73590106  0.92700574  1  0  0.093066  0  3.672323  0  0  0.055622  0  3.917103  0  0  0.062331  0  3.934582  0  0  0.045952  0.05194  0  3.904405  0
C  C75  1  0.19277899  0.76409652  0.42700456  1  0  0.093112  0  3.672349  0  0  0.055654  0  3.917147  0  0  0.062366  0  3.934621  0  0  0.045985  0.051971  0  3.90445  0
C  C76  1  0.69277916  0.26410131  0.07299468  1  0  0.093034  0  3.672336  0  0  0.055567  0  3.917114  0  0  0.062276  0  3.934592  0  0  0.045912  0.051885  0  3.904417  0
C  C77  1  0.80721992  0.23590690  0.57299405  1  0  0.093145  0  3.672202  0  0  0.055666  0  3.917059  0  0  0.062379  0  3.934535  0  0  0.046037  0.051983  0  3.904362  0
C  C78  1  0.14240604  0.51653269  0.90128804  1  0  0.256233  0  3.720152  0  0  0.250905  0  3.980455  0  0  0.262456  0  3.996083  0  0  0.140401  0.243738  0  3.968321  0
C  C79  1  0.35759504  0.98346761  0.40128866  1  0  0.256221  0  3.720094  0  0  0.250902  0  3.9804  0  0  0.262455  0  3.996027  0  0  0.140406  0.243735  0  3.968268  0
C  C80  1  0.85759287  0.48347073  0.09871299  1  0  0.256059  0  3.720305  0  0  0.250885  0  3.980387  0  0  0.262435  0  3.996017  0  0  0.140405  0.243717  0  3.968251  0
C  C81  1  0.64240566  0.01653370  0.59871236  1  0  0.256161  0  3.720251  0  0  0.250898  0  3.980474  0  0  0.262454  0  3.996098  0  0  0.140392  0.243731  0  3.96834  0
C  C82  1  0.17347926  0.46308412  0.98304917  1  0  -0.388909  0  3.705711  0  0  -0.465586  0  3.937665  0  0  -0.470122  0  3.944779  0  0  -0.249008  -0.462296  0  3.931979  0
C  C83  1  0.32652211  0.03691866  0.48304922  1  0  -0.388941  0  3.705637  0  0  -0.465594  0  3.937591  0  0  -0.470125  0  3.944711  0  0  -0.249048  -0.46231  0  3.931904  0
C  C84  1  0.82651980  0.53692035  0.01695185  1  0  -0.388965  0  3.705661  0  0  -0.465678  0  3.937588  0  0  -0.47021  0  3.944709  0  0  -0.249073  -0.462392  0  3.931906  0
C  C85  1  0.67348054  0.96308158  0.51695121  1  0  -0.388877  0  3.705658  0  0  -0.465571  0  3.937597  0  0  -0.470107  0  3.944713  0  0  -0.248996  -0.462282  0  3.93191  0
C  C86  1  0.73044600  0.84647800  0.91666495  1  0  0.128593  0  3.685275  0  0  0.094492  0  3.938209  0  0  0.102514  0  3.954938  0  0  0.045183  0.089398  0  3.926375  0
C  C87  1  0.76955543  0.65352311  0.41666560  1  0  0.128615  0  3.685278  0  0  0.094516  0  3.938226  0  0  0.102541  0  3.954948  0  0  0.0452  0.089422  0  3.926391  0
C  C88  1  0.26955486  0.15352436  0.08333427  1  0  0.128569  0  3.685308  0  0  0.094462  0  3.938246  0  0  0.102479  0  3.954977  0  0  0.045183  0.089369  0  3.926413  0
C  C89  1  0.23044243  0.34648031  0.58333181  1  0  0.128568  0  3.685416  0  0  0.094474  0  3.938346  0  0  0.102497  0  3.95507  0  0  0.045247  0.089379  0  3.926511  0
C  C90  1  0.85499336  0.82694457  0.87713596  1  0  -0.115177  0  3.741193  0  0  -0.122952  0  3.990586  0  0  -0.129843  0  4.010489  0  0  -0.081827  -0.118314  0  3.976816  0
C  C91  1  0.64500840  0.67305168  0.37713609  1  0  -0.115341  0  3.74125  0  0  -0.12313  0  3.990663  0  0  -0.130022  0  4.010564  0  0  -0.081907  -0.118488  0  3.976893  0
C  C92  1  0.14500614  0.17305569  0.12286145  1  0  -0.115233  0  3.741108  0  0  -0.12301  0  3.990507  0  0  -0.1299  0  4.010413  0  0  -0.08184  -0.118366  0  3.976732  0
C  C93  1  0.35498841  0.32695175  0.62286132  1  0  -0.115126  0  3.741288  0  0  -0.12288  0  3.990666  0  0  -0.129778  0  4.010574  0  0  -0.081806  -0.118232  0  3.976887  0
C  C94  1  0.94831270  0.94415742  0.85308803  1  0  -0.036979  0  3.700627  0  0  -0.066029  0  3.944848  0  0  -0.061936  0  3.963051  0  0  -0.067726  -0.068511  0  3.932282  0
C  C95  1  0.55168780  0.55583740  0.35308632  1  0  -0.036872  0  3.700574  0  0  -0.06589  0  3.944788  0  0  -0.061797  0  3.962986  0  0  -0.067627  -0.068375  0  3.932229  0
C  C96  1  0.05168560  0.05584180  0.14691059  1  0  -0.036989  0  3.700559  0  0  -0.066045  0  3.944802  0  0  -0.061951  0  3.963005  0  0  -0.067713  -0.068525  0  3.932236  0
C  C97  1  0.44830976  0.44416393  0.64691169  1  0  -0.036945  0  3.700471  0  0  -0.065948  0  3.944737  0  0  -0.061851  0  3.962938  0  0  -0.067623  -0.06843  0  3.932174  0
C  C98  1  0.91408108  0.07911435  0.86815958  1  0  -0.038363  0  3.75846  0  0  -0.015463  0  3.989859  0  0  -0.021835  0  4.011889  0  0  -0.002606  -0.011836  0  3.975391  0
C  C99  1  0.58592088  0.42088396  0.36815983  1  0  -0.03828  0  3.758594  0  0  -0.015445  0  3.989987  0  0  -0.021796  0  4.012038  0  0  -0.002652  -0.01183  0  3.975515  0
C  C100  1  0.08591962  0.92088696  0.13183843  1  0  -0.038293  0  3.758451  0  0  -0.01543  0  3.989846  0  0  -0.021783  0  4.011898  0  0  -0.002627  -0.011804  0  3.97538  0
C  C101  1  0.41407878  0.57911736  0.63183819  1  0  -0.038357  0  3.758544  0  0  -0.015622  0  3.990091  0  0  -0.021983  0  4.012155  0  0  -0.002697  -0.012005  0  3.975619  0
C  C102  1  0.21575612  0.91214497  0.09338915  1  0  0.10738  0  3.666509  0  0  0.066901  0  3.917481  0  0  0.074414  0  3.934887  0  0  0.0534  0.062396  0  3.905558  0
C  C103  1  0.28424143  0.58786082  0.59338833  1  0  0.10738  0  3.666586  0  0  0.066917  0  3.917573  0  0  0.074434  0  3.934977  0  0  0.053392  0.062411  0  3.905649  0
C  C104  1  0.78424548  0.08785528  0.90661067  1  0  0.107387  0  3.666568  0  0  0.066905  0  3.917534  0  0  0.074422  0  3.934942  0  0  0.053373  0.0624  0  3.905613  0
C  C105  1  0.71575748  0.41214260  0.40660909  1  0  0.107329  0  3.666659  0  0  0.06689  0  3.917616  0  0  0.074406  0  3.935018  0  0  0.053385  0.062381  0  3.905695  0
C  C106  1  0.00948962  0.20733311  0.84569620  1  0  0.254589  0  3.695962  0  0  0.249787  0  3.953528  0  0  0.261056  0  3.968975  0  0  0.138456  0.242171  0  3.943399  0
C  C107  1  0.49051256  0.29266111  0.34569763  1  0  0.254356  0  3.696205  0  0  0.249677  0  3.953658  0  0  0.260872  0  3.969215  0  0  0.138464  0.242104  0  3.943472  0
C  C108  1  0.99051168  0.79266504  0.15430121  1  0  0.254497  0  3.696074  0  0  0.249799  0  3.953524  0  0  0.260998  0  3.969072  0  0  0.138483  0.242184  0  3.943396  0
C  C109  1  0.50948589  0.70733916  0.65430279  1  0  0.254377  0  3.696222  0  0  0.249729  0  3.953688  0  0  0.260931  0  3.96924  0  0  0.138467  0.242144  0  3.943515  0
C  C110  1  0.13781454  0.19977329  0.79469710  1  0  -0.377323  0  3.689139  0  0  -0.452669  0  3.913772  0  0  -0.456861  0  3.921424  0  0  -0.241979  -0.449767  0  3.909131  0
C  C111  1  0.36218644  0.30022010  0.29469976  1  0  -0.377403  0  3.689121  0  0  -0.452804  0  3.91376  0  0  -0.456986  0  3.921418  0  0  -0.24201  -0.449899  0  3.909125  0
C  C112  1  0.86218810  0.80022695  0.20530031  1  0  -0.377303  0  3.689223  0  0  -0.452701  0  3.913827  0  0  -0.45687  0  3.921498  0  0  -0.242001  -0.449798  0  3.909192  0
C  C113  1  0.63781125  0.69977491  0.70530127  1  0  -0.377233  0  3.689166  0  0  -0.452605  0  3.913769  0  0  -0.456778  0  3.92144  0  0  -0.241959  -0.449703  0  3.909132  0
C  C114  1  0.49033413  0.29466374  0.90450723  1  0  0.284486  0  4.06191  0  0  0.268189  0  4.363097  0  0  0.291489  0  4.374608  0  0  0.137741  0.252482  0  4.355086  0
C  C115  1  0.00966025  0.20531992  0.40450149  1  0  0.28452  0  4.061878  0  0  0.26824  0  4.363065  0  0  0.291539  0  4.374567  0  0  0.137761  0.25253  0  4.355058  0
C  C116  1  0.50966144  0.70531656  0.09549921  1  0  0.284714  0  4.062189  0  0  0.268443  0  4.36334  0  0  0.291741  0  4.374842  0  0  0.137885  0.252735  0  4.355334  0
C  C117  1  0.99034181  0.79468348  0.59549833  1  0  0.284636  0  4.061834  0  0  0.268356  0  4.363019  0  0  0.291655  0  4.374512  0  0  0.137792  0.252649  0  4.355016  0
S  S118  1  0.51110842  0.45286427  0.86914874  1  0  -0.355882  0  2.020979  0  0  -0.333821  0  2.306762  0  0  -0.34933  0  2.304327  0  0  -0.16311  -0.323951  0  2.308372  0
S  S119  1  0.98889066  0.04711407  0.36914345  1  0  -0.355966  0  2.020802  0  0  -0.333903  0  2.306587  0  0  -0.34941  0  2.304149  0  0  -0.163151  -0.324032  0  2.3082  0
S  S120  1  0.48889149  0.54710968  0.13085951  1  0  -0.356082  0  2.020673  0  0  -0.334015  0  2.306427  0  0  -0.349527  0  2.303996  0  0  -0.163195  -0.324144  0  2.308036  0
S  S121  1  0.01111815  0.95289244  0.63085517  1  0  -0.35604  0  2.020642  0  0  -0.333961  0  2.306387  0  0  -0.349462  0  2.303943  0  0  -0.163153  -0.324089  0  2.308003  0
N  N122  1  0.37573113  0.86309818  0.90800232  1  0  -0.308014  0  3.265338  0  0  -0.231327  0  3.529113  0  0  -0.249192  0  3.547555  0  0  -0.315838  -0.219073  0  3.51485  0
N  N123  1  0.12427145  0.63689802  0.40800105  1  0  -0.308061  0  3.265315  0  0  -0.231374  0  3.529128  0  0  -0.249237  0  3.547563  0  0  -0.315873  -0.219124  0  3.514875  0
N  N124  1  0.62426942  0.13690208  0.09199750  1  0  -0.30804  0  3.265306  0  0  -0.23134  0  3.529105  0  0  -0.249204  0  3.547543  0  0  -0.315837  -0.219088  0  3.514845  0
N  N125  1  0.87572640  0.36310541  0.59199817  1  0  -0.307945  0  3.265312  0  0  -0.231261  0  3.529139  0  0  -0.249123  0  3.547574  0  0  -0.315888  -0.21901  0  3.514883  0
N  N126  1  0.05537071  0.44690438  0.85098506  1  0  -0.228475  0  3.148396  0  0  -0.195492  0  3.42816  0  0  -0.210564  0  3.450061  0  0  -0.193868  -0.184792  0  3.41292  0
N  N127  1  0.44463163  0.05309098  0.35098581  1  0  -0.228609  0  3.148408  0  0  -0.195628  0  3.428176  0  0  -0.210697  0  3.450069  0  0  -0.193906  -0.18493  0  3.412944  0
N  N128  1  0.94463179  0.55309482  0.14901536  1  0  -0.228406  0  3.148328  0  0  -0.195474  0  3.428044  0  0  -0.210544  0  3.449938  0  0  -0.193861  -0.184777  0  3.412809  0
N  N129  1  0.55537102  0.94690926  0.64901581  1  0  -0.228502  0  3.14856  0  0  -0.195537  0  3.428307  0  0  -0.210605  0  3.450198  0  0  -0.193845  -0.184839  0  3.41307  0
N  N130  1  0.97856740  0.32551421  0.87384326  1  0  -0.229647  0  3.174871  0  0  -0.193373  0  3.454547  0  0  -0.207986  0  3.476421  0  0  -0.191647  -0.184414  0  3.439689  0
N  N131  1  0.52143516  0.17448103  0.37384278  1  0  -0.229382  0  3.174848  0  0  -0.193133  0  3.454466  0  0  -0.20772  0  3.476365  0  0  -0.191599  -0.184192  0  3.439597  0
N  N132  1  0.02143494  0.67448393  0.12615536  1  0  -0.229565  0  3.174779  0  0  -0.193328  0  3.45444  0  0  -0.207916  0  3.476338  0  0  -0.191627  -0.184373  0  3.439583  0
N  N133  1  0.47856554  0.82552028  0.62615644  1  0  -0.229485  0  3.175056  0  0  -0.193248  0  3.45469  0  0  -0.207838  0  3.476589  0  0  -0.191659  -0.184301  0  3.439817  0
N  N134  1  0.69574163  0.97568563  0.93110724  1  0  -0.308234  0  3.275159  0  0  -0.231183  0  3.53987  0  0  -0.249345  0  3.557629  0  0  -0.316571  -0.219269  0  3.527209  0
N  N135  1  0.80426043  0.52431256  0.43110721  1  0  -0.308212  0  3.27514  0  0  -0.231195  0  3.539873  0  0  -0.249353  0  3.557626  0  0  -0.316585  -0.219282  0  3.527213  0
N  N136  1  0.30426102  0.02431461  0.06889439  1  0  -0.308218  0  3.275097  0  0  -0.231171  0  3.539819  0  0  -0.249327  0  3.557573  0  0  -0.316583  -0.219259  0  3.527159  0
N  N137  1  0.19573818  0.47568875  0.56889081  1  0  -0.308257  0  3.27516  0  0  -0.231258  0  3.539933  0  0  -0.249414  0  3.557681  0  0  -0.316635  -0.219344  0  3.527272  0
N  N138  1  0.47405619  0.17808500  0.93075904  1  0  -0.572737  0  2.968032  0  0  -0.513984  0  3.25915  0  0  -0.534832  0  3.262053  0  0  -0.400144  -0.499946  0  3.256632  0
N  N139  1  0.02593435  0.32189384  0.43075273  1  0  -0.572731  0  2.968201  0  0  -0.513934  0  3.259172  0  0  -0.534798  0  3.262102  0  0  -0.400115  -0.499897  0  3.256656  0
N  N140  1  0.52593966  0.82188266  0.06924860  1  0  -0.572857  0  2.968732  0  0  -0.514084  0  3.259727  0  0  -0.534927  0  3.262619  0  0  -0.400211  -0.500048  0  3.257215  0
N  N141  1  0.97406067  0.67811170  0.56924770  1  0  -0.572792  0  2.968343  0  0  -0.514009  0  3.259341  0  0  -0.534888  0  3.262307  0  0  -0.400145  -0.499975  0  3.25683  0
