# generated using pymatgen
data_Cu2H5C6(IN)2
_symmetry_space_group_name_H-M   'P 1'
_cell_length_a   4.08037906
_cell_length_b   21.45019984
_cell_length_c   23.55973292
_cell_angle_alpha   115.34429427
_cell_angle_beta   90.01290757
_cell_angle_gamma   95.43065780
_symmetry_Int_Tables_number   1
_chemical_formula_structural   Cu2H5C6(IN)2
_chemical_formula_sum   'Cu16 H40 C48 I16 N16'
_cell_volume   1853.32703929
_cell_formula_units_Z   8
loop_
 _symmetry_equiv_pos_site_id
 _symmetry_equiv_pos_as_xyz
  1  'x, y, z'
loop_
 _atom_site_type_symbol
 _atom_site_label
 _atom_site_symmetry_multiplicity
 _atom_site_fract_x
 _atom_site_fract_y
 _atom_site_fract_z
 _atom_site_occupancy
 _atom_site_pbe_bader_spin_density
 _atom_site_pbe_cm5_charge
 _atom_site_pbe_ddec_charge
 _atom_site_pbe_ddec_spin_density
 _atom_site_pbe_ddec_sum_bond_order
 _atom_site_pbe_magmom
Cu  Cu0  1  0.40712711  0.69567638  0.69215939  1  0  0.140767  0.142874  0  2.719677  0
Cu  Cu1  1  0.71068840  0.30438042  0.80780317  1  0  0.140699  0.143003  0  2.71956  0
Cu  Cu2  1  0.59287065  0.30432499  0.30784215  1  0  0.140788  0.142906  0  2.71963  0
Cu  Cu3  1  0.28930832  0.69561886  0.19219629  1  0  0.140706  0.142977  0  2.719578  0
Cu  Cu4  1  0.46570594  0.07320373  0.69270636  1  0  0.241951  0.167578  0  2.652692  0
Cu  Cu5  1  0.39245381  0.92676268  0.80725874  1  0  0.242199  0.167606  0  2.651907  0
Cu  Cu6  1  0.53428615  0.92679607  0.30729500  1  0  0.241955  0.167639  0  2.652587  0
Cu  Cu7  1  0.60754782  0.07323660  0.19274115  1  0  0.242188  0.1676  0  2.651873  0
Cu  Cu8  1  0.89870303  0.90925300  0.73226003  1  0  0.137829  0.122008  0  2.770317  0
Cu  Cu9  1  0.98973526  0.09075601  0.76777822  1  0  0.137612  0.12163  0  2.770112  0
Cu  Cu10  1  0.10130375  0.09074680  0.26774006  1  0  0.137824  0.121994  0  2.770243  0
Cu  Cu11  1  0.01025708  0.90924431  0.23222206  1  0  0.137596  0.121584  0  2.770126  0
Cu  Cu12  1  0.89202583  0.60719103  0.64222244  1  0  0.238631  0.168935  0  2.760308  0
Cu  Cu13  1  0.28416990  0.39287241  0.85768868  1  0  0.238276  0.168649  0  2.760254  0
Cu  Cu14  1  0.10797799  0.39280774  0.35777810  1  0  0.23862  0.16895  0  2.760342  0
Cu  Cu15  1  0.71583005  0.60712843  0.14231096  1  0  0.238266  0.168638  0  2.760288  0
H  H16  1  0.76998834  0.19794081  0.66048433  1  0  0.106808  0.08992  0  1.079273  0
H  H17  1  0.57281819  0.80195804  0.83949214  1  0  0.106845  0.090079  0  1.079419  0
H  H18  1  0.23000787  0.80205744  0.33951642  1  0  0.106803  0.089897  0  1.079288  0
H  H19  1  0.42719595  0.19804177  0.16050922  1  0  0.106852  0.090048  0  1.079467  0
H  H20  1  0.17630457  0.01267257  0.54977075  1  0  0.105274  0.103821  0  1.039469  0
H  H21  1  0.16387616  0.98727887  0.95012856  1  0  0.105189  0.104491  0  1.039562  0
H  H22  1  0.82367990  0.98732671  0.45022871  1  0  0.105302  0.103928  0  1.039384  0
H  H23  1  0.83613901  0.01272301  0.04987233  1  0  0.105162  0.10444  0  1.039602  0
H  H24  1  0.34945948  0.08199076  0.47574620  1  0  0.109005  0.113393  0  1.055834  0
H  H25  1  0.26848233  0.91812625  0.02422998  1  0  0.109065  0.113856  0  1.05561  0
H  H26  1  0.65052719  0.91800801  0.52425560  1  0  0.109069  0.113542  0  1.055727  0
H  H27  1  0.73153775  0.08187563  0.97577092  1  0  0.109046  0.113822  0  1.055679  0
H  H28  1  0.88746427  0.13366319  0.45537711  1  0  0.087248  0.101144  0  1.063845  0
H  H29  1  0.75570553  0.86625179  0.04456379  1  0  0.087205  0.101552  0  1.063726  0
H  H30  1  0.11252135  0.86633350  0.54462006  1  0  0.087277  0.101156  0  1.063861  0
H  H31  1  0.24431325  0.13374750  0.95543694  1  0  0.087162  0.101442  0  1.063747  0
H  H32  1  0.16002667  0.22572544  0.42810215  1  0  0.090634  0.103665  0  1.017806  0
H  H33  1  0.93530559  0.77404475  0.07179063  1  0  0.090613  0.103174  0  1.018276  0
H  H34  1  0.83995729  0.77427281  0.57189648  1  0  0.090641  0.103648  0  1.017781  0
H  H35  1  0.06470261  0.22595298  0.92820865  1  0  0.090571  0.103176  0  1.018274  0
H  H36  1  0.15463724  0.34834067  0.49988423  1  0  0.084193  0.10475  0  1.074377  0
H  H37  1  0.80651866  0.65149317  0.00002767  1  0  0.084328  0.105504  0  1.073707  0
H  H38  1  0.84534942  0.65165809  0.50011290  1  0  0.08416  0.104722  0  1.074366  0
H  H39  1  0.19347755  0.34850508  0.99996883  1  0  0.084315  0.105506  0  1.073707  0
H  H40  1  0.59340449  0.29014181  0.62924369  1  0  0.092464  0.114859  0  1.068844  0
H  H41  1  0.30353840  0.71003085  0.87079180  1  0  0.092767  0.115739  0  1.068279  0
H  H42  1  0.40660965  0.70985800  0.37075597  1  0  0.092472  0.114871  0  1.068833  0
H  H43  1  0.69645846  0.28997362  0.12921053  1  0  0.09275  0.115752  0  1.068256  0
H  H44  1  0.05887445  0.45077617  0.55366357  1  0  0.12172  0.10118  0  1.029201  0
H  H45  1  0.60745360  0.54914805  0.94623716  1  0  0.121811  0.100732  0  1.029364  0
H  H46  1  0.94111957  0.54922259  0.44633569  1  0  0.121727  0.101154  0  1.029155  0
H  H47  1  0.39254145  0.45085279  0.05376248  1  0  0.121804  0.100717  0  1.029381  0
H  H48  1  0.59651313  0.39305772  0.68885074  1  0  0.104612  0.111689  0  1.072466  0
H  H49  1  0.20435987  0.60714871  0.81106100  1  0  0.104433  0.111548  0  1.07279  0
H  H50  1  0.40348579  0.60694105  0.31114894  1  0  0.104636  0.111748  0  1.072427  0
H  H51  1  0.79563351  0.39285369  0.18893925  1  0  0.10446  0.111566  0  1.072842  0
H  H52  1  0.61902848  0.53457243  0.72863146  1  0  0.105346  0.099234  0  1.051992  0
H  H53  1  0.08447434  0.46562071  0.77121587  1  0  0.105634  0.099624  0  1.052043  0
H  H54  1  0.38097044  0.46542634  0.27136780  1  0  0.105326  0.099206  0  1.052003  0
H  H55  1  0.91552097  0.53438065  0.22878524  1  0  0.105622  0.099598  0  1.052051  0
C  C56  1  0.62407887  0.15718191  0.62145485  1  0  0.131893  0.107975  0  3.864982  0
C  C57  1  0.46785833  0.84277496  0.87851628  1  0  0.131478  0.107037  0  3.865588  0
C  C58  1  0.37591708  0.84281582  0.37854527  1  0  0.131878  0.108007  0  3.864901  0
C  C59  1  0.53215904  0.15722640  0.12148484  1  0  0.131506  0.107011  0  3.86554  0
C  C60  1  0.32346092  0.06164566  0.56177629  1  0  -0.012203  -0.033961  0  3.991649  0
C  C61  1  0.26242152  0.93832838  0.93814689  1  0  -0.012768  -0.036484  0  3.994859  0
C  C62  1  0.67652845  0.93835363  0.43822487  1  0  -0.012159  -0.033984  0  3.991686  0
C  C63  1  0.73758824  0.06167246  0.06185275  1  0  -0.012677  -0.036299  0  3.994746  0
C  C64  1  0.40635025  0.09500576  0.52469878  1  0  -0.005006  -0.104039  0  3.926313  0
C  C65  1  0.31230102  0.90501105  0.97526150  1  0  -0.004233  -0.102608  0  3.925776  0
C  C66  1  0.59363642  0.90499301  0.47530260  1  0  -0.00507  -0.104216  0  3.926505  0
C  C67  1  0.68771093  0.09498927  0.02473793  1  0  -0.004278  -0.102731  0  3.925919  0
C  C68  1  0.73857146  0.20764792  0.54527970  1  0  0.092374  0.185799  0  4.019008  0
C  C69  1  0.53222119  0.79235219  0.95469525  1  0  0.09277  0.18682  0  4.019871  0
C  C70  1  0.26141276  0.79235085  0.45472083  1  0  0.092313  0.185678  0  4.019033  0
C  C71  1  0.46780379  0.20764969  0.04530522  1  0  0.092744  0.186607  0  4.019911  0
C  C72  1  0.88636618  0.18821953  0.48755951  1  0  -0.099302  -0.177186  0  3.975584  0
C  C73  1  0.69980982  0.81171202  0.01236676  1  0  -0.099598  -0.178423  0  3.975524  0
C  C74  1  0.11361313  0.81177924  0.51243975  1  0  -0.099319  -0.177137  0  3.975795  0
C  C75  1  0.30020755  0.18828934  0.98763223  1  0  -0.099534  -0.178134  0  3.975304  0
C  C76  1  0.03647326  0.23975347  0.47228259  1  0  -0.087295  -0.028205  0  3.99165  0
C  C77  1  0.79770996  0.76009184  0.02763719  1  0  -0.086956  -0.026959  0  3.990604  0
C  C78  1  0.96351070  0.76024478  0.52771519  1  0  -0.087268  -0.028139  0  3.991666  0
C  C79  1  0.20230392  0.23990745  0.97236270  1  0  -0.086965  -0.027051  0  3.990451  0
C  C80  1  0.03312376  0.30951229  0.51315480  1  0  -0.099253  -0.170714  0  3.968143  0
C  C81  1  0.72400206  0.69035754  0.98676223  1  0  -0.099498  -0.172344  0  3.967627  0
C  C82  1  0.96686754  0.69048596  0.48684298  1  0  -0.099247  -0.170735  0  3.96819  0
C  C83  1  0.27599841  0.30964434  0.01323909  1  0  -0.099421  -0.172272  0  3.967445  0
C  C84  1  0.87161108  0.32835488  0.56960858  1  0  0.095734  0.18886  0  4.005627  0
C  C85  1  0.54379828  0.67161631  0.93030623  1  0  0.096456  0.190079  0  4.004718  0
C  C86  1  0.12838784  0.67164388  0.43039026  1  0  0.095773  0.18893  0  4.0056  0
C  C87  1  0.45620167  0.32838453  0.06969256  1  0  0.096389  0.189929  0  4.004828  0
C  C88  1  0.72620283  0.27723878  0.58628079  1  0  -0.098142  -0.248612  0  3.943866  0
C  C89  1  0.44975765  0.72279516  0.91367955  1  0  -0.099082  -0.250696  0  3.945569  0
C  C90  1  0.27379828  0.72275947  0.41371784  1  0  -0.098151  -0.248617  0  3.943735  0
C  C91  1  0.55025429  0.27720516  0.08631989  1  0  -0.099048  -0.250625  0  3.945737  0
C  C92  1  0.93811365  0.45464283  0.59583851  1  0  0.134928  0.100233  0  3.864701  0
C  C93  1  0.48327667  0.54534050  0.90403529  1  0  0.135037  0.101694  0  3.864458  0
C  C94  1  0.06188746  0.54535542  0.40416097  1  0  0.135036  0.10045  0  3.864454  0
C  C95  1  0.51672109  0.45466086  0.09596455  1  0  0.135026  0.101669  0  3.864431  0
C  C96  1  0.69567324  0.42553434  0.66682267  1  0  -0.006608  -0.10429  0  3.907086  0
C  C97  1  0.27051016  0.57460289  0.83307563  1  0  -0.007222  -0.105017  0  3.906759  0
C  C98  1  0.30433522  0.57446391  0.33317724  1  0  -0.006639  -0.104384  0  3.907143  0
C  C99  1  0.72948837  0.42540003  0.16692482  1  0  -0.007222  -0.105009  0  3.906821  0
C  C100  1  0.70694512  0.49568479  0.68599454  1  0  -0.005987  -0.019747  0  3.973562  0
C  C101  1  0.21115854  0.50445562  0.81387687  1  0  -0.005713  -0.01948  0  3.971365  0
C  C102  1  0.29305380  0.50431398  0.31400429  1  0  -0.005999  -0.019728  0  3.97344  0
C  C103  1  0.78883974  0.49554678  0.18612380  1  0  -0.005756  -0.019545  0  3.971367  0
I  I104  1  0.92464265  0.97931835  0.66022187  1  0  -0.13073  -0.199009  0  2.532188  0
I  I105  1  0.94514705  0.02070865  0.83984211  1  0  -0.130673  -0.198952  0  2.530407  0
I  I106  1  0.07535679  0.02068146  0.33977822  1  0  -0.130741  -0.199049  0  2.532239  0
I  I107  1  0.05485509  0.97929167  0.16015776  1  0  -0.130683  -0.198979  0  2.530442  0
I  I108  1  0.89999070  0.69454509  0.76249692  1  0  -0.155941  -0.26868  0  2.377187  0
I  I109  1  0.20489444  0.30553096  0.73745801  1  0  -0.155944  -0.268531  0  2.37689  0
I  I110  1  0.10001390  0.30545524  0.23750379  1  0  -0.155953  -0.2687  0  2.377182  0
I  I111  1  0.79509765  0.69446885  0.26254165  1  0  -0.155929  -0.268505  0  2.3769  0
I  I112  1  0.36925541  0.82364769  0.69426379  1  0  -0.130642  -0.171626  0  2.695088  0
I  I113  1  0.54551901  0.17638242  0.80559691  1  0  -0.130698  -0.171627  0  2.696406  0
I  I114  1  0.63075189  0.17635316  0.30573585  1  0  -0.130631  -0.171615  0  2.694998  0
I  I115  1  0.45447797  0.82361738  0.19440233  1  0  -0.130662  -0.171572  0  2.696326  0
I  I116  1  0.39638099  0.61264985  0.57335693  1  0  -0.166849  -0.262883  0  2.316913  0
I  I117  1  0.78353322  0.38744927  0.92662630  1  0  -0.166816  -0.262728  0  2.314111  0
I  I118  1  0.60363522  0.38735411  0.42664477  1  0  -0.16686  -0.262924  0  2.316907  0
I  I119  1  0.21645861  0.61255001  0.07337401  1  0  -0.166812  -0.262721  0  2.31415  0
N  N120  1  0.46246534  0.10052784  0.62175578  1  0  -0.387739  -0.227784  0  3.659485  0
N  N121  1  0.36259059  0.89942087  0.87818310  1  0  -0.38748  -0.226841  0  3.659788  0
N  N122  1  0.53752429  0.89947197  0.37824516  1  0  -0.387741  -0.227724  0  3.659472  0
N  N123  1  0.63741672  0.10057997  0.12181697  1  0  -0.3875  -0.226796  0  3.659656  0
N  N124  1  0.59541828  0.15599540  0.56321785  1  0  -0.228224  0.004298  0  3.789883  0
N  N125  1  0.44069808  0.84403506  0.93677826  1  0  -0.228661  0.00404  0  3.790266  0
N  N126  1  0.40456864  0.84400388  0.43678374  1  0  -0.228248  0.004206  0  3.789985  0
N  N127  1  0.55932470  0.15596734  0.06322241  1  0  -0.228659  0.00414  0  3.790104  0
N  N128  1  0.84308483  0.39933856  0.60910191  1  0  -0.223935  0.009893  0  3.766561  0
N  N129  1  0.44405945  0.60068664  0.89079103  1  0  -0.224187  0.009217  0  3.76822  0
N  N130  1  0.15691654  0.60066021  0.39089778  1  0  -0.22408  0.009703  0  3.7665  0
N  N131  1  0.55593612  0.39931524  0.10920986  1  0  -0.224092  0.009392  0  3.768045  0
N  N132  1  0.85769715  0.51313770  0.64147180  1  0  -0.383291  -0.225159  0  3.666848  0
N  N133  1  0.34411537  0.48690429  0.85838225  1  0  -0.383149  -0.225609  0  3.665386  0
N  N134  1  0.14230422  0.48686107  0.35852788  1  0  -0.383257  -0.22515  0  3.666782  0
N  N135  1  0.65588704  0.51309655  0.14161824  1  0  -0.383168  -0.225598  0  3.665358  0
