# generated using pymatgen
data_ZnH3C5Br(N2O)2
_symmetry_space_group_name_H-M   'P 1'
_cell_length_a   12.10558161
_cell_length_b   12.10560948
_cell_length_c   12.10556701
_cell_angle_alpha   95.89103037
_cell_angle_beta   95.89099479
_cell_angle_gamma   95.89130662
_symmetry_Int_Tables_number   1
_chemical_formula_structural   ZnH3C5Br(N2O)2
_chemical_formula_sum   'Zn6 H18 C30 Br6 N24 O12'
_cell_volume   1743.80750973
_cell_formula_units_Z   6
loop_
 _symmetry_equiv_pos_site_id
 _symmetry_equiv_pos_as_xyz
  1  'x, y, z'
loop_
 _atom_site_type_symbol
 _atom_site_label
 _atom_site_symmetry_multiplicity
 _atom_site_fract_x
 _atom_site_fract_y
 _atom_site_fract_z
 _atom_site_occupancy
 _atom_site_pbe_bader_charge
 _atom_site_pbe_bader_spin_density
 _atom_site_pbe_cm5_charge
 _atom_site_pbe_ddec_charge
 _atom_site_pbe_ddec_spin_density
 _atom_site_pbe_ddec_sum_bond_order
 _atom_site_pbe_magmom
Zn  Zn0  1  0.95056450  0.67676793  0.23982639  1  1.271055  0  0.6948  0.814892  0  2.386693  0
Zn  Zn1  1  0.23982579  0.95056471  0.67676809  1  1.271052  0  0.694792  0.814894  0  2.386665  0
Zn  Zn2  1  0.67676620  0.23982737  0.95056535  1  1.271055  0  0.694788  0.814896  0  2.386708  0
Zn  Zn3  1  0.04943414  0.32323289  0.76017222  1  1.271059  0  0.694796  0.814914  0  2.386682  0
Zn  Zn4  1  0.76017368  0.04943455  0.32323127  1  1.271043  0  0.6948  0.814903  0  2.386593  0
Zn  Zn5  1  0.32323244  0.76017180  0.04943639  1  1.27101  0  0.694794  0.814909  0  2.386726  0
H  H6  1  0.87198770  0.30798764  0.37282538  1  0.531624  0  0.293662  0.311955  0  1.005028  0
H  H7  1  0.37282666  0.87198310  0.30798890  1  0.531659  0  0.29366  0.311944  0  1.005069  0
H  H8  1  0.30798717  0.37282620  0.87198421  1  0.531581  0  0.29364  0.311922  0  1.005083  0
H  H9  1  0.12801261  0.69201421  0.62717598  1  0.531602  0  0.29364  0.311921  0  1.005054  0
H  H10  1  0.62717448  0.12801054  0.69201253  1  0.531628  0  0.293672  0.31194  0  1.005065  0
H  H11  1  0.69201230  0.62717390  0.12801606  1  0.531588  0  0.293635  0.311915  0  1.005089  0
H  H12  1  0.94727602  0.40278168  0.48680730  1  0.497928  0  0.301204  0.323068  0  0.966707  0
H  H13  1  0.48680862  0.94727308  0.40278191  1  0.497934  0  0.301198  0.323064  0  0.966723  0
H  H14  1  0.40278115  0.48680757  0.94727514  1  0.497933  0  0.301218  0.323086  0  0.966696  0
H  H15  1  0.05272262  0.59722081  0.51319395  1  0.497948  0  0.301192  0.323087  0  0.966721  0
H  H16  1  0.51319252  0.05272056  0.59721870  1  0.497918  0  0.301179  0.323063  0  0.966745  0
H  H17  1  0.59721832  0.51319169  0.05272669  1  0.497939  0  0.301207  0.32307  0  0.966715  0
H  H18  1  0.69638032  0.08646182  0.09985591  1  0.45669  0  0.277918  0.285582  0  1.016254  0
H  H19  1  0.09985763  0.69637824  0.08646364  1  0.456707  0  0.27791  0.285546  0  1.016291  0
H  H20  1  0.08646297  0.09985804  0.69637857  1  0.4567  0  0.27795  0.285604  0  1.016241  0
H  H21  1  0.30361748  0.91353725  0.90014656  1  0.456734  0  0.277933  0.28559  0  1.016246  0
H  H22  1  0.90014101  0.30362342  0.91353587  1  0.456615  0  0.277944  0.285595  0  1.016294  0
H  H23  1  0.91353734  0.90014215  0.30361932  1  0.456702  0  0.277958  0.285611  0  1.016229  0
C  C24  1  0.84278310  0.47850660  0.04954932  1  0.997181  0  0.196775  0.319521  0  4.055063  0
C  C25  1  0.04954916  0.84278368  0.47850664  1  0.997174  0  0.196777  0.31951  0  4.055079  0
C  C26  1  0.47850596  0.04954941  0.84278602  1  0.997191  0  0.196783  0.319545  0  4.055087  0
C  C27  1  0.15721804  0.52149120  0.95045089  1  0.997148  0  0.196739  0.319524  0  4.05503  0
C  C28  1  0.95045031  0.15721807  0.52149214  1  0.997152  0  0.196773  0.319568  0  4.055083  0
C  C29  1  0.52149351  0.95045068  0.15721590  1  0.997193  0  0.196731  0.319434  0  4.055198  0
C  C30  1  0.91686237  0.46487814  0.33701486  1  1.376708  0  0.244699  0.541263  0  4.142488  0
C  C31  1  0.33701635  0.91685820  0.46487973  1  1.376739  0  0.244764  0.541298  0  4.142387  0
C  C32  1  0.46487886  0.33701647  0.91685776  1  1.376676  0  0.244739  0.541288  0  4.142454  0
C  C33  1  0.08313961  0.53512224  0.66298569  1  1.376633  0  0.244713  0.54125  0  4.142507  0
C  C34  1  0.66298395  0.08313867  0.53512029  1  1.37672  0  0.244721  0.541232  0  4.142641  0
C  C35  1  0.53512145  0.66298455  0.08314187  1  1.376662  0  0.244738  0.541237  0  4.142548  0
C  C36  1  0.87306067  0.43695055  0.21837702  1  0.41325  0  0.071273  -0.005339  0  3.991978  0
C  C37  1  0.21837834  0.87305933  0.43695191  1  0.413235  0  0.071238  -0.005396  0  3.991927  0
C  C38  1  0.43695014  0.21837872  0.87305990  1  0.413209  0  0.071245  -0.005384  0  3.991947  0
C  C39  1  0.12694047  0.56304807  0.78162244  1  0.413144  0  0.071248  -0.005342  0  3.991913  0
C  C40  1  0.78162113  0.12694159  0.56304762  1  0.41328  0  0.071238  -0.005405  0  3.992044  0
C  C41  1  0.56304933  0.78162054  0.12694028  1  0.413195  0  0.071282  -0.005316  0  3.991942  0
C  C42  1  0.81938859  0.34235584  0.15015927  1  0.426496  0  0.077355  0.028996  0  3.951429  0
C  C43  1  0.15015926  0.81938798  0.34235724  1  0.426513  0  0.077401  0.029062  0  3.951418  0
C  C44  1  0.34235504  0.15015931  0.81938706  1  0.426354  0  0.077358  0.029086  0  3.951373  0
C  C45  1  0.18061422  0.65764297  0.84984286  1  0.426669  0  0.077358  0.028997  0  3.951372  0
C  C46  1  0.84983938  0.18061534  0.65764079  1  0.426509  0  0.077363  0.029042  0  3.951393  0
C  C47  1  0.65764527  0.84984088  0.18061165  1  0.426403  0  0.077356  0.029053  0  3.951304  0
C  C48  1  0.77893941  0.22786038  0.17049875  1  1.375843  0  0.220264  0.524108  0  4.191541  0
C  C49  1  0.17049912  0.77893885  0.22786139  1  1.375775  0  0.220347  0.524229  0  4.191413  0
C  C50  1  0.22786042  0.17049873  0.77893745  1  1.375922  0  0.220334  0.524229  0  4.191389  0
C  C51  1  0.22106090  0.77213981  0.82950409  1  1.375712  0  0.22031  0.524168  0  4.191418  0
C  C52  1  0.82949952  0.22106364  0.77213739  1  1.375781  0  0.22034  0.524299  0  4.191274  0
C  C53  1  0.77214073  0.82950155  0.22106053  1  1.375831  0  0.220369  0.524229  0  4.191367  0
Br  Br54  1  0.84286493  0.56022692  0.92608492  1  -0.001153  0  0.07309  -0.016103  0  1.40328  0
Br  Br55  1  0.92608392  0.84286779  0.56022595  1  -0.001147  0  0.073073  -0.016104  0  1.403257  0
Br  Br56  1  0.56022796  0.92608658  0.84287289  1  -0.001138  0  0.073075  -0.016092  0  1.403205  0
Br  Br57  1  0.15713621  0.43977171  0.07391536  1  -0.00115  0  0.073083  -0.016112  0  1.403229  0
Br  Br58  1  0.07391472  0.15713636  0.43977299  1  -0.00113  0  0.07308  -0.016122  0  1.403272  0
Br  Br59  1  0.43977319  0.07391454  0.15713013  1  -0.001136  0  0.073088  -0.016056  0  1.403236  0
N  N60  1  0.80058871  0.37052843  0.04272882  1  -1.1913  0  -0.34762  -0.381035  0  3.452378  0
N  N61  1  0.04272876  0.80059047  0.37052806  1  -1.191169  0  -0.347641  -0.381078  0  3.45246  0
N  N62  1  0.37052771  0.04272891  0.80059182  1  -1.191148  0  -0.347621  -0.381131  0  3.452514  0
N  N63  1  0.19941076  0.62947001  0.95727293  1  -1.191212  0  -0.347597  -0.381062  0  3.452389  0
N  N64  1  0.95727071  0.19941295  0.62947090  1  -1.191182  0  -0.347628  -0.38113  0  3.452455  0
N  N65  1  0.62947260  0.95727210  0.19940862  1  -1.191143  0  -0.347611  -0.381048  0  3.452467  0
N  N66  1  0.88692091  0.52231586  0.15244277  1  -1.200246  0  -0.362817  -0.385201  0  3.571363  0
N  N67  1  0.15244363  0.88691905  0.52231720  1  -1.200254  0  -0.362813  -0.385207  0  3.571389  0
N  N68  1  0.52231553  0.15244412  0.88692013  1  -1.200236  0  -0.362835  -0.385294  0  3.571483  0
N  N69  1  0.11308191  0.47768295  0.84755689  1  -1.200259  0  -0.362778  -0.385161  0  3.571278  0
N  N70  1  0.84755668  0.11308197  0.47768243  1  -1.200258  0  -0.362818  -0.385219  0  3.57141  0
N  N71  1  0.47768395  0.84755514  0.11308170  1  -1.200217  0  -0.362841  -0.385316  0  3.571518  0
N  N72  1  0.90901786  0.38665769  0.40597806  1  -1.297381  0  -0.558319  -0.607146  0  3.332849  0
N  N73  1  0.40597949  0.90901422  0.38665797  1  -1.297394  0  -0.558367  -0.607197  0  3.3329  0
N  N74  1  0.38665726  0.40597857  0.90901485  1  -1.297352  0  -0.558362  -0.607195  0  3.332877  0
N  N75  1  0.09098161  0.61334407  0.59402321  1  -1.297322  0  -0.558324  -0.607181  0  3.3329  0
N  N76  1  0.59402249  0.09098034  0.61334199  1  -1.297378  0  -0.558316  -0.60712  0  3.332963  0
N  N77  1  0.61334221  0.59402069  0.09098616  1  -1.297355  0  -0.558365  -0.607175  0  3.332922  0
N  N78  1  0.72508488  0.16460373  0.08302989  1  -1.309429  0  -0.55788  -0.696382  0  3.324515  0
N  N79  1  0.08303226  0.72508518  0.16460558  1  -1.309469  0  -0.557955  -0.696434  0  3.324514  0
N  N80  1  0.16460523  0.08303187  0.72508315  1  -1.309499  0  -0.557955  -0.696455  0  3.324507  0
N  N81  1  0.27491376  0.83539461  0.91697094  1  -1.309482  0  -0.557951  -0.696439  0  3.32457  0
N  N82  1  0.91696554  0.27491804  0.83539318  1  -1.309353  0  -0.55797  -0.696548  0  3.324555  0
N  N83  1  0.83539591  0.91696841  0.27491400  1  -1.309438  0  -0.557984  -0.696462  0  3.324426  0
O  O84  1  0.96217075  0.56466752  0.36885706  1  -1.166829  0  -0.303641  -0.519265  0  2.244656  0
O  O85  1  0.36885709  0.96216791  0.56466817  1  -1.166824  0  -0.303649  -0.519224  0  2.244699  0
O  O86  1  0.56466707  0.36885831  0.96216666  1  -1.166811  0  -0.30361  -0.519207  0  2.244755  0
O  O87  1  0.03783040  0.43533360  0.63114265  1  -1.166807  0  -0.303602  -0.519211  0  2.244667  0
O  O88  1  0.63114239  0.03783052  0.43533110  1  -1.166861  0  -0.303639  -0.519229  0  2.244757  0
O  O89  1  0.43533324  0.63114188  0.03783287  1  -1.166806  0  -0.303597  -0.519173  0  2.244752  0
O  O90  1  0.79869067  0.19983730  0.27040986  1  -1.180452  0  -0.32076  -0.538895  0  2.376552  0
O  O91  1  0.27041294  0.79868736  0.19983882  1  -1.180491  0  -0.320747  -0.538909  0  2.376474  0
O  O92  1  0.19983776  0.27041206  0.79868610  1  -1.180452  0  -0.320741  -0.538926  0  2.376454  0
O  O93  1  0.20131047  0.80016298  0.72958978  1  -1.18041  0  -0.320762  -0.538893  0  2.376463  0
O  O94  1  0.72958653  0.20131107  0.80016128  1  -1.18047  0  -0.320743  -0.53892  0  2.3765  0
O  O95  1  0.80016255  0.72958730  0.20131087  1  -1.180472  0  -0.320746  -0.538903  0  2.376492  0
