# generated using pymatgen
data_CuH8C4S2I
_symmetry_space_group_name_H-M   'P 1'
_cell_length_a   6.57123134
_cell_length_b   7.52234468
_cell_length_c   16.07953922
_cell_angle_alpha   89.99986700
_cell_angle_beta   89.99955069
_cell_angle_gamma   98.14671506
_symmetry_Int_Tables_number   1
_chemical_formula_structural   CuH8C4S2I
_chemical_formula_sum   'Cu4 H32 C16 S8 I4'
_cell_volume   786.80772531
_cell_formula_units_Z   4
loop_
 _symmetry_equiv_pos_site_id
 _symmetry_equiv_pos_as_xyz
  1  'x, y, z'
loop_
 _atom_site_type_symbol
 _atom_site_label
 _atom_site_symmetry_multiplicity
 _atom_site_fract_x
 _atom_site_fract_y
 _atom_site_fract_z
 _atom_site_occupancy
 _atom_site_hle17_bader_spin_density
 _atom_site_hle17_ddec_charge
 _atom_site_hle17_ddec_spin_density
 _atom_site_hle17_ddec_sum_bond_order
 _atom_site_hle17_magmom
 _atom_site_hse06_10hf_bader_spin_density
 _atom_site_hse06_10hf_ddec_charge
 _atom_site_hse06_10hf_ddec_spin_density
 _atom_site_hse06_10hf_ddec_sum_bond_order
 _atom_site_hse06_10hf_magmom
 _atom_site_hse06_bader_spin_density
 _atom_site_hse06_ddec_charge
 _atom_site_hse06_ddec_spin_density
 _atom_site_hse06_ddec_sum_bond_order
 _atom_site_hse06_magmom
 _atom_site_pbe_bader_spin_density
 _atom_site_pbe_cm5_charge
 _atom_site_pbe_ddec_charge
 _atom_site_pbe_ddec_spin_density
 _atom_site_pbe_ddec_sum_bond_order
 _atom_site_pbe_magmom
Cu  Cu0  1  0.69848666  0.03775400  0.98364954  1  0  0.135749  0  2.42491  0  0  0.071708  0  2.920726  0  0  0.077616  0  2.871115  0  0  0.235749  0.069926  0  2.952515  0
Cu  Cu1  1  0.30150825  0.46224093  0.48365308  1  0  0.135773  0  2.424809  0  0  0.071706  0  2.920625  0  0  0.077634  0  2.871006  0  0  0.235749  0.069939  0  2.952413  0
Cu  Cu2  1  0.30150669  0.96224039  0.01635028  1  0  0.135655  0  2.424907  0  0  0.071594  0  2.920742  0  0  0.077529  0  2.871131  0  0  0.235692  0.069819  0  2.952513  0
Cu  Cu3  1  0.69848282  0.53775879  0.51634985  1  0  0.13573  0  2.424805  0  0  0.071657  0  2.920624  0  0  0.077584  0  2.871009  0  0  0.235713  0.069881  0  2.952413  0
H  H4  1  0.64306057  0.60860959  0.90560422  1  0  0.090928  0  0.949546  0  0  0.102906  0  1.018425  0  0  0.104522  0  1.018146  0  0  0.087209  0.101719  0  1.018628  0
H  H5  1  0.35695354  0.89138950  0.40561076  1  0  0.090855  0  0.949272  0  0  0.102909  0  1.018127  0  0  0.104525  0  1.017849  0  0  0.0872  0.101725  0  1.018325  0
H  H6  1  0.35693700  0.39139290  0.09438938  1  0  0.090885  0  0.949537  0  0  0.102864  0  1.018415  0  0  0.104475  0  1.018144  0  0  0.08718  0.101684  0  1.018617  0
H  H7  1  0.64304649  0.10860900  0.59439342  1  0  0.090842  0  0.949298  0  0  0.102878  0  1.018173  0  0  0.104491  0  1.017894  0  0  0.087198  0.101693  0  1.018373  0
H  H8  1  0.58831229  0.74534122  0.81995130  1  0  0.093305  0  0.948678  0  0  0.108762  0  1.013459  0  0  0.110483  0  1.0126  0  0  0.09236  0.107483  0  1.014117  0
H  H9  1  0.41168119  0.75464085  0.31995405  1  0  0.093269  0  0.948988  0  0  0.108729  0  1.013752  0  0  0.110446  0  1.012898  0  0  0.092365  0.107453  0  1.014409  0
H  H10  1  0.41167823  0.25466519  0.18004479  1  0  0.093294  0  0.948827  0  0  0.108729  0  1.013613  0  0  0.110468  0  1.012733  0  0  0.092343  0.107453  0  1.01427  0
H  H11  1  0.58832494  0.24535774  0.68005013  1  0  0.093224  0  0.948935  0  0  0.108696  0  1.013692  0  0  0.110394  0  1.012858  0  0  0.092347  0.107419  0  1.014347  0
H  H12  1  0.71752806  0.47493830  0.76792235  1  0  0.072119  0  0.95339  0  0  0.090392  0  1.016657  0  0  0.090877  0  1.01756  0  0  0.080988  0.089957  0  1.016188  0
H  H13  1  0.28247895  0.02503842  0.26791889  1  0  0.072073  0  0.953422  0  0  0.090403  0  1.016697  0  0  0.090887  0  1.017604  0  0  0.080981  0.089965  0  1.016243  0
H  H14  1  0.28247963  0.52507103  0.23206876  1  0  0.072155  0  0.953333  0  0  0.090444  0  1.016621  0  0  0.090929  0  1.017526  0  0  0.080997  0.090011  0  1.016161  0
H  H15  1  0.71752699  0.97495882  0.73208466  1  0  0.072062  0  0.9534  0  0  0.09039  0  1.016681  0  0  0.090874  0  1.017586  0  0  0.080976  0.089951  0  1.016223  0
H  H16  1  0.88783790  0.66885169  0.74152571  1  0  0.070024  0  0.957955  0  0  0.086551  0  1.02428  0  0  0.087061  0  1.02555  0  0  0.083522  0.086199  0  1.023327  0
H  H17  1  0.11215579  0.83112162  0.24152253  1  0  0.069741  0  0.95774  0  0  0.086352  0  1.024099  0  0  0.08686  0  1.025372  0  0  0.08343  0.086003  0  1.023151  0
H  H18  1  0.11217303  0.33115902  0.25847287  1  0  0.069937  0  0.958084  0  0  0.086498  0  1.024398  0  0  0.087009  0  1.025669  0  0  0.083497  0.086148  0  1.023453  0
H  H19  1  0.88785319  0.16887566  0.75847729  1  0  0.06983  0  0.957825  0  0  0.08649  0  1.024118  0  0  0.086998  0  1.025392  0  0  0.083477  0.086133  0  1.02318  0
H  H20  1  0.08303690  0.43244289  0.78440088  1  0  0.074669  0  0.939125  0  0  0.090691  0  1.004789  0  0  0.09185  0  1.004977  0  0  0.085082  0.089791  0  1.004807  0
H  H21  1  0.91698051  0.06755528  0.28440338  1  0  0.074765  0  0.939238  0  0  0.090738  0  1.004835  0  0  0.091891  0  1.005028  0  0  0.085054  0.089836  0  1.00486  0
H  H22  1  0.91697306  0.56756111  0.21559583  1  0  0.074672  0  0.939187  0  0  0.090682  0  1.004842  0  0  0.091829  0  1.005044  0  0  0.085031  0.089778  0  1.004864  0
H  H23  1  0.08303003  0.93245275  0.71559644  1  0  0.074714  0  0.939309  0  0  0.090701  0  1.004922  0  0  0.091855  0  1.005114  0  0  0.085054  0.0898  0  1.004942  0
H  H24  1  0.94061207  0.39271343  0.87742081  1  0  0.06077  0  0.977578  0  0  0.072814  0  1.054522  0  0  0.073609  0  1.054943  0  0  0.073932  0.072197  0  1.054304  0
H  H25  1  0.05940750  0.10729073  0.37742485  1  0  0.060655  0  0.977374  0  0  0.072536  0  1.054442  0  0  0.073329  0  1.054863  0  0  0.073847  0.071923  0  1.054221  0
H  H26  1  0.05937998  0.60729301  0.12257279  1  0  0.060725  0  0.977395  0  0  0.072707  0  1.05442  0  0  0.073502  0  1.054841  0  0  0.073916  0.072088  0  1.054199  0
H  H27  1  0.94059559  0.89270782  0.62257746  1  0  0.060662  0  0.977346  0  0  0.072555  0  1.054413  0  0  0.073347  0  1.054832  0  0  0.073849  0.071937  0  1.054195  0
H  H28  1  0.24740322  0.73224417  0.83718557  1  0  0.089176  0  0.949316  0  0  0.101975  0  1.017016  0  0  0.103879  0  1.016202  0  0  0.088098  0.10055  0  1.017685  0
H  H29  1  0.75259299  0.76774852  0.33718283  1  0  0.089155  0  0.948999  0  0  0.101935  0  1.016769  0  0  0.10384  0  1.015953  0  0  0.088095  0.100506  0  1.017439  0
H  H30  1  0.75258977  0.26775825  0.16282234  1  0  0.089181  0  0.949211  0  0  0.101961  0  1.016947  0  0  0.103866  0  1.016133  0  0  0.088093  0.100533  0  1.017622  0
H  H31  1  0.24740684  0.23224864  0.66281512  1  0  0.089133  0  0.949088  0  0  0.101926  0  1.016824  0  0  0.103829  0  1.016009  0  0  0.088092  0.100498  0  1.017491  0
H  H32  1  0.28431237  0.55313132  0.90649790  1  0  0.097545  0  0.950363  0  0  0.11287  0  1.01546  0  0  0.114335  0  1.015253  0  0  0.090246  0.111679  0  1.015765  0
H  H33  1  0.71570153  0.94686642  0.40649823  1  0  0.097645  0  0.950616  0  0  0.112944  0  1.015729  0  0  0.114407  0  1.015523  0  0  0.090249  0.11175  0  1.016035  0
H  H34  1  0.71567965  0.44686439  0.09350752  1  0  0.097577  0  0.950523  0  0  0.112889  0  1.015625  0  0  0.114354  0  1.01542  0  0  0.090237  0.111697  0  1.01593  0
H  H35  1  0.28430136  0.05313078  0.59350097  1  0  0.09762  0  0.950605  0  0  0.112925  0  1.015711  0  0  0.114388  0  1.015506  0  0  0.090245  0.111731  0  1.016018  0
C  C36  1  0.71125093  0.68946414  0.85300120  1  0  -0.138607  0  3.626552  0  0  -0.174817  0  3.883849  0  0  -0.175169  0  3.895093  0  0  -0.154713  -0.174321  0  3.875961  0
C  C37  1  0.28874834  0.81050970  0.35299124  1  0  -0.138663  0  3.626614  0  0  -0.174957  0  3.884081  0  0  -0.175303  0  3.895323  0  0  -0.154764  -0.174458  0  3.87619  0
C  C38  1  0.28875234  0.31053574  0.14699924  1  0  -0.138509  0  3.626598  0  0  -0.174693  0  3.883894  0  0  -0.175051  0  3.89513  0  0  -0.154634  -0.174209  0  3.87602  0
C  C39  1  0.71125321  0.18948882  0.64701107  1  0  -0.138442  0  3.626389  0  0  -0.174757  0  3.883952  0  0  -0.175082  0  3.895194  0  0  -0.15473  -0.174258  0  3.876055  0
C  C40  1  0.82963253  0.58308190  0.79408892  1  0  -0.112602  0  3.707443  0  0  -0.149033  0  3.956193  0  0  -0.151018  0  3.972782  0  0  -0.178437  -0.147435  0  3.944599  0
C  C41  1  0.17038232  0.91692881  0.29409604  1  0  -0.112092  0  3.707162  0  0  -0.148806  0  3.956094  0  0  -0.150793  0  3.972688  0  0  -0.178285  -0.147203  0  3.944492  0
C  C42  1  0.17036925  0.41692869  0.20590593  1  0  -0.112612  0  3.707716  0  0  -0.149129  0  3.956518  0  0  -0.151116  0  3.973113  0  0  -0.178453  -0.147536  0  3.944932  0
C  C43  1  0.82963146  0.08308060  0.70590627  1  0  -0.112308  0  3.707281  0  0  -0.149049  0  3.956271  0  0  -0.151036  0  3.97286  0  0  -0.178332  -0.147446  0  3.944656  0
C  C44  1  0.00469829  0.49854915  0.83370587  1  0  -0.107677  0  3.699913  0  0  -0.144545  0  3.950146  0  0  -0.146545  0  3.966355  0  0  -0.178044  -0.143014  0  3.938914  0
C  C45  1  0.99529691  0.00142821  0.33369947  1  0  -0.107853  0  3.700536  0  0  -0.144269  0  3.950338  0  0  -0.14625  0  3.96652  0  0  -0.177908  -0.142735  0  3.939097  0
C  C46  1  0.99529298  0.50145191  0.16629955  1  0  -0.107663  0  3.699874  0  0  -0.144444  0  3.950122  0  0  -0.146423  0  3.966306  0  0  -0.177999  -0.142922  0  3.938933  0
C  C47  1  0.00470559  0.99856630  0.66630221  1  0  -0.107758  0  3.700282  0  0  -0.144279  0  3.950292  0  0  -0.146257  0  3.966468  0  0  -0.177943  -0.142746  0  3.939048  0
C  C48  1  0.16908210  0.62721954  0.87827025  1  0  -0.138676  0  3.625627  0  0  -0.174709  0  3.88392  0  0  -0.17524  0  3.89543  0  0  -0.155141  -0.17412  0  3.875909  0
C  C49  1  0.83093071  0.87279850  0.37827711  1  0  -0.138663  0  3.626239  0  0  -0.174715  0  3.884386  0  0  -0.175242  0  3.895893  0  0  -0.155087  -0.174146  0  3.876446  0
C  C50  1  0.83090784  0.37278284  0.12173019  1  0  -0.138599  0  3.62564  0  0  -0.174613  0  3.883901  0  0  -0.175143  0  3.895411  0  0  -0.155059  -0.174016  0  3.875877  0
C  C51  1  0.16907468  0.12720543  0.62172146  1  0  -0.138632  0  3.626135  0  0  -0.174635  0  3.884236  0  0  -0.175163  0  3.895745  0  0  -0.155071  -0.174061  0  3.876282  0
S  S52  1  0.87606910  0.88386281  0.89488450  1  0  0.045095  0  2.7927  0  0  0.062826  0  3.241685  0  0  0.066518  0  3.224786  0  0  -0.022855  0.058387  0  3.254736  0
S  S53  1  0.12393358  0.61612950  0.39488770  1  0  0.045113  0  2.792784  0  0  0.062864  0  3.241804  0  0  0.066546  0  3.224912  0  0  -0.022877  0.05843  0  3.254848  0
S  S54  1  0.12392464  0.11613426  0.10511470  1  0  0.045069  0  2.792573  0  0  0.062804  0  3.241542  0  0  0.066488  0  3.224651  0  0  -0.02287  0.058371  0  3.25459  0
S  S55  1  0.87607216  0.38386640  0.60511523  1  0  0.045073  0  2.792776  0  0  0.062829  0  3.241785  0  0  0.066513  0  3.224884  0  0  -0.022846  0.058396  0  3.25483  0
S  S56  1  0.06413541  0.74026375  0.96509998  1  0  0.04716  0  2.770723  0  0  0.06552  0  3.21465  0  0  0.068469  0  3.19842  0  0  -0.019076  0.062916  0  3.22556  0
S  S57  1  0.93586265  0.75973732  0.46509913  1  0  0.047154  0  2.770751  0  0  0.065493  0  3.214706  0  0  0.068447  0  3.198468  0  0  -0.019088  0.062893  0  3.22562  0
S  S58  1  0.93584288  0.25973177  0.03490233  1  0  0.047119  0  2.770705  0  0  0.065458  0  3.21468  0  0  0.068416  0  3.19844  0  0  -0.019093  0.062852  0  3.225598  0
S  S59  1  0.06413930  0.24026389  0.53490006  1  0  0.04712  0  2.770953  0  0  0.065463  0  3.214887  0  0  0.068417  0  3.19865  0  0  -0.019114  0.06285  0  3.225809  0
I  I60  1  0.56489368  0.82838018  0.11138311  1  0  -0.378902  0  1.368657  0  0  -0.323811  0  1.743108  0  0  -0.341174  0  1.713693  0  0  -0.208915  -0.311812  0  1.762356  0
I  I61  1  0.43510873  0.67159429  0.61139959  1  0  -0.378916  0  1.368589  0  0  -0.32384  0  1.743058  0  0  -0.3412  0  1.71363  0  0  -0.208907  -0.311844  0  1.762308  0
I  I62  1  0.43510227  0.17159012  0.88860490  1  0  -0.378911  0  1.368587  0  0  -0.323822  0  1.743042  0  0  -0.34118  0  1.713617  0  0  -0.208923  -0.311823  0  1.762289  0
I  I63  1  0.56489474  0.32840694  0.38860459  1  0  -0.378934  0  1.368582  0  0  -0.323839  0  1.743012  0  0  -0.341205  0  1.713594  0  0  -0.208927  -0.311842  0  1.762261  0
