# generated using pymatgen
data_ZnP2H18C18(NO3)2
_symmetry_space_group_name_H-M   'P 1'
_cell_length_a   8.33609640
_cell_length_b   10.49460259
_cell_length_c   11.44103096
_cell_angle_alpha   94.80973395
_cell_angle_beta   93.51023641
_cell_angle_gamma   109.80757959
_symmetry_Int_Tables_number   1
_chemical_formula_structural   ZnP2H18C18(NO3)2
_chemical_formula_sum   'Zn2 P4 H36 C36 N4 O12'
_cell_volume   934.07450168
_cell_formula_units_Z   2
loop_
 _symmetry_equiv_pos_site_id
 _symmetry_equiv_pos_as_xyz
  1  'x, y, z'
loop_
 _atom_site_type_symbol
 _atom_site_label
 _atom_site_symmetry_multiplicity
 _atom_site_fract_x
 _atom_site_fract_y
 _atom_site_fract_z
 _atom_site_occupancy
 _atom_site_hle17_bader_spin_density
 _atom_site_hle17_ddec_charge
 _atom_site_hle17_ddec_spin_density
 _atom_site_hle17_ddec_sum_bond_order
 _atom_site_hle17_magmom
 _atom_site_hse06_10hf_bader_spin_density
 _atom_site_hse06_10hf_ddec_charge
 _atom_site_hse06_10hf_ddec_spin_density
 _atom_site_hse06_10hf_ddec_sum_bond_order
 _atom_site_hse06_10hf_magmom
 _atom_site_hse06_bader_spin_density
 _atom_site_hse06_ddec_charge
 _atom_site_hse06_ddec_spin_density
 _atom_site_hse06_ddec_sum_bond_order
 _atom_site_hse06_magmom
 _atom_site_pbe_bader_spin_density
 _atom_site_pbe_cm5_charge
 _atom_site_pbe_ddec_charge
 _atom_site_pbe_ddec_spin_density
 _atom_site_pbe_ddec_sum_bond_order
 _atom_site_pbe_magmom
Zn  Zn0  1  0.07017219  0.35414744  0.37983650  1  0  1.153088  0  1.805618  0  0  0.97132  0  2.282932  0  0  1.015076  0  2.225685  0  0  0.719224  0.940627  0  2.322132  0
Zn  Zn1  1  0.92982705  0.64585314  0.62016510  1  0  1.153058  0  1.805654  0  0  0.971324  0  2.282983  0  0  1.01508  0  2.225731  0  0  0.719246  0.940624  0  2.322182  0
P  P2  1  0.77115006  0.51841729  0.37204064  1  0  1.521809  0  4.785771  0  0  1.372762  0  5.279344  0  0  1.421207  0  5.241155  0  0  0.354867  1.338949  0  5.30501  0
P  P3  1  0.22885220  0.48158736  0.62795967  1  0  1.521981  0  4.785486  0  0  1.372947  0  5.279048  0  0  1.421397  0  5.240844  0  0  0.354987  1.339139  0  5.304721  0
P  P4  1  0.81681016  0.46584608  0.84962469  1  0  1.512617  0  4.757756  0  0  1.35532  0  5.261278  0  0  1.403867  0  5.223116  0  0  0.366178  1.321614  0  5.28677  0
P  P5  1  0.18318627  0.53415346  0.15037578  1  0  1.512683  0  4.757664  0  0  1.355357  0  5.261188  0  0  1.403894  0  5.223039  0  0  0.366183  1.321655  0  5.286692  0
H  H6  1  0.91270223  0.60794879  0.22379350  1  0  0.439582  0  0.865844  0  0  0.405069  0  0.934754  0  0  0.416381  0  0.918639  0  0  0.304931  0.397185  0  0.945948  0
H  H7  1  0.08729882  0.39205586  0.77620674  1  0  0.43954  0  0.865898  0  0  0.405032  0  0.934802  0  0  0.41634  0  0.918692  0  0  0.30491  0.397148  0  0.945994  0
H  H8  1  0.93135242  0.58722784  0.02389320  1  0  0.438048  0  0.868731  0  0  0.402342  0  0.939398  0  0  0.414165  0  0.922553  0  0  0.303384  0.39408  0  0.951146  0
H  H9  1  0.06864127  0.41277374  0.97610724  1  0  0.438062  0  0.86869  0  0  0.402354  0  0.939363  0  0  0.414176  0  0.922518  0  0  0.303396  0.394092  0  0.951109  0
H  H10  1  0.24076555  0.27711594  0.16959365  1  0  0.089098  0  0.976133  0  0  0.096244  0  1.040687  0  0  0.098248  0  1.039185  0  0  0.120736  0.094583  0  1.042097  0
H  H11  1  0.75922968  0.72288361  0.83040675  1  0  0.089127  0  0.976108  0  0  0.096274  0  1.04067  0  0  0.09828  0  1.039164  0  0  0.120745  0.094612  0  1.042083  0
H  H12  1  0.23472839  0.06709876  0.04871553  1  0  0.106407  0  0.954371  0  0  0.118121  0  1.01108  0  0  0.120172  0  1.012256  0  0  0.110728  0.116658  0  1.01036  0
H  H13  1  0.76526892  0.93290283  0.95128514  1  0  0.106281  0  0.954432  0  0  0.118015  0  1.011127  0  0  0.120066  0  1.012303  0  0  0.110701  0.116575  0  1.010377  0
H  H14  1  0.03254536  0.83898754  0.09577528  1  0  0.112674  0  0.93721  0  0  0.123384  0  0.993783  0  0  0.126177  0  0.991996  0  0  0.114013  0.121171  0  0.995378  0
H  H15  1  0.96745667  0.16101100  0.90422461  1  0  0.112773  0  0.937144  0  0  0.123466  0  0.993723  0  0  0.126259  0  0.991934  0  0  0.114017  0.121253  0  0.995323  0
H  H16  1  0.86136899  0.83433579  0.26490555  1  0  0.12674  0  0.979375  0  0  0.134842  0  1.038767  0  0  0.138657  0  1.036796  0  0  0.110271  0.132061  0  1.040424  0
H  H17  1  0.13863984  0.16566481  0.73509753  1  0  0.12674  0  0.979328  0  0  0.134839  0  1.038733  0  0  0.138654  0  1.036762  0  0  0.110262  0.132063  0  1.040388  0
H  H18  1  0.74828310  0.84153002  0.41995028  1  0  0.128016  0  0.940956  0  0  0.138141  0  0.997903  0  0  0.141744  0  0.996365  0  0  0.115383  0.135239  0  0.999646  0
H  H19  1  0.25171937  0.15846954  0.58004970  1  0  0.128042  0  0.940908  0  0  0.138162  0  0.997869  0  0  0.141765  0  0.99633  0  0  0.115371  0.135263  0  0.999608  0
H  H20  1  0.59676899  0.87228811  0.59375771  1  0  0.089588  0  0.961228  0  0  0.102316  0  1.020234  0  0  0.104317  0  1.019245  0  0  0.107477  0.100762  0  1.021095  0
H  H21  1  0.40321603  0.12770121  0.40623525  1  0  0.089662  0  0.961256  0  0  0.102345  0  1.020278  0  0  0.104347  0  1.019289  0  0  0.107517  0.100791  0  1.021135  0
H  H22  1  0.63323643  0.10826997  0.68253855  1  0  0.097216  0  0.959769  0  0  0.109323  0  1.017081  0  0  0.111861  0  1.016988  0  0  0.10596  0.107412  0  1.017388  0
H  H23  1  0.36674794  0.89171835  0.31746042  1  0  0.097274  0  0.959718  0  0  0.109394  0  1.017009  0  0  0.111934  0  1.016911  0  0  0.105982  0.107481  0  1.01732  0
H  H24  1  0.82592535  0.30825411  0.59125833  1  0  0.098381  0  0.934005  0  0  0.104205  0  0.998752  0  0  0.107399  0  0.995662  0  0  0.124789  0.101803  0  1.001068  0
H  H25  1  0.17406610  0.69173731  0.40874916  1  0  0.09844  0  0.933761  0  0  0.104193  0  0.998585  0  0  0.107385  0  0.995498  0  0  0.124793  0.101791  0  1.000896  0
H  H26  1  0.51633370  0.33169155  0.38222751  1  0  0.136607  0  0.938424  0  0  0.152761  0  0.991425  0  0  0.155715  0  0.989973  0  0  0.106377  0.150661  0  0.99254  0
H  H27  1  0.48366572  0.66830901  0.61776885  1  0  0.136647  0  0.938665  0  0  0.152816  0  0.991633  0  0  0.155773  0  0.990176  0  0  0.106432  0.150723  0  0.992746  0
H  H28  1  0.47557816  0.44968628  0.29454901  1  0  0.155868  0  0.947119  0  0  0.16817  0  1.004519  0  0  0.171335  0  1.003274  0  0  0.109192  0.165812  0  1.005576  0
H  H29  1  0.52442709  0.55031938  0.70544718  1  0  0.155818  0  0.947113  0  0  0.168099  0  1.004556  0  0  0.17127  0  1.003296  0  0  0.10916  0.165741  0  1.00562  0
H  H30  1  0.62994300  0.15705190  0.29922410  1  0  0.084066  0  0.97737  0  0  0.094097  0  1.043142  0  0  0.096595  0  1.042916  0  0  0.092052  0.092334  0  1.043396  0
H  H31  1  0.37006137  0.84295479  0.70077561  1  0  0.084084  0  0.977339  0  0  0.094116  0  1.043111  0  0  0.096617  0  1.042882  0  0  0.092073  0.092353  0  1.04337  0
H  H32  1  0.55569470  0.45187405  0.08278985  1  0  0.096222  0  0.968207  0  0  0.108273  0  1.031352  0  0  0.111007  0  1.030102  0  0  0.098591  0.106285  0  1.03246  0
H  H33  1  0.44431079  0.54812652  0.91720515  1  0  0.096208  0  0.968238  0  0  0.10828  0  1.031373  0  0  0.111014  0  1.030118  0  0  0.098607  0.106289  0  1.032483  0
H  H34  1  0.68030008  0.02699931  0.12265758  1  0  0.075166  0  0.967944  0  0  0.086918  0  1.029098  0  0  0.089212  0  1.028851  0  0  0.091502  0.085224  0  1.029396  0
H  H35  1  0.31970368  0.97300331  0.87734356  1  0  0.075111  0  0.967939  0  0  0.086844  0  1.02912  0  0  0.089139  0  1.028872  0  0  0.09148  0.085151  0  1.029419  0
H  H36  1  0.58345748  0.25667611  0.80102921  1  0  0.125371  0  0.947226  0  0  0.141221  0  1.002558  0  0  0.144055  0  1.001068  0  0  0.103387  0.139215  0  1.003699  0
H  H37  1  0.41654651  0.74331835  0.19896704  1  0  0.125383  0  0.947378  0  0  0.141254  0  1.002654  0  0  0.144088  0  1.001166  0  0  0.1034  0.139245  0  1.003805  0
H  H38  1  0.51351415  0.38687524  0.86095563  1  0  0.137422  0  0.949881  0  0  0.152352  0  1.005634  0  0  0.155023  0  1.004392  0  0  0.1078  0.150484  0  1.006563  0
H  H39  1  0.48648060  0.61311716  0.13903815  1  0  0.137406  0  0.949888  0  0  0.152378  0  1.00559  0  0  0.155047  0  1.00435  0  0  0.107795  0.150513  0  1.006513  0
H  H40  1  0.66841627  0.10988848  0.92580245  1  0  0.079575  0  0.98643  0  0  0.089736  0  1.05538  0  0  0.092195  0  1.054904  0  0  0.09305  0.08801  0  1.055817  0
H  H41  1  0.33158251  0.89010801  0.07419623  1  0  0.079549  0  0.986487  0  0  0.089734  0  1.055408  0  0  0.092193  0  1.054933  0  0  0.093043  0.088011  0  1.055844  0
C  C42  1  0.15999445  0.17728569  0.18870058  1  0  0.155017  0  3.684337  0  0  0.121934  0  3.935022  0  0  0.129281  0  3.953022  0  0  0.057592  0.117201  0  3.922841  0
C  C43  1  0.84000734  0.82271488  0.81129680  1  0  0.154923  0  3.684238  0  0  0.121839  0  3.934959  0  0  0.129185  0  3.952954  0  0  0.057593  0.117102  0  3.922789  0
C  C44  1  0.15348143  0.05895041  0.12062577  1  0  -0.121728  0  3.723961  0  0  -0.133239  0  3.974636  0  0  -0.141011  0  3.997678  0  0  -0.078353  -0.128157  0  3.958996  0
C  C45  1  0.84652097  0.94105729  0.87937387  1  0  -0.121602  0  3.723864  0  0  -0.133127  0  3.97456  0  0  -0.140894  0  3.997602  0  0  -0.078358  -0.128058  0  3.958913  0
C  C46  1  0.04251485  0.93417596  0.14696503  1  0  0.001296  0  3.704666  0  0  -0.017076  0  3.954926  0  0  -0.013126  0  3.972449  0  0  -0.062189  -0.019355  0  3.943048  0
C  C47  1  0.95748979  0.06582870  0.85303631  1  0  0.001245  0  3.704894  0  0  -0.017099  0  3.955137  0  0  -0.013155  0  3.972662  0  0  -0.062184  -0.01938  0  3.943265  0
C  C48  1  0.94492766  0.93185172  0.24195581  1  0  -0.14552  0  3.682744  0  0  -0.164035  0  3.929407  0  0  -0.17146  0  3.950038  0  0  -0.080248  -0.15927  0  3.915603  0
C  C49  1  0.05507627  0.06814888  0.75804958  1  0  -0.145496  0  3.682843  0  0  -0.164071  0  3.929463  0  0  -0.171495  0  3.950093  0  0  -0.080231  -0.159297  0  3.915677  0
C  C50  1  0.96069303  0.05437543  0.30801821  1  0  0.171708  0  3.781077  0  0  0.166138  0  4.023165  0  0  0.172152  0  4.045038  0  0  0.11885  0.16221  0  4.00829  0
C  C51  1  0.03931044  0.94562415  0.69198796  1  0  0.1716  0  3.781057  0  0  0.166172  0  4.022907  0  0  0.172185  0  4.044779  0  0  0.11884  0.162205  0  4.008094  0
C  C52  1  0.86586987  0.06041373  0.41234245  1  0  0.16629  0  3.782111  0  0  0.163511  0  4.023726  0  0  0.169453  0  4.044756  0  0  0.120184  0.159574  0  4.009445  0
C  C53  1  0.13412870  0.93958279  0.58766233  1  0  0.166164  0  3.781833  0  0  0.163507  0  4.023247  0  0  0.169444  0  4.04427  0  0  0.120189  0.159572  0  4.008981  0
C  C54  1  0.76136230  0.94381498  0.45776010  1  0  -0.141641  0  3.673939  0  0  -0.160565  0  3.922663  0  0  -0.167403  0  3.942928  0  0  -0.07744  -0.156089  0  3.909273  0
C  C55  1  0.23864105  0.05618355  0.54223637  1  0  -0.141651  0  3.673808  0  0  -0.160629  0  3.922504  0  0  -0.167467  0  3.94277  0  0  -0.077425  -0.156154  0  3.90911  0
C  C56  1  0.67737086  0.96111353  0.55605734  1  0  -0.002762  0  3.743838  0  0  -0.024288  0  3.99862  0  0  -0.021106  0  4.018719  0  0  -0.068036  -0.026023  0  3.984688  0
C  C57  1  0.32262512  0.03888193  0.44393934  1  0  -0.00279  0  3.74398  0  0  -0.024266  0  3.998759  0  0  -0.021086  0  4.018857  0  0  -0.068056  -0.025994  0  3.984817  0
C  C58  1  0.69820602  0.09221837  0.60597599  1  0  -0.121256  0  3.73514  0  0  -0.134389  0  3.988398  0  0  -0.141529  0  4.0114  0  0  -0.081933  -0.129737  0  3.972858  0
C  C59  1  0.30178646  0.90777201  0.39402363  1  0  -0.12146  0  3.735258  0  0  -0.134592  0  3.988495  0  0  -0.141738  0  4.011507  0  0  -0.08203  -0.129944  0  3.97296  0
C  C60  1  0.80495159  0.20323835  0.55617674  1  0  0.14996  0  3.667865  0  0  0.120273  0  3.920498  0  0  0.126825  0  3.937132  0  0  0.059432  0.115974  0  3.909252  0
C  C61  1  0.19504988  0.79675919  0.44382655  1  0  0.150083  0  3.667484  0  0  0.120474  0  3.920156  0  0  0.127017  0  3.936791  0  0  0.059525  0.116177  0  3.908908  0
C  C62  1  0.56478712  0.39508064  0.31155502  1  0  -0.496449  0  3.697403  0  0  -0.518383  0  3.934908  0  0  -0.52855  0  3.942212  0  0  -0.166386  -0.511259  0  3.930056  0
C  C63  1  0.43522057  0.60492502  0.68844045  1  0  -0.49646  0  3.697532  0  0  -0.518395  0  3.935024  0  0  -0.528589  0  3.942386  0  0  -0.166455  -0.511246  0  3.930102  0
C  C64  1  0.58620619  0.31261770  0.20334860  1  0  0.145208  0  3.796184  0  0  0.164853  0  4.03336  0  0  0.166794  0  4.058332  0  0  -0.008521  0.163459  0  4.016571  0
C  C65  1  0.41379818  0.68738592  0.79664741  1  0  0.14519  0  3.796212  0  0  0.164824  0  4.033394  0  0  0.166766  0  4.058358  0  0  -0.008555  0.16343  0  4.016619  0
C  C66  1  0.62267580  0.19258405  0.21295102  1  0  -0.142002  0  3.745567  0  0  -0.166457  0  4.002209  0  0  -0.169807  0  4.022956  0  0  -0.105894  -0.164145  0  3.988156  0
C  C67  1  0.37733016  0.80742060  0.78704690  1  0  -0.142105  0  3.745649  0  0  -0.166571  0  4.002311  0  0  -0.169922  0  4.023056  0  0  -0.105959  -0.164264  0  3.988266  0
C  C68  1  0.58099235  0.35772413  0.09186101  1  0  -0.172976  0  3.66681  0  0  -0.199989  0  3.91112  0  0  -0.204279  0  3.931914  0  0  -0.094316  -0.197344  0  3.897435  0
C  C69  1  0.41901108  0.64227746  0.90813655  1  0  -0.172887  0  3.666709  0  0  -0.199925  0  3.911024  0  0  -0.204212  0  3.931813  0  0  -0.094268  -0.197278  0  3.897338  0
C  C70  1  0.65297661  0.12052764  0.11390267  1  0  -0.065852  0  3.823161  0  0  -0.077356  0  4.076885  0  0  -0.0777  0  4.097629  0  0  -0.101364  -0.076919  0  4.062644  0
C  C71  1  0.34702670  0.87947396  0.88609838  1  0  -0.065705  0  3.823115  0  0  -0.077176  0  4.076815  0  0  -0.077522  0  4.09756  0  0  -0.101302  -0.076743  0  4.062573  0
C  C72  1  0.61125067  0.33927408  0.87326302  1  0  -0.484176  0  3.71563  0  0  -0.50939  0  3.959611  0  0  -0.51841  0  3.966326  0  0  -0.165952  -0.50309  0  3.954908  0
C  C73  1  0.38874943  0.66072547  0.12673594  1  0  -0.484255  0  3.715662  0  0  -0.509493  0  3.959586  0  0  -0.518513  0  3.966306  0  0  -0.166001  -0.503196  0  3.95489  0
C  C74  1  0.61086430  0.28623580  0.99128710  1  0  0.145375  0  3.794508  0  0  0.167151  0  4.027279  0  0  0.16902  0  4.052302  0  0  -0.011883  0.165969  0  4.01032  0
C  C75  1  0.38913544  0.71376272  0.00870915  1  0  0.14534  0  3.794378  0  0  0.167108  0  4.027175  0  0  0.168974  0  4.052198  0  0  -0.011857  0.165932  0  4.010209  0
C  C76  1  0.64714959  0.16703016  0.00361073  1  0  -0.140385  0  3.762554  0  0  -0.16371  0  4.012363  0  0  -0.166992  0  4.03324  0  0  -0.104174  -0.161521  0  3.998081  0
C  C77  1  0.35284933  0.83296938  0.99638728  1  0  -0.140353  0  3.762534  0  0  -0.163703  0  4.012335  0  0  -0.166982  0  4.033211  0  0  -0.104185  -0.161516  0  3.998058  0
N  N78  1  0.06571635  0.17535247  0.27965406  1  0  -0.367229  0  3.268905  0  0  -0.292643  0  3.541787  0  0  -0.311029  0  3.555996  0  0  -0.315603  -0.280281  0  3.531958  0
N  N79  1  0.93428568  0.82464914  0.72034953  1  0  -0.36709  0  3.268996  0  0  -0.292599  0  3.541882  0  0  -0.310984  0  3.556089  0  0  -0.315566  -0.280225  0  3.532067  0
N  N80  1  0.88701282  0.18676613  0.46221382  1  0  -0.356771  0  3.256604  0  0  -0.290143  0  3.519829  0  0  -0.306738  0  3.535336  0  0  -0.309498  -0.278814  0  3.509338  0
N  N81  1  0.11298451  0.81323345  0.53779546  1  0  -0.356766  0  3.256426  0  0  -0.290247  0  3.519694  0  0  -0.306822  0  3.53518  0  0  -0.309601  -0.278918  0  3.509204  0
O  O82  1  0.74792813  0.59607980  0.48505698  1  0  -0.839763  0  1.936494  0  0  -0.752496  0  2.216757  0  0  -0.779191  0  2.193037  0  0  -0.379582  -0.73362  0  2.232516  0
O  O83  1  0.25207084  0.40392281  0.51494298  1  0  -0.839874  0  1.936503  0  0  -0.75258  0  2.216741  0  0  -0.779283  0  2.193025  0  0  -0.379598  -0.733709  0  2.23251  0
O  O84  1  0.78950343  0.51543380  0.73180422  1  0  -0.853223  0  1.997  0  0  -0.763137  0  2.283807  0  0  -0.790147  0  2.260003  0  0  -0.370701  -0.743815  0  2.299296  0
O  O85  1  0.21049587  0.48456677  0.26819563  1  0  -0.853198  0  1.996959  0  0  -0.763095  0  2.283763  0  0  -0.790085  0  2.259945  0  0  -0.370687  -0.743785  0  2.299263  0
O  O86  1  0.89718513  0.44449454  0.38435815  1  0  -0.894144  0  2.123192  0  0  -0.804278  0  2.434874  0  0  -0.831543  0  2.40947  0  0  -0.382043  -0.784798  0  2.45164  0
O  O87  1  0.10282291  0.55551522  0.61564374  1  0  -0.89411  0  2.123053  0  0  -0.804262  0  2.434758  0  0  -0.831528  0  2.409355  0  0  -0.382046  -0.784786  0  2.451528  0
O  O88  1  0.82398041  0.62348505  0.27610085  1  0  -0.770005  0  2.001614  0  0  -0.697944  0  2.228496  0  0  -0.719135  0  2.204359  0  0  -0.395374  -0.682742  0  2.244914  0
O  O89  1  0.17601988  0.37652061  0.72389940  1  0  -0.770071  0  2.001693  0  0  -0.698035  0  2.228589  0  0  -0.719218  0  2.204445  0  0  -0.395431  -0.682837  0  2.245015  0
O  O90  1  0.95545073  0.40065026  0.86238888  1  0  -0.856627  0  1.990855  0  0  -0.766856  0  2.226496  0  0  -0.793028  0  2.207583  0  0  -0.363289  -0.748418  0  2.239196  0
O  O91  1  0.04454986  0.59935338  0.13761213  1  0  -0.856662  0  1.990792  0  0  -0.766924  0  2.226487  0  0  -0.793079  0  2.20754  0  0  -0.363308  -0.748482  0  2.239188  0
O  O92  1  0.85188711  0.58697499  0.95136942  1  0  -0.76589  0  1.999866  0  0  -0.694395  0  2.229627  0  0  -0.715747  0  2.2053  0  0  -0.393175  -0.679155  0  2.246107  0
O  O93  1  0.14810688  0.41302455  0.04863178  1  0  -0.765897  0  1.999873  0  0  -0.694365  0  2.229583  0  0  -0.715717  0  2.205264  0  0  -0.393139  -0.679124  0  2.246064  0
