# generated using pymatgen
data_CuH9C15N2O4F3
_symmetry_space_group_name_H-M   'P 1'
_cell_length_a   8.84772499
_cell_length_b   10.38182438
_cell_length_c   16.42030072
_cell_angle_alpha   89.99968725
_cell_angle_beta   89.99952143
_cell_angle_gamma   107.52860417
_symmetry_Int_Tables_number   1
_chemical_formula_structural   CuH9C15N2O4F3
_chemical_formula_sum   'Cu4 H36 C60 N8 O16 F12'
_cell_volume   1438.26025782
_cell_formula_units_Z   4
loop_
 _symmetry_equiv_pos_site_id
 _symmetry_equiv_pos_as_xyz
  1  'x, y, z'
loop_
 _atom_site_type_symbol
 _atom_site_label
 _atom_site_symmetry_multiplicity
 _atom_site_fract_x
 _atom_site_fract_y
 _atom_site_fract_z
 _atom_site_occupancy
 _atom_site_hle17_ddec_charge
 _atom_site_hle17_ddec_spin_density
 _atom_site_hle17_ddec_sum_bond_order
 _atom_site_hle17_magmom
 _atom_site_hse06_10hf_ddec_charge
 _atom_site_hse06_10hf_ddec_spin_density
 _atom_site_hse06_10hf_ddec_sum_bond_order
 _atom_site_hse06_10hf_magmom
 _atom_site_hse06_ddec_charge
 _atom_site_hse06_ddec_spin_density
 _atom_site_hse06_ddec_sum_bond_order
 _atom_site_hse06_magmom
 _atom_site_pbe_cm5_charge
 _atom_site_pbe_ddec_charge
 _atom_site_pbe_ddec_spin_density
 _atom_site_pbe_ddec_sum_bond_order
 _atom_site_pbe_magmom
Cu  Cu0  1  0.33714651  0.10244228  0.16057346  1  0.869851  -0.701045  1.888331  -0.517  0.853931  -0.784079  2.294123  -0.632  0.941231  -0.851405  2.22288  -0.72  0.759347  0.802391  -0.733968  2.342984  -0.571
Cu  Cu1  1  0.83714080  0.10243857  0.33942471  1  0.86979  -0.701058  1.888426  -0.517  0.853883  -0.784086  2.294205  -0.632  0.941166  -0.851408  2.222989  -0.72  0.759323  0.802359  -0.733977  2.343035  -0.571
Cu  Cu2  1  0.66285906  0.89755718  0.83942858  1  0.869838  -0.701038  1.88836  -0.517  0.853983  -0.784078  2.294076  -0.632  0.941216  -0.851401  2.222929  -0.72  0.7594  0.80253  -0.733939  2.342873  -0.571
Cu  Cu3  1  0.16286174  0.89756190  0.66057368  1  0.869994  -0.701058  1.888246  -0.517  0.853976  -0.784083  2.294076  -0.632  0.941306  -0.851408  2.222799  -0.72  0.759363  0.802378  -0.733976  2.343002  -0.571
H  H4  1  0.17513801  0.32434069  0.12518920  1  0.09988  -0.001203  0.929591  -0.002  0.105461  -0.001013  0.992734  -0.002  0.108302  -0.000704  0.9898  -0.001  0.122788  0.10273  -0.001306  0.995895  -0.002
H  H5  1  0.67514237  0.32434457  0.37480894  1  0.099869  -0.001203  0.929591  -0.002  0.105427  -0.001013  0.992766  -0.002  0.108268  -0.000704  0.98983  -0.001  0.122795  0.1027  -0.001306  0.995921  -0.002
H  H6  1  0.82486869  0.67565876  0.87481467  1  0.099894  -0.001203  0.929559  -0.002  0.105457  -0.001013  0.992725  -0.002  0.108297  -0.000704  0.989792  -0.001  0.12279  0.102814  -0.001306  0.995742  -0.002
H  H7  1  0.32486166  0.67565691  0.62518823  1  0.099814  -0.001202  0.929673  -0.002  0.105459  -0.001013  0.992723  -0.002  0.108299  -0.000704  0.989788  -0.001  0.12279  0.102723  -0.001306  0.995897  -0.002
H  H8  1  0.02680392  0.37357661  0.00409788  1  0.10508  -0.000525  0.941448  -0.001  0.11377  -0.000445  1.003101  0.0  0.117545  -0.000335  1.000689  0.0  0.106954  0.110965  -0.000554  1.004951  -0.001
H  H9  1  0.52680799  0.37358487  0.49590137  1  0.105066  -0.000525  0.941483  -0.001  0.113792  -0.000445  1.003076  0.0  0.117561  -0.000335  1.000669  0.0  0.10694  0.110952  -0.000554  1.004981  -0.001
H  H10  1  0.97319641  0.62642084  0.99590842  1  0.104993  -0.000525  0.941394  -0.001  0.113669  -0.000445  1.00308  0.0  0.117446  -0.000335  1.000666  0.0  0.106902  0.110874  -0.000554  1.004914  -0.001
H  H11  1  0.47319265  0.62641661  0.50409457  1  0.105052  -0.000526  0.941466  -0.001  0.113768  -0.000445  1.003099  0.0  0.117513  -0.000335  1.000718  0.0  0.106931  0.110928  -0.000554  1.005005  -0.001
H  H12  1  0.00591568  0.23173916  0.87769179  1  0.112814  -0.000209  0.937108  0.0  0.12164  -6e-05  0.996785  0.0  0.125295  -2e-05  0.993981  0.0  0.110513  0.118768  -9.9e-05  0.999072  0.0
H  H13  1  0.50591429  0.23174148  0.62230739  1  0.112825  -0.000209  0.937107  0.0  0.121642  -6e-05  0.996778  0.0  0.125297  -2e-05  0.993975  0.0  0.110501  0.118679  -9.8e-05  0.999214  0.0
H  H14  1  0.99408235  0.76826132  0.12231268  1  0.112771  -0.000209  0.937124  0.0  0.121629  -6e-05  0.996742  0.0  0.125283  -2e-05  0.993939  0.0  0.110495  0.118661  -9.8e-05  0.999184  0.0
H  H15  1  0.49408039  0.76825597  0.37768734  1  0.112759  -0.000208  0.937109  0.0  0.121613  -6e-05  0.996733  0.0  0.125269  -2e-05  0.993929  0.0  0.110485  0.11865  -9.8e-05  0.999166  0.0
H  H16  1  0.13497889  0.04642291  0.87746649  1  0.138936  -0.000708  0.924574  -0.001  0.148125  -0.000556  0.981249  -0.001  0.152027  -0.000394  0.97964  0.0  0.120427  0.144946  -0.000698  0.982825  -0.001
H  H17  1  0.63497376  0.04642422  0.62253396  1  0.138942  -0.000708  0.924587  -0.001  0.148145  -0.000556  0.981266  -0.001  0.152048  -0.000394  0.979655  0.0  0.120443  0.144972  -0.000698  0.982831  -0.001
H  H18  1  0.86502103  0.95357656  0.12253555  1  0.139021  -0.000708  0.924663  -0.001  0.148209  -0.000556  0.981322  -0.001  0.152112  -0.000394  0.979712  0.0  0.120455  0.145039  -0.000698  0.982877  -0.001
H  H19  1  0.36502129  0.95357424  0.37746320  1  0.139016  -0.000709  0.92466  -0.001  0.148209  -0.000556  0.981308  -0.001  0.152111  -0.000394  0.9797  0.0  0.120446  0.145039  -0.000698  0.982864  -0.001
H  H20  1  0.28936104  0.91846722  0.95458989  1  0.116236  -0.004083  0.95717  -0.006  0.125364  -0.002328  1.018675  -0.003  0.128111  -0.001616  1.013882  -0.002  0.128716  0.123016  -0.002889  1.022535  -0.004
H  H21  1  0.78935900  0.91846757  0.54541050  1  0.116249  -0.004083  0.957187  -0.006  0.125387  -0.002328  1.018681  -0.003  0.128138  -0.001616  1.013885  -0.002  0.12871  0.123043  -0.002888  1.022532  -0.004
H  H22  1  0.71063293  0.08152821  0.04541336  1  0.116276  -0.004084  0.95715  -0.006  0.125383  -0.002328  1.018672  -0.003  0.128126  -0.001616  1.013879  -0.002  0.128709  0.123036  -0.002889  1.02253  -0.004
H  H23  1  0.21063605  0.08153089  0.45458728  1  0.116271  -0.004084  0.957166  -0.006  0.125359  -0.002328  1.018715  -0.003  0.128106  -0.001616  1.013919  -0.002  0.128694  0.123015  -0.002888  1.022564  -0.004
H  H24  1  0.28813114  0.74050327  0.98845804  1  0.102461  0.000708  0.996839  0.001  0.107162  0.000227  1.069533  0.0  0.110699  0.000202  1.067159  0.0  0.099628  0.104669  0.000212  1.0715  0.0
H  H25  1  0.78812491  0.74050309  0.51154176  1  0.102478  0.000709  0.996772  0.001  0.107179  0.000227  1.069465  0.0  0.110715  0.000202  1.067091  0.0  0.099628  0.104702  0.000212  1.071393  0.0
H  H26  1  0.71186503  0.25949519  0.01154339  1  0.102433  0.000708  0.996851  0.001  0.107138  0.000227  1.069533  0.0  0.110675  0.000203  1.06716  0.0  0.09961  0.104655  0.000212  1.071476  0.0
H  H27  1  0.21187126  0.25949537  0.48845602  1  0.10241  0.00071  0.996868  0.001  0.107133  0.000227  1.06952  0.0  0.110669  0.000202  1.067147  0.0  0.099605  0.104655  0.000212  1.071451  0.0
H  H28  1  0.37689124  0.54247310  0.01550401  1  0.08849  -0.000488  0.96398  -0.001  0.099451  -0.000223  1.024691  0.0  0.101026  -0.000111  1.025126  0.0  0.098216  0.098353  -0.000366  1.024318  -0.001
H  H29  1  0.87688666  0.54247244  0.48449854  1  0.088429  -0.000488  0.964064  -0.001  0.099401  -0.000223  1.02476  0.0  0.10097  -0.000111  1.025209  0.0  0.098214  0.098319  -0.000366  1.024361  -0.001
H  H30  1  0.62310535  0.45752334  0.98449803  1  0.088481  -0.000488  0.964034  -0.001  0.099457  -0.000223  1.024728  0.0  0.101038  -0.000111  1.025143  0.0  0.098218  0.098363  -0.000366  1.024348  -0.001
H  H31  1  0.12311291  0.45752602  0.51550045  1  0.088445  -0.000489  0.964011  -0.001  0.09941  -0.000223  1.024738  0.0  0.100978  -0.000111  1.025194  0.0  0.098225  0.098327  -0.000366  1.024341  -0.001
H  H32  1  0.54138631  0.53680081  0.13885948  1  0.097827  0.000449  0.953715  0.0  0.1028  2.9e-05  1.022764  0.0  0.106398  4.4e-05  1.020375  0.0  0.097073  0.100125  -2.8e-05  1.024475  0.0
H  H33  1  0.04138202  0.53679772  0.36114218  1  0.097813  0.000448  0.95372  0.0  0.102806  2.9e-05  1.022746  0.0  0.106405  4.4e-05  1.020354  0.0  0.09707  0.100134  -2.8e-05  1.02445  0.0
H  H34  1  0.45861248  0.46319866  0.86114133  1  0.097767  0.000449  0.953776  0.0  0.102879  2.9e-05  1.022649  0.0  0.106479  4.4e-05  1.020257  0.0  0.097083  0.100185  -2.8e-05  1.024405  0.0
H  H35  1  0.95862016  0.46320175  0.63885803  1  0.097841  0.00045  0.953731  0.0  0.102792  2.9e-05  1.022763  0.0  0.106391  4.4e-05  1.020372  0.0  0.097071  0.10014  -2.8e-05  1.024438  0.0
H  H36  1  0.61467700  0.73461446  0.23223181  1  0.107645  -0.000308  0.949635  -0.001  0.115507  -0.000137  1.012246  0.0  0.119461  -6.6e-05  1.009258  0.0  0.103844  0.112571  -0.000208  1.014415  0.0
H  H37  1  0.11467911  0.73461265  0.26776823  1  0.107641  -0.000308  0.949645  -0.001  0.115515  -0.000137  1.012244  0.0  0.119468  -6.6e-05  1.009259  0.0  0.103838  0.112579  -0.000208  1.014416  0.0
H  H38  1  0.38532631  0.26538500  0.76776779  1  0.107615  -0.000309  0.949702  -0.001  0.115531  -0.000137  1.012238  0.0  0.119484  -6.6e-05  1.009251  0.0  0.103859  0.112589  -0.000208  1.014419  0.0
H  H39  1  0.88532384  0.26538580  0.73223198  1  0.107678  -0.000309  0.949623  -0.001  0.11549  -0.000137  1.012289  0.0  0.119444  -6.6e-05  1.009303  0.0  0.103847  0.112658  -0.000208  1.014296  0.0
C  C40  1  0.16314469  0.26657299  0.06892970  1  0.161438  0.007461  3.651233  0.005  0.13439  0.002945  3.906138  0.002  0.144978  0.003748  3.921242  0.003  0.064373  0.126888  0.002024  3.897657  0.001
C  C41  1  0.66314493  0.26657407  0.43106930  1  0.161527  0.007465  3.651068  0.005  0.134497  0.002945  3.90599  0.002  0.145089  0.003748  3.921086  0.003  0.064396  0.127013  0.002024  3.897469  0.001
C  C42  1  0.83685826  0.73342546  0.93107478  1  0.161497  0.007457  3.651092  0.005  0.134449  0.002946  3.905983  0.002  0.145036  0.003747  3.921085  0.003  0.064391  0.126978  0.002022  3.897454  0.001
C  C43  1  0.33685725  0.73342540  0.56892786  1  0.161518  0.007435  3.650986  0.005  0.134422  0.002945  3.905971  0.002  0.145016  0.003747  3.92106  0.003  0.064388  0.126933  0.002024  3.897461  0.001
C  C44  1  0.08158651  0.29290757  0.00100538  1  -0.096233  -0.001832  3.690519  -0.003  -0.113862  -0.00191  3.949323  -0.003  -0.119272  -0.001334  3.966483  -0.002  -0.072816  -0.110279  -0.002349  3.938186  -0.004
C  C45  1  0.58158795  0.29291175  0.49899451  1  -0.096317  -0.001835  3.690446  -0.003  -0.11395  -0.00191  3.949199  -0.003  -0.119352  -0.001335  3.966359  -0.002  -0.072872  -0.110378  -0.002349  3.938084  -0.004
C  C46  1  0.91840972  0.70708786  0.99900092  1  -0.096092  -0.001826  3.690298  -0.003  -0.113691  -0.00191  3.949033  -0.003  -0.1191  -0.001334  3.966195  -0.002  -0.072732  -0.110109  -0.002349  3.937904  -0.004
C  C47  1  0.41841197  0.70708772  0.50100205  1  -0.09623  -0.0018  3.690453  -0.003  -0.113858  -0.00191  3.949222  -0.003  -0.119235  -0.001334  3.966389  -0.002  -0.072825  -0.110286  -0.002349  3.938105  -0.004
C  C48  1  0.07068827  0.21486613  0.93100860  1  0.002875  0.004777  3.676744  0.003  -0.017589  0.003274  3.930497  0.002  -0.013134  0.003121  3.945452  0.002  -0.062349  -0.021168  0.003417  3.921301  0.002
C  C49  1  0.57068647  0.21486818  0.56899095  1  0.002905  0.004782  3.676593  0.003  -0.017565  0.003274  3.930383  0.002  -0.013108  0.00312  3.945337  0.002  -0.062297  -0.021183  0.003418  3.921274  0.002
C  C50  1  0.92931463  0.78513535  0.06899526  1  0.002814  0.004772  3.676812  0.003  -0.017681  0.003273  3.930519  0.002  -0.013224  0.00312  3.945471  0.002  -0.062403  -0.021304  0.003416  3.921422  0.002
C  C51  1  0.42931381  0.78513230  0.43100560  1  0.00296  0.004746  3.67666  0.003  -0.017529  0.003274  3.930386  0.002  -0.013064  0.00312  3.945308  0.002  -0.062301  -0.021139  0.003418  3.921254  0.002
C  C52  1  0.14224731  0.11195307  0.93016393  1  -0.106061  0.00387  3.632132  0.002  -0.12393  0.00056  3.873205  0.0  -0.128482  0.000971  3.892981  0.0  -0.062219  -0.120844  0.000174  3.860639  0.0
C  C53  1  0.64224406  0.11195107  0.56983504  1  -0.10605  0.00387  3.632108  0.002  -0.123971  0.00056  3.873219  0.0  -0.128524  0.000972  3.892994  0.0  -0.06225  -0.120867  0.000175  3.860622  0.0
C  C54  1  0.85775374  0.88804639  0.06983871  1  -0.106227  0.003878  3.632415  0.002  -0.124049  0.00056  3.873454  0.0  -0.128602  0.000973  3.893232  0.0  -0.062252  -0.120935  0.000174  3.86084  0.0
C  C55  1  0.35775550  0.88804739  0.43016151  1  -0.106283  0.003909  3.6323  0.002  -0.124154  0.00056  3.873354  0.0  -0.128705  0.000972  3.893132  0.0  -0.062288  -0.121036  0.000174  3.860728  0.0
C  C56  1  0.22168399  0.09145174  0.00014062  1  0.176944  -0.003533  3.813417  -0.005  0.179806  -0.001533  4.059236  -0.002  0.182342  -0.000904  4.082889  -0.002  0.109732  0.177959  -0.002038  4.044159  -0.003
C  C57  1  0.72167648  0.09144986  0.49985688  1  0.176959  -0.003533  3.813476  -0.005  0.179844  -0.001533  4.05931  -0.002  0.182381  -0.000905  4.082963  -0.002  0.109757  0.178003  -0.002038  4.044218  -0.003
C  C58  1  0.77831634  0.90854571  0.99986202  1  0.177084  -0.003538  3.813459  -0.005  0.179863  -0.001534  4.059344  -0.002  0.182401  -0.000905  4.08299  -0.002  0.109728  0.178016  -0.002039  4.044279  -0.003
C  C59  1  0.27831969  0.90854860  0.50013967  1  0.17706  -0.003558  3.813431  -0.005  0.179935  -0.001534  4.059203  -0.002  0.182472  -0.000906  4.082855  -0.002  0.109754  0.178097  -0.002038  4.044098  -0.003
C  C60  1  0.29222311  0.98314349  0.00753160  1  0.097559  0.035454  3.612967  0.023  0.059183  0.012954  3.870149  0.008  0.076376  0.014916  3.878915  0.009  0.08066  0.047128  0.011274  3.865713  0.007
C  C61  1  0.79221950  0.98314272  0.49246860  1  0.097538  0.035462  3.613019  0.023  0.059156  0.012954  3.870183  0.008  0.076346  0.014919  3.878949  0.009  0.080687  0.047108  0.011276  3.865735  0.007
C  C62  1  0.70777496  0.01685395  0.99247165  1  0.097463  0.03547  3.612919  0.023  0.059168  0.012954  3.870131  0.008  0.076369  0.014919  3.87889  0.009  0.080666  0.047113  0.011274  3.865722  0.007
C  C63  1  0.20778078  0.01685776  0.50752979  1  0.097521  0.035516  3.612996  0.023  0.059208  0.012955  3.870149  0.008  0.076412  0.014919  3.878928  0.009  0.080765  0.047165  0.011275  3.86569  0.007
C  C64  1  0.40181251  0.85226338  0.09473217  1  0.197236  0.009377  3.773933  0.008  0.194302  0.001381  4.017769  0.002  0.201229  0.003178  4.043391  0.003  0.093128  0.190562  -5.9e-05  4.000572  0.0
C  C65  1  0.90180917  0.85226280  0.40526676  1  0.197066  0.009375  3.773977  0.008  0.194182  0.001381  4.017748  0.002  0.201107  0.003182  4.043373  0.003  0.093077  0.190445  -5.9e-05  4.00055  0.0
C  C66  1  0.59818782  0.14773407  0.90526925  1  0.197065  0.009386  3.774005  0.008  0.194158  0.00138  4.017866  0.002  0.201086  0.00318  4.043488  0.003  0.093091  0.19042  -6.1e-05  4.00068  0.0
C  C67  1  0.09818926  0.14773566  0.59473162  1  0.197212  0.009416  3.773859  0.008  0.1943  0.001382  4.017715  0.002  0.201235  0.00318  4.043344  0.003  0.093142  0.190552  -5.9e-05  4.000535  0.0
C  C68  1  0.36083584  0.74018711  0.04186132  1  -0.146459  -0.015031  3.705402  -0.015  -0.167589  -0.00558  3.956688  -0.006  -0.174775  -0.004771  3.980005  -0.006  -0.093101  -0.16471  -0.006302  3.942433  -0.007
C  C69  1  0.86083030  0.74018581  0.45813879  1  -0.146452  -0.015032  3.705299  -0.015  -0.167577  -0.005581  3.956568  -0.006  -0.17476  -0.004773  3.979883  -0.006  -0.093085  -0.164688  -0.006302  3.942283  -0.007
C  C70  1  0.63916260  0.25981135  0.95814011  1  -0.146386  -0.015038  3.705278  -0.015  -0.167504  -0.00558  3.956562  -0.006  -0.174688  -0.004773  3.97988  -0.006  -0.093065  -0.16459  -0.006302  3.942244  -0.007
C  C71  1  0.13916664  0.25981164  0.54185959  1  -0.146396  -0.015064  3.705297  -0.015  -0.16755  -0.005581  3.956632  -0.006  -0.17473  -0.004772  3.979944  -0.006  -0.093059  -0.164671  -0.006302  3.942362  -0.007
C  C72  1  0.41105691  0.62804915  0.05712117  1  -0.040905  0.010245  3.756499  0.007  -0.055976  0.00194  4.006542  0.001  -0.056254  0.002714  4.030047  0.002  -0.08721  -0.05555  0.00137  3.990776  0.001
C  C73  1  0.91105168  0.62804805  0.44288032  1  -0.040804  0.010242  3.756491  0.007  -0.05587  0.001941  4.006553  0.001  -0.056148  0.002716  4.030052  0.002  -0.087157  -0.055439  0.001371  3.990758  0.001
C  C74  1  0.58894153  0.37194931  0.94288026  1  -0.040902  0.010254  3.756457  0.007  -0.055992  0.00194  4.006532  0.001  -0.056269  0.002715  4.030041  0.002  -0.087197  -0.055525  0.00137  3.990683  0.001
C  C75  1  0.08894676  0.37195041  0.55711806  1  -0.040825  0.010287  3.756498  0.007  -0.055938  0.00194  4.00655  0.001  -0.056218  0.002715  4.030048  0.002  -0.087224  -0.055529  0.001371  3.990794  0.001
C  C76  1  0.50289035  0.62487376  0.12579693  1  -0.05791  -0.011082  3.745553  -0.011  -0.078307  -0.002936  4.009922  -0.003  -0.082687  -0.002804  4.032541  -0.003  -0.087803  -0.074024  -0.003623  3.993423  -0.003
C  C77  1  0.00288616  0.62487150  0.37420461  1  -0.057941  -0.01108  3.745539  -0.011  -0.078363  -0.002937  4.009947  -0.003  -0.082744  -0.002805  4.032566  -0.003  -0.087857  -0.074075  -0.003623  3.993438  -0.003
C  C78  1  0.49710921  0.37512469  0.87420389  1  -0.058008  -0.011089  3.74561  -0.011  -0.078406  -0.002936  4.0099  -0.003  -0.082789  -0.002805  4.032522  -0.003  -0.087836  -0.074139  -0.003624  3.993441  -0.003
C  C79  1  0.99711489  0.37512797  0.62579439  1  -0.058143  -0.011114  3.745874  -0.011  -0.078303  -0.002937  4.009874  -0.003  -0.082683  -0.002804  4.03249  -0.003  -0.087821  -0.074011  -0.003624  3.993359  -0.003
C  C80  1  0.54263121  0.73472132  0.17853198  1  -0.054285  0.007955  3.740377  0.005  -0.081559  0.001666  3.994162  0.001  -0.080628  0.002651  4.014558  0.002  -0.08308  -0.082382  0.001109  3.979845  0.001
C  C81  1  0.04263070  0.73472079  0.32146778  1  -0.054354  0.00795  3.740435  0.005  -0.081636  0.001664  3.994244  0.001  -0.080706  0.00265  4.014643  0.002  -0.083096  -0.082461  0.001109  3.979934  0.001
C  C82  1  0.45737097  0.26527814  0.82146701  1  -0.054395  0.007962  3.740363  0.005  -0.081658  0.001664  3.994125  0.001  -0.080729  0.00265  4.014522  0.002  -0.08313  -0.082496  0.001109  3.97985  0.001
C  C83  1  0.95737035  0.26527867  0.67853182  1  -0.054512  0.007994  3.740756  0.005  -0.081606  0.001665  3.994214  0.001  -0.080675  0.002651  4.014612  0.002  -0.083092  -0.082377  0.00111  3.979789  0.001
C  C84  1  0.49304090  0.84925561  0.16518805  1  -0.140911  -0.008844  3.683297  -0.009  -0.120216  -0.003315  3.910311  -0.004  -0.131183  -0.002913  3.933233  -0.004  -0.012799  -0.112059  -0.003807  3.893576  -0.004
C  C85  1  0.99304124  0.84925600  0.33481048  1  -0.140803  -0.008842  3.683243  -0.009  -0.12012  -0.003315  3.910241  -0.004  -0.131086  -0.002912  3.933164  -0.004  -0.012763  -0.111966  -0.003808  3.89351  -0.004
C  C86  1  0.50696128  0.15074386  0.83481094  1  -0.140717  -0.00885  3.683105  -0.009  -0.120032  -0.003315  3.910155  -0.004  -0.130998  -0.002913  3.933078  -0.004  -0.012726  -0.11189  -0.003808  3.893443  -0.004
C  C87  1  0.00696017  0.15074448  0.66518912  1  -0.140759  -0.00887  3.683169  -0.009  -0.120092  -0.003315  3.910177  -0.004  -0.131058  -0.002913  3.933101  -0.004  -0.012756  -0.111972  -0.003808  3.893498  -0.004
C  C88  1  0.54727598  0.96083777  0.22738513  1  0.656257  0.010466  3.869742  0.01  0.618818  0.002173  4.168041  0.003  0.659291  0.00193  4.160269  0.002  0.210756  0.591226  0.002003  4.171411  0.003
C  C89  1  0.04727532  0.96083791  0.27261139  1  0.656216  0.010462  3.870014  0.01  0.618779  0.002171  4.168307  0.003  0.659252  0.00193  4.160533  0.002  0.210735  0.59119  0.002002  4.171679  0.003
C  C90  1  0.45273632  0.03916471  0.77261142  1  0.656161  0.010464  3.869933  0.01  0.618683  0.002171  4.16829  0.003  0.659156  0.00193  4.160516  0.002  0.210742  0.591087  0.002001  4.171682  0.003
C  C91  1  0.95272835  0.03916256  0.72738821  1  0.656113  0.010466  3.869992  0.01  0.618636  0.002172  4.168362  0.003  0.659109  0.00193  4.160591  0.002  0.210701  0.591034  0.002001  4.171783  0.003
C  C92  1  0.33610634  0.28248618  0.29782459  1  0.508713  0.004563  4.005775  0.005  0.468502  0.000745  4.298774  0.002  0.501732  0.001118  4.293134  0.002  0.200282  0.445816  0.000189  4.302475  0.002
C  C93  1  0.83609734  0.28248640  0.20217478  1  0.508702  0.004563  4.006007  0.005  0.468487  0.000745  4.299019  0.002  0.501719  0.001119  4.293377  0.002  0.200247  0.445795  0.000188  4.30273  0.002
C  C94  1  0.66389995  0.71751530  0.70217318  1  0.508733  0.004563  4.005714  0.005  0.4685  0.000745  4.298779  0.002  0.501728  0.001119  4.293136  0.002  0.200247  0.445797  0.000187  4.302536  0.002
C  C95  1  0.16389950  0.71751712  0.79782787  1  0.508571  0.004562  4.006262  0.005  0.4684  0.000744  4.299153  0.002  0.501636  0.001118  4.293509  0.002  0.200216  0.445822  0.000187  4.302699  0.002
C  C96  1  0.34553179  0.43079288  0.32150537  1  0.662558  -0.007026  3.630417  -0.008  0.594113  -0.00521  3.966749  -0.006  0.620364  -0.0036  3.94092  -0.005  0.296505  0.574758  -0.006643  3.98636  -0.008
C  C97  1  0.84552249  0.43079444  0.17849710  1  0.662614  -0.007026  3.630382  -0.008  0.594177  -0.005212  3.966731  -0.006  0.620419  -0.0036  3.940887  -0.005  0.296507  0.574821  -0.006642  3.98635  -0.008
C  C98  1  0.65447188  0.56920759  0.67849362  1  0.662833  -0.007026  3.630211  -0.008  0.594328  -0.005213  3.966652  -0.006  0.620587  -0.0036  3.940801  -0.005  0.296562  0.574943  -0.006643  3.986309  -0.008
C  C99  1  0.15447245  0.56921009  0.82150493  1  0.662012  -0.007026  3.631597  -0.008  0.594189  -0.005214  3.966845  -0.006  0.620421  -0.003599  3.941011  -0.005  0.296551  0.575131  -0.006642  3.985892  -0.008
N  N100  1  0.23117659  0.16809967  0.06827930  1  -0.329839  -0.057674  3.306325  -0.074  -0.288112  -0.045289  3.598703  -0.062  -0.314193  -0.036984  3.615179  -0.055  -0.339465  -0.273708  -0.049793  3.590296  -0.065
N  N101  1  0.73117313  0.16809671  0.43171730  1  -0.329874  -0.057677  3.306329  -0.074  -0.288184  -0.04529  3.598742  -0.062  -0.314263  -0.036985  3.615214  -0.055  -0.339492  -0.273772  -0.049795  3.590316  -0.065
N  N102  1  0.76882374  0.83189777  0.93172396  1  -0.329953  -0.057667  3.306412  -0.074  -0.288211  -0.045285  3.598804  -0.062  -0.314277  -0.036981  3.615272  -0.055  -0.339462  -0.273842  -0.049789  3.590444  -0.065
N  N103  1  0.26882756  0.83190175  0.56827926  1  -0.329939  -0.057656  3.306194  -0.074  -0.288222  -0.045289  3.598621  -0.062  -0.314308  -0.036983  3.615092  -0.055  -0.339485  -0.273806  -0.049794  3.590211  -0.065
N  N104  1  0.34953496  0.96473377  0.07799611  1  -0.307052  -0.09602  3.325785  -0.124  -0.26792  -0.062544  3.626801  -0.086  -0.298108  -0.05043  3.643167  -0.075  -0.334831  -0.251706  -0.069607  3.618795  -0.091
N  N105  1  0.84952866  0.96473196  0.42200267  1  -0.306958  -0.096029  3.325836  -0.124  -0.267829  -0.062546  3.626827  -0.086  -0.298015  -0.050433  3.643198  -0.075  -0.334835  -0.251617  -0.069611  3.618815  -0.091
N  N106  1  0.65046573  0.03526468  0.92200593  1  -0.306867  -0.09603  3.325662  -0.124  -0.267833  -0.062546  3.626748  -0.086  -0.298014  -0.050432  3.643118  -0.075  -0.334799  -0.251653  -0.069612  3.618787  -0.091
N  N107  1  0.15046977  0.03526650  0.57799571  1  -0.307021  -0.096058  3.325755  -0.124  -0.267949  -0.062547  3.626796  -0.086  -0.298173  -0.050432  3.643193  -0.075  -0.334914  -0.25173  -0.069612  3.618792  -0.091
O  O108  1  0.49847925  0.06519750  0.22768825  1  -0.56737  -0.103473  2.104935  -0.141  -0.559736  -0.056084  2.408115  -0.085  -0.605475  -0.039484  2.398608  -0.065  -0.325548  -0.528686  -0.067546  2.413823  -0.096
O  O109  1  0.99847977  0.06519572  0.27231174  1  -0.567356  -0.103459  2.105033  -0.141  -0.559719  -0.056077  2.408195  -0.085  -0.605452  -0.039478  2.398689  -0.065  -0.32554  -0.528674  -0.067536  2.413902  -0.096
O  O110  1  0.50153007  0.93480297  0.77231318  1  -0.567403  -0.103476  2.104932  -0.141  -0.559776  -0.056085  2.40812  -0.085  -0.605497  -0.039484  2.398616  -0.065  -0.325609  -0.528763  -0.067549  2.413854  -0.096
O  O111  1  0.00152878  0.93480575  0.72768846  1  -0.567363  -0.10347  2.105  -0.141  -0.559732  -0.056083  2.408198  -0.085  -0.605468  -0.039482  2.398676  -0.065  -0.325564  -0.528693  -0.067542  2.413937  -0.096
O  O112  1  0.64361066  0.94493915  0.28044609  1  -0.613257  -0.022054  2.033746  -0.031  -0.588012  -0.009073  2.304126  -0.015  -0.622272  -0.003991  2.293599  -0.008  -0.320879  -0.561967  -0.014907  2.309126  -0.022
O  O113  1  0.14361220  0.94494003  0.21955127  1  -0.61325  -0.022051  2.033816  -0.031  -0.588001  -0.009072  2.304175  -0.015  -0.622264  -0.003991  2.293656  -0.008  -0.320887  -0.561946  -0.014905  2.309156  -0.022
O  O114  1  0.35640764  0.05506433  0.71954803  1  -0.613143  -0.022054  2.033841  -0.031  -0.587922  -0.009073  2.304254  -0.015  -0.622186  -0.003992  2.293723  -0.008  -0.320868  -0.56187  -0.014908  2.309265  -0.022
O  O115  1  0.85639486  0.05506044  0.78044955  1  -0.613113  -0.022053  2.033873  -0.031  -0.587901  -0.009072  2.304258  -0.015  -0.622152  -0.003991  2.293739  -0.008  -0.320851  -0.561906  -0.014904  2.30925  -0.022
O  O116  1  0.35179445  0.27118343  0.22106593  1  -0.5579  -0.060814  2.125707  -0.083  -0.539665  -0.045088  2.407477  -0.068  -0.576889  -0.033589  2.394738  -0.055  -0.324619  -0.514839  -0.052903  2.416291  -0.075
O  O117  1  0.85178698  0.27117854  0.27893280  1  -0.557849  -0.060814  2.125833  -0.083  -0.539597  -0.045089  2.40757  -0.068  -0.576821  -0.033588  2.394833  -0.055  -0.324532  -0.514769  -0.052901  2.416376  -0.075
O  O118  1  0.64821708  0.72882006  0.77893184  1  -0.557905  -0.060812  2.125753  -0.083  -0.539649  -0.045087  2.407479  -0.068  -0.576857  -0.033587  2.39474  -0.055  -0.324574  -0.514876  -0.052901  2.416335  -0.075
O  O119  1  0.14821699  0.72882598  0.72106985  1  -0.557952  -0.060809  2.126182  -0.083  -0.539534  -0.045086  2.407592  -0.068  -0.576777  -0.033587  2.394878  -0.055  -0.32452  -0.514712  -0.052898  2.416301  -0.075
O  O120  1  0.31964697  0.19991292  0.35396016  1  -0.534682  0.001767  2.0061  0.001  -0.511436  0.000761  2.237094  0.0  -0.533568  0.001527  2.231225  0.001  -0.302916  -0.495695  -8.7e-05  2.240808  -0.001
O  O121  1  0.81964095  0.19991593  0.14603835  1  -0.534724  0.001768  2.006244  0.001  -0.511466  0.000762  2.237225  0.0  -0.5336  0.001524  2.231356  0.001  -0.302934  -0.495739  -8.8e-05  2.240964  -0.001
O  O122  1  0.68035331  0.80008756  0.64603761  1  -0.53474  0.001767  2.006106  0.001  -0.511481  0.000762  2.237109  0.0  -0.533617  0.001523  2.231242  0.001  -0.302918  -0.495731  -8.8e-05  2.240811  -0.001
O  O123  1  0.18035589  0.80008759  0.85396430  1  -0.534535  0.001767  2.006202  0.001  -0.511436  0.000761  2.237241  0.0  -0.533571  0.001525  2.231371  0.001  -0.302908  -0.495758  -8.8e-05  2.240895  -0.001
F  F124  1  0.50096977  0.50897097  0.32816310  1  -0.258945  -7.3e-05  1.147728  0.0  -0.216239  -0.000126  1.3061  0.0  -0.227086  -1.6e-05  1.292446  0.0  -0.103597  -0.208017  -0.000295  1.31568  0.0
F  F125  1  0.00096021  0.50897354  0.17183824  1  -0.258893  -7.3e-05  1.14764  0.0  -0.216216  -0.000126  1.306039  0.0  -0.227046  -1.5e-05  1.292369  0.0  -0.103566  -0.207998  -0.000295  1.315624  0.0
F  F126  1  0.49903318  0.49102748  0.67183406  1  -0.259092  -7.3e-05  1.147749  0.0  -0.216299  -0.000126  1.306021  0.0  -0.227134  -1.5e-05  1.292348  0.0  -0.103607  -0.208103  -0.000295  1.315616  0.0
F  F127  1  0.99903586  0.49103099  0.82816502  1  -0.258974  -7.3e-05  1.147967  0.0  -0.216263  -0.000126  1.306067  0.0  -0.227092  -1.5e-05  1.2924  0.0  -0.10361  -0.208346  -0.000295  1.315625  0.0
F  F128  1  0.27367863  0.49171166  0.26714041  1  -0.239194  0.000236  1.195302  0.0  -0.195447  0.00013  1.355835  0.0  -0.20485  0.000143  1.341321  0.0  -0.095893  -0.188744  -2.6e-05  1.3664  0.0
F  F129  1  0.77366798  0.49170539  0.23286401  1  -0.239247  0.000236  1.195467  0.0  -0.195493  0.000133  1.356009  0.0  -0.204894  0.000144  1.341489  0.0  -0.095894  -0.188791  -2.5e-05  1.366575  0.0
F  F130  1  0.72632535  0.50829286  0.73286102  1  -0.239225  0.000236  1.195286  0.0  -0.195521  0.000133  1.355859  0.0  -0.204928  0.000144  1.341339  0.0  -0.095918  -0.188676  -2.6e-05  1.36625  0.0
F  F131  1  0.22632510  0.50829712  0.76713742  1  -0.2387  0.000236  1.195427  0.0  -0.195484  0.000132  1.355868  0.0  -0.204881  0.000143  1.341352  0.0  -0.095915  -0.188742  -2.6e-05  1.366269  0.0
F  F132  1  0.27737734  0.43748264  0.39550477  1  -0.251621  -0.00132  1.208176  -0.002  -0.216712  -0.001252  1.391857  -0.002  -0.227543  -0.000796  1.377109  -0.001  -0.093807  -0.208486  -0.001674  1.40216  -0.002
F  F133  1  0.77736687  0.43748724  0.10449799  1  -0.251671  -0.001321  1.208111  -0.002  -0.216758  -0.001253  1.391791  -0.002  -0.227592  -0.000797  1.377041  -0.001  -0.093848  -0.208547  -0.001675  1.402101  -0.002
F  F134  1  0.72263459  0.56251883  0.60449483  1  -0.251673  -0.001321  1.208152  -0.002  -0.216779  -0.001251  1.391868  -0.002  -0.227616  -0.000796  1.377115  -0.001  -0.093827  -0.208581  -0.001675  1.402187  -0.002
F  F135  1  0.22262961  0.56251526  0.89550404  1  -0.251777  -0.001321  1.208556  -0.002  -0.216748  -0.00125  1.391846  -0.002  -0.227577  -0.000796  1.377098  -0.001  -0.093832  -0.208463  -0.001675  1.401959  -0.002
