# generated using pymatgen
data_Zn3H28C44(NO3)4
_symmetry_space_group_name_H-M   'P 1'
_cell_length_a   21.22629513
_cell_length_b   21.22648886
_cell_length_c   21.22635261
_cell_angle_alpha   62.54387251
_cell_angle_beta   85.53410797
_cell_angle_gamma   117.45568416
_symmetry_Int_Tables_number   1
_chemical_formula_structural   Zn3H28C44(NO3)4
_chemical_formula_sum   'Zn6 H56 C88 N8 O24'
_cell_volume   6999.63749641
_cell_formula_units_Z   2
loop_
 _symmetry_equiv_pos_site_id
 _symmetry_equiv_pos_as_xyz
  1  'x, y, z'
loop_
 _atom_site_type_symbol
 _atom_site_label
 _atom_site_symmetry_multiplicity
 _atom_site_fract_x
 _atom_site_fract_y
 _atom_site_fract_z
 _atom_site_occupancy
 _atom_site_pbe_bader_charge
 _atom_site_pbe_bader_spin_density
 _atom_site_pbe_cm5_charge
 _atom_site_pbe_ddec_charge
 _atom_site_pbe_ddec_spin_density
 _atom_site_pbe_ddec_sum_bond_order
 _atom_site_pbe_magmom
Zn  Zn0  1  0.50001307  0.44160375  0.05838060  1  1.298456  0  0.737251  0.971487  0  2.028306  0
Zn  Zn1  1  0.04443628  0.00000136  0.95556256  1  1.283846  0  0.734502  0.963566  0  2.041584  0
Zn  Zn2  1  0.95555242  0.99999835  0.04444706  1  1.293404  0  0.734664  0.964027  0  2.041339  0
Zn  Zn3  1  0.05840837  0.55839286  0.49998661  1  1.296198  0  0.737249  0.971503  0  2.02832  0
Zn  Zn4  1  0.50001450  0.55839495  0.94159191  1  1.292166  0  0.737216  0.971455  0  2.028266  0
Zn  Zn5  1  0.94162138  0.44160801  0.49998637  1  1.294513  0  0.737226  0.971445  0  2.028296  0
H  H6  1  0.61066542  0.53073567  0.26696572  1  0.049135  0  0.097007  0.100888  0  1.036686  0
H  H7  1  0.07992680  0.87763196  0.38933407  1  0.031023  0  0.097015  0.100859  0  1.036742  0
H  H8  1  0.29094471  0.55848872  0.94374263  1  0.064412  0  0.097495  0.101206  0  0.977749  0
H  H9  1  0.96382440  0.65416970  0.45900561  1  0.427511  0  0.304183  0.24404  0  0.992477  0
H  H10  1  0.96362492  0.66925585  0.55733746  1  0.093822  0  0.099119  0.109254  0  1.030908  0
H  H11  1  0.97468336  0.76915569  0.49515844  1  0.044794  0  0.094837  0.093737  0  0.991688  0
H  H12  1  0.05625705  0.76531078  0.50223256  1  0.0252  0  0.097502  0.101217  0  0.977715  0
H  H13  1  0.54099197  0.57717104  0.11317474  1  0.434725  0  0.304194  0.244102  0  0.992426  0
H  H14  1  0.44266237  0.47903800  0.22659419  1  0.086479  0  0.099099  0.109223  0  1.030855  0
H  H15  1  0.50484209  0.53015704  0.26431404  1  0.04619  0  0.094849  0.093763  0  0.991661  0
H  H16  1  0.49776461  0.44150807  0.26754482  1  0.021217  0  0.097486  0.101186  0  0.977763  0
H  H17  1  0.88682373  0.34582814  0.69035001  1  0.456813  0  0.304217  0.244125  0  0.99253  0
H  H18  1  0.20229541  0.46926221  0.92007018  1  0.032442  0  0.096991  0.100844  0  1.036661  0
H  H19  1  0.77340585  0.33074000  0.70563511  1  0.089609  0  0.099126  0.109268  0  1.030884  0
H  H20  1  0.73568741  0.23084401  0.79447507  1  0.016526  0  0.094819  0.093708  0  0.991673  0
H  H21  1  0.73245328  0.23468703  0.70905706  1  0.045215  0  0.097521  0.101251  0  0.977655  0
H  H22  1  0.73303125  0.12236664  0.79770826  1  0.038226  0  0.09702  0.100844  0  1.036637  0
H  H23  1  0.38932589  0.12236359  0.07993887  1  0.031033  0  0.097045  0.100879  0  1.036748  0
H  H24  1  0.92005822  0.53073348  0.20230301  1  0.032355  0  0.097049  0.100858  0  1.036628  0
H  H25  1  0.79769987  0.87764247  0.73303711  1  0.037984  0  0.097012  0.10089  0  1.036701  0
H  H26  1  0.26696162  0.46926671  0.61067731  1  0.049417  0  0.097067  0.100907  0  1.036719  0
H  H27  1  0.88533448  0.99729042  0.74203543  1  0.051622  0  0.10396  0.104189  0  0.979785  0
H  H28  1  0.88804515  0.62736718  0.11466517  1  0.059315  0  0.103953  0.104182  0  0.97978  0
H  H29  1  0.26068143  0.00271513  0.11194976  1  0.052927  0  0.103921  0.104189  0  0.979672  0
H  H30  1  0.25796493  0.37263374  0.73932565  1  0.048913  0  0.103973  0.104194  0  0.979701  0
H  H31  1  0.11465694  0.37263484  0.88805513  1  0.058596  0  0.103902  0.104092  0  0.97963  0
H  H32  1  0.11194100  0.99728635  0.26069056  1  0.052911  0  0.10389  0.104064  0  0.97971  0
H  H33  1  0.73930622  0.62735900  0.25798258  1  0.048043  0  0.103924  0.104084  0  0.97969  0
H  H34  1  0.74202138  0.00271359  0.88534726  1  0.051511  0  0.103892  0.104077  0  0.979761  0
H  H35  1  0.90167948  0.96650972  0.86484310  1  0.073032  0  0.095444  0.105043  0  1.049424  0
H  H36  1  0.93517113  0.76651879  0.09831825  1  0.074856  0  0.095477  0.105084  0  1.049418  0
H  H37  1  0.16865252  0.03349151  0.06482765  1  0.07357  0  0.095482  0.105084  0  1.049395  0
H  H38  1  0.13516029  0.23348127  0.83134974  1  0.081924  0  0.09547  0.105083  0  1.049389  0
H  H39  1  0.09830818  0.23348213  0.93518423  1  0.075085  0  0.095549  0.105244  0  1.049377  0
H  H40  1  0.06481591  0.96650502  0.16866474  1  0.073766  0  0.095554  0.105246  0  1.049421  0
H  H41  1  0.83133279  0.76651345  0.13517660  1  0.082531  0  0.09553  0.105245  0  1.049333  0
H  H42  1  0.86482798  0.03349171  0.90169109  1  0.073264  0  0.095537  0.105236  0  1.049334  0
H  H43  1  0.69034948  0.65418092  0.88682237  1  0.456957  0  0.304277  0.244162  0  0.992482  0
H  H44  1  0.70563261  0.66926865  0.77340630  1  0.089862  0  0.099088  0.109291  0  1.030883  0
H  H45  1  0.79447751  0.76917379  0.73568413  1  0.016662  0  0.09486  0.093763  0  0.991628  0
H  H46  1  0.70905194  0.76532092  0.73245700  1  0.044702  0  0.097448  0.101205  0  0.977803  0
H  H47  1  0.03616732  0.57716467  0.30965895  1  0.449308  0  0.304266  0.244124  0  0.9924  0
H  H48  1  0.03636493  0.47903724  0.29436877  1  0.079057  0  0.099114  0.109291  0  1.030876  0
H  H49  1  0.02530763  0.53016348  0.20552197  1  0.056396  0  0.094889  0.093775  0  0.991617  0
H  H50  1  0.94373483  0.44151264  0.29094640  1  0.064438  0  0.097437  0.101186  0  0.97778  0
H  H51  1  0.45900086  0.34582434  0.96383147  1  0.427607  0  0.304271  0.24409  0  0.992501  0
H  H52  1  0.55732812  0.33073455  0.96363416  1  0.094114  0  0.099133  0.109326  0  1.030987  0
H  H53  1  0.49514725  0.23083067  0.97468905  1  0.045123  0  0.094882  0.09375  0  0.991553  0
H  H54  1  0.50222459  0.23468259  0.05626312  1  0.025245  0  0.097482  0.101221  0  0.977792  0
H  H55  1  0.11317576  0.42283060  0.54099933  1  0.434772  0  0.304254  0.244137  0  0.992379  0
H  H56  1  0.22659277  0.52095958  0.44267279  1  0.086788  0  0.099114  0.109293  0  1.030978  0
H  H57  1  0.26431346  0.46983803  0.50485622  1  0.04654  0  0.094889  0.093756  0  0.99167  0
H  H58  1  0.26754162  0.55848910  0.49777542  1  0.023407  0  0.097449  0.101162  0  0.977773  0
H  H59  1  0.30965657  0.42283125  0.03617488  1  0.449279  0  0.304177  0.244024  0  0.992372  0
H  H60  1  0.29436713  0.52096007  0.03637441  1  0.082612  0  0.099088  0.109225  0  1.030876  0
H  H61  1  0.20552564  0.46983738  0.02531668  1  0.056433  0  0.094852  0.093738  0  0.991717  0
C  C62  1  0.61842490  0.61842621  0.99999363  1  1.479793  0  0.20701  0.576356  0  4.183447  0
C  C63  1  0.97330285  0.73580469  0.19429882  1  0.028181  0  -0.00672  0.072934  0  4.011024  0
C  C64  1  0.14687753  0.39544644  0.63304345  1  0.470681  0  0.102424  0.199956  0  4.031317  0
C  C65  1  0.24856966  0.39545089  0.97151258  1  0.433357  0  0.102417  0.199832  0  4.031318  0
C  C66  1  0.02848852  0.77991890  0.36696315  1  0.466717  0  0.102404  0.200318  0  4.030682  0
C  C67  1  0.63303250  0.60454502  0.14688484  1  0.470764  0  0.102424  0.199808  0  4.031272  0
C  C68  1  0.85311799  0.22008192  0.75143326  1  0.418729  0  0.102406  0.199867  0  4.031289  0
C  C69  1  0.75142618  0.77992331  0.85312675  1  0.417774  0  0.102338  0.200029  0  4.031474  0
C  C70  1  0.97150736  0.60455292  0.24857426  1  0.433064  0  0.102386  0.199909  0  4.031312  0
C  C71  1  0.36695657  0.22008192  0.02849067  1  0.468157  0  0.102447  0.200477  0  4.030534  0
C  C72  1  0.23749674  0.16760195  0.02669803  1  0.054618  0  -0.006734  0.072823  0  4.011155  0
C  C73  1  0.79799079  0.86465234  0.78889574  1  -0.006692  0  -0.12343  -0.232345  0  4.028533  0
C  C74  1  0.93334117  0.58688595  0.20200963  1  -0.036589  0  -0.123485  -0.232189  0  4.028145  0
C  C75  1  0.34645740  0.13535262  0.06665760  1  -0.060085  0  -0.123527  -0.232481  0  4.028255  0
C  C76  1  0.21110511  0.41311024  0.65354255  1  -0.061499  0  -0.123519  -0.232316  0  4.028576  0
C  C77  1  0.20200797  0.41311637  0.93334995  1  -0.039881  0  -0.123455  -0.232205  0  4.028258  0
C  C78  1  0.06664460  0.86464101  0.34646830  1  -0.059283  0  -0.123483  -0.232396  0  4.028402  0
C  C79  1  0.65352979  0.58688200  0.21111190  1  -0.061142  0  -0.12349  -0.232198  0  4.02834  0
C  C80  1  0.06989432  0.26419413  0.76250034  1  0.016807  0  -0.006748  0.07288  0  4.011122  0
C  C81  1  0.78888874  0.13535813  0.79799734  1  -0.007315  0  -0.123487  -0.23214  0  4.02832  0
C  C82  1  0.84911627  0.93247835  0.79371776  1  -0.065375  0  -0.09633  -0.055008  0  4.106005  0
C  C83  1  0.19429189  0.26419453  0.97331304  1  0.024377  0  -0.006721  0.072857  0  4.011441  0
C  C84  1  0.91664101  0.64283325  0.15088168  1  -0.05142  0  -0.096275  -0.054941  0  4.106062  0
C  C85  1  0.27381113  0.06752691  0.08335692  1  -0.053828  0  -0.09625  -0.054973  0  4.105943  0
C  C86  1  0.20628124  0.35716804  0.72619636  1  -0.08181  0  -0.096317  -0.054922  0  4.105928  0
C  C87  1  0.15086888  0.35716221  0.91665975  1  -0.047619  0  -0.096223  -0.054795  0  4.105699  0
C  C88  1  0.08334282  0.93247070  0.27381938  1  -0.052731  0  -0.096187  -0.054745  0  4.105905  0
C  C89  1  0.72617725  0.64283161  0.20629603  1  -0.079338  0  -0.096253  -0.05486  0  4.105774  0
C  C90  1  0.79370626  0.06752889  0.84913110  1  -0.066082  0  -0.096239  -0.054882  0  4.106043  0
C  C91  1  0.02668836  0.83239578  0.23750419  1  0.049449  0  -0.006733  0.07292  0  4.011242  0
C  C92  1  0.85675110  0.91602563  0.86219112  1  0.007132  0  -0.118196  -0.181028  0  4.027805  0
C  C93  1  0.94073158  0.71894227  0.14324392  1  -0.005712  0  -0.118292  -0.181211  0  4.028244  0
C  C94  1  0.22178999  0.08397814  0.05926626  1  -0.043969  0  -0.118211  -0.181038  0  4.02809  0
C  C95  1  0.13781098  0.28105953  0.77821364  1  0.018789  0  -0.118225  -0.181108  0  4.027897  0
C  C96  1  0.14323458  0.28105987  0.94074368  1  -0.005566  0  -0.118348  -0.181419  0  4.028431  0
C  C97  1  0.76249205  0.73580457  0.06990342  1  0.016898  0  -0.006736  0.07288  0  4.011316  0
C  C98  1  0.05925611  0.91602054  0.22180118  1  -0.039246  0  -0.118359  -0.181447  0  4.028438  0
C  C99  1  0.77819485  0.71893471  0.13782830  1  0.016543  0  -0.118326  -0.181378  0  4.028176  0
C  C100  1  0.86217421  0.08397602  0.85676390  1  0.007852  0  -0.118302  -0.181357  0  4.028315  0
C  C101  1  0.93009787  0.16760265  0.80570334  1  0.011396  0  -0.006745  0.07289  0  4.011252  0
C  C102  1  0.73233236  0.73087129  0.76713659  1  0.293211  0  -0.137177  -0.205671  0  3.99404  0
C  C103  1  0.00146416  0.49946987  0.26766692  1  0.244287  0  -0.137188  -0.205589  0  3.993929  0
C  C104  1  0.50199800  0.26913343  0.99853476  1  0.282354  0  -0.137242  -0.205624  0  3.994073  0
C  C105  1  0.23286124  0.50053055  0.49800493  1  0.285841  0  -0.137208  -0.205545  0  3.994134  0
C  C106  1  0.26766671  0.50052944  0.00147121  1  0.240813  0  -0.137191  -0.205516  0  3.993984  0
C  C107  1  0.99852729  0.73085945  0.50200436  1  0.282881  0  -0.137183  -0.205479  0  3.993845  0
C  C108  1  0.49799652  0.49946755  0.23286285  1  0.288527  0  -0.13718  -0.205484  0  3.993902  0
C  C109  1  0.76713648  0.26913804  0.73233433  1  0.293278  0  -0.137225  -0.205515  0  3.993875  0
C  C110  1  0.80569795  0.83239903  0.93010706  1  0.011227  0  -0.006714  0.072953  0  4.010998  0
C  C111  1  0.00000950  0.61842854  0.38157532  1  1.491194  0  0.20707  0.576396  0  4.183649  0
C  C112  1  0.74486764  0.76356543  0.92889712  1  0.029712  0  -0.005162  -0.029349  0  3.882199  0
C  C113  1  0.98130916  0.67376611  0.25512881  1  0.020466  0  -0.005048  -0.02916  0  3.882136  0
C  C114  1  0.30753875  0.23643701  0.01869133  1  -0.003683  0  -0.005084  -0.029255  0  3.88204  0
C  C115  1  0.07110219  0.32623269  0.69245800  1  -0.005515  0  -0.005098  -0.029166  0  3.882212  0
C  C116  1  0.25512685  0.32623155  0.98131615  1  0.02511  0  -0.00506  -0.028977  0  3.882282  0
C  C117  1  0.38158227  0.38157824  0.99999211  1  1.490522  0  0.207059  0.576385  0  4.18381  0
C  C118  1  0.01868372  0.76355706  0.30754583  1  -0.003613  0  -0.005037  -0.029162  0  3.882103  0
C  C119  1  0.69244938  0.67376826  0.07110610  1  -0.005821  0  -0.005048  -0.028958  0  3.881991  0
C  C120  1  0.92889432  0.23643994  0.74487276  1  0.029427  0  -0.005012  -0.028976  0  3.882276  0
C  C121  1  0.99999799  0.38157204  0.61841883  1  1.478974  0  0.207084  0.576368  0  4.183671  0
C  C122  1  0.81455894  0.81456691  0.00001247  1  -0.048666  0  -0.002244  -0.09848  0  3.885371  0
C  C123  1  0.99999629  0.81457529  0.18543119  1  -0.034612  0  -0.002292  -0.098476  0  3.885349  0
C  C124  1  0.18541820  0.18542913  0.00001087  1  -0.034755  0  -0.002314  -0.098495  0  3.885398  0
C  C125  1  0.99999287  0.18542733  0.81457377  1  -0.048717  0  -0.00225  -0.098426  0  3.885211  0
C  C126  1  0.68668704  0.68669122  0.00000857  1  -0.032071  0  -0.01939  -0.11583  0  3.886877  0
C  C127  1  0.00000120  0.68669845  0.31330871  1  -0.03859  0  -0.019492  -0.115955  0  3.887164  0
C  C128  1  0.31330276  0.31330841  0.99999909  1  -0.039498  0  -0.019429  -0.115952  0  3.88731  0
C  C129  1  0.99999425  0.31330223  0.68669567  1  -0.032479  0  -0.019476  -0.115962  0  3.887155  0
C  C130  1  0.99999659  0.88276403  0.11723717  1  1.556386  0  0.228964  0.615551  0  4.156499  0
C  C131  1  0.11722728  0.11723634  0.00000850  1  1.556766  0  0.229036  0.615587  0  4.156317  0
C  C132  1  0.99999743  0.11723369  0.88276486  1  1.545976  0  0.228985  0.615422  0  4.156357  0
C  C133  1  0.88275373  0.88276692  0.00000563  1  1.54624  0  0.229043  0.615727  0  4.156256  0
C  C134  1  0.58997431  0.50000011  0.91002989  1  1.638423  0  0.214862  0.616864  0  4.283593  0
C  C135  1  0.08997625  0.50000204  0.41002404  1  1.630968  0  0.21481  0.616583  0  4.283679  0
C  C136  1  0.41006866  0.50000184  0.08993221  1  1.627501  0  0.215315  0.616432  0  4.284222  0
C  C137  1  0.91006760  0.50000075  0.58993401  1  1.634245  0  0.21542  0.616626  0  4.283723  0
C  C138  1  0.63955063  0.50000079  0.86045465  1  0.121976  0  -0.00874  -0.14062  0  3.864362  0
C  C139  1  0.13955920  0.50000418  0.36044755  1  0.124325  0  -0.008839  -0.140608  0  3.865267  0
C  C140  1  0.36050586  0.50000602  0.13950045  1  0.122642  0  -0.008974  -0.140216  0  3.865878  0
C  C141  1  0.86049369  0.49999559  0.63950697  1  0.120978  0  -0.009182  -0.14036  0  3.867048  0
C  C142  1  0.68227317  0.49999645  0.81772727  1  -0.253306  0  -0.005598  0.028477  0  4.251354  0
C  C143  1  0.18227588  0.49999806  0.31772720  1  -0.254937  0  -0.005489  0.028468  0  4.251965  0
C  C144  1  0.31777390  0.50000493  0.18222570  1  -0.255384  0  -0.005892  0.027298  0  4.251967  0
C  C145  1  0.81777196  0.50000068  0.68222718  1  -0.252299  0  -0.005844  0.02712  0  4.253172  0
C  C146  1  0.72854448  0.50000104  0.77145615  1  -0.10018  0  -0.001989  -0.007163  0  4.199833  0
C  C147  1  0.22854734  0.49999764  0.27145550  1  -0.102626  0  -0.00182  -0.006734  0  4.199052  0
C  C148  1  0.27150572  0.50000458  0.22849349  1  0.086662  0  -0.000649  -0.004677  0  4.198624  0
C  C149  1  0.77149611  0.49999444  0.72850261  1  0.085006  0  -0.000392  -0.004105  0  4.198456  0
N  N150  1  0.71582189  0.71538414  0.84211274  1  -1.235412  0  -0.448834  -0.272752  0  3.638941  0
N  N151  1  0.00044203  0.55793575  0.28417791  1  -1.224218  0  -0.44886  -0.272808  0  3.638893  0
N  N152  1  0.44250926  0.28461964  0.99955515  1  -1.201146  0  -0.448892  -0.272927  0  3.638858  0
N  N153  1  0.15788706  0.44206666  0.55749179  1  -1.215559  0  -0.448886  -0.272881  0  3.638931  0
N  N154  1  0.28417687  0.44206490  0.00044848  1  -1.224414  0  -0.448772  -0.272602  0  3.638845  0
N  N155  1  0.99954936  0.71537681  0.44251165  1  -1.200658  0  -0.448802  -0.272847  0  3.638693  0
N  N156  1  0.55748297  0.55793500  0.15788875  1  -1.21537  0  -0.448762  -0.272707  0  3.639129  0
N  N157  1  0.84210988  0.28462472  0.71582723  1  -1.235679  0  -0.448827  -0.27283  0  3.639078  0
O  O158  1  0.60170546  0.54147132  0.03847836  1  -1.141231  0  -0.316069  -0.555468  0  2.290778  0
O  O159  1  0.06024718  0.64019490  0.39829333  1  -1.143546  0  -0.316018  -0.555436  0  2.291099  0
O  O160  1  0.42005415  0.45853399  0.93975642  1  -1.148381  0  -0.316084  -0.555463  0  2.290953  0
O  O161  1  0.96151493  0.35980496  0.57994721  1  -1.139426  0  -0.316043  -0.555445  0  2.291031  0
O  O162  1  0.39830992  0.35982252  0.06022552  1  -1.143085  0  -0.316152  -0.555515  0  2.291012  0
O  O163  1  0.93977782  0.54146804  0.42005101  1  -1.148791  0  -0.316149  -0.555458  0  2.290856  0
O  O164  1  0.57995080  0.64018592  0.96150788  1  -1.139714  0  -0.316051  -0.555442  0  2.290916  0
O  O165  1  0.03848185  0.45853198  0.60168922  1  -1.140647  0  -0.316178  -0.555482  0  2.290884  0
O  O166  1  0.56171941  0.44030335  0.98122015  1  -1.126811  0  -0.295843  -0.52465  0  2.291102  0
O  O167  1  0.12141880  0.54294197  0.43827664  1  -1.118103  0  -0.295827  -0.524563  0  2.291091  0
O  O168  1  0.57848478  0.55969950  0.87858634  1  -1.119327  0  -0.295807  -0.524659  0  2.29122  0
O  O169  1  0.01878392  0.45706514  0.42152093  1  -1.120304  0  -0.295762  -0.524541  0  2.291175  0
O  O170  1  0.43833181  0.45707436  0.12138724  1  -1.116674  0  -0.296161  -0.524736  0  2.291665  0
O  O171  1  0.87861248  0.44027969  0.57846504  1  -1.117641  0  -0.296171  -0.52476  0  2.291465  0
O  O172  1  0.42153879  0.54292250  0.01873993  1  -1.120992  0  -0.296203  -0.524777  0  2.29176  0
O  O173  1  0.98125954  0.55972141  0.56166617  1  -1.127045  0  -0.296179  -0.524806  0  2.291605  0
O  O174  1  0.94832893  0.89558244  0.12878631  1  -1.141281  0  -0.305603  -0.539962  0  2.266703  0
O  O175  1  0.05273932  0.07711256  0.05167886  1  -1.14733  0  -0.305618  -0.539958  0  2.266363  0
O  O176  1  0.97563359  0.10441508  0.94725084  1  -1.139562  0  -0.305644  -0.539899  0  2.266466  0
O  O177  1  0.87120512  0.92288319  0.02437638  1  -1.139315  0  -0.305684  -0.540079  0  2.266476  0
O  O178  1  0.05166828  0.92288437  0.05275250  1  -1.147145  0  -0.305675  -0.540001  0  2.266166  0
O  O179  1  0.94723791  0.89557933  0.97564264  1  -1.139759  0  -0.305673  -0.540068  0  2.266236  0
O  O180  1  0.02436670  0.07711796  0.87121231  1  -1.13907  0  -0.305651  -0.539936  0  2.266285  0
O  O181  1  0.12877936  0.10442085  0.94834053  1  -1.141307  0  -0.305714  -0.540057  0  2.266297  0
