# generated using pymatgen
data_AlH8C13NO9
_symmetry_space_group_name_H-M   'P 1'
_cell_length_a   6.65648842
_cell_length_b   10.94223430
_cell_length_c   16.98953435
_cell_angle_alpha   85.04252769
_cell_angle_beta   81.92250796
_cell_angle_gamma   74.05541790
_symmetry_Int_Tables_number   1
_chemical_formula_structural   AlH8C13NO9
_chemical_formula_sum   'Al2 H16 C26 N2 O18'
_cell_volume   1176.56474363
_cell_formula_units_Z   2
loop_
 _symmetry_equiv_pos_site_id
 _symmetry_equiv_pos_as_xyz
  1  'x, y, z'
loop_
 _atom_site_type_symbol
 _atom_site_label
 _atom_site_symmetry_multiplicity
 _atom_site_fract_x
 _atom_site_fract_y
 _atom_site_fract_z
 _atom_site_occupancy
 _atom_site_pbe_bader_charge
 _atom_site_pbe_bader_spin_density
 _atom_site_pbe_cm5_charge
 _atom_site_pbe_ddec_charge
 _atom_site_pbe_ddec_spin_density
 _atom_site_pbe_ddec_sum_bond_order
 _atom_site_pbe_magmom
Al  Al0  1  0.50689702  0.50587927  0.48042504  1  2.505098  0  0.396601  1.649275  0  2.568662  0
Al  Al1  1  0.00404839  0.50651805  0.48512890  1  2.505048  0  0.406872  1.648  0  2.554423  0
H  H2  1  0.23353258  0.59827401  0.39156997  1  0.638091  0  0.355284  0.432422  0  0.850617  0
H  H3  1  0.77472785  0.37471453  0.55359014  1  0.637759  0  0.34645  0.428352  0  0.871652  0
H  H4  1  0.88348978  0.47542339  0.72590699  1  0.130993  0  0.106512  0.116126  0  1.033997  0
H  H5  1  0.83690711  0.46627364  0.87451236  1  0.105081  0  0.103015  0.10705  0  1.03912  0
H  H6  1  0.44941095  0.52935808  0.87133347  1  0.097413  0  0.116279  0.140646  0  0.991484  0
H  H7  1  0.62764743  0.45414793  0.08824659  1  0.093883  0  0.116221  0.136839  0  0.993942  0
H  H8  1  0.23434257  0.51880016  0.09699790  1  0.100515  0  0.104965  0.10996  0  1.03355  0
H  H9  1  0.15947219  0.52466113  0.24444934  1  0.101411  0  0.103737  0.106225  0  1.037743  0
H  H10  1  0.52178183  0.54623969  0.65925629  1  0.644566  0  0.317137  0.357708  0  0.956519  0
H  H11  1  0.52112066  0.45174029  0.29942228  1  0.634679  0  0.315765  0.353023  0  0.967828  0
H  H12  1  0.08237778  0.21231781  0.45912267  1  0.633457  0  0.317257  0.359016  0  0.958282  0
H  H13  1  0.31564926  0.78381837  0.45958156  1  0.656453  0  0.317127  0.355779  0  0.970051  0
H  H14  1  0.61648752  0.28610900  0.68194486  1  0.626877  0  0.326855  0.359253  0  0.905918  0
H  H15  1  0.93124055  0.08815301  0.76260642  1  0.643934  0  0.346784  0.389492  0  0.852146  0
H  H16  1  0.00205813  0.79186167  0.72763406  1  0.657577  0  0.326211  0.370709  0  0.895314  0
H  H17  1  0.86348081  0.70318527  0.59492514  1  0.64897  0  0.311281  0.348623  0  0.999493  0
C  C18  1  0.64373076  0.73729379  0.50070862  1  1.449372  0  0.25765  0.637674  0  4.0353  0
C  C19  1  0.81236909  0.49912494  0.33778614  1  1.495389  0  0.267131  0.659135  0  4.060762  0
C  C20  1  0.35396062  0.27567690  0.49655818  1  1.510421  0  0.264995  0.662647  0  4.04957  0
C  C21  1  0.21168585  0.51297849  0.62700845  1  1.506033  0  0.262161  0.647787  0  4.089908  0
C  C22  1  0.19120600  0.50735030  0.71431043  1  0.040594  0  -0.036117  -0.207649  0  3.998148  0
C  C23  1  0.00690087  0.48592273  0.75828308  1  -0.031297  0  -0.077085  -0.036403  0  3.98401  0
C  C24  1  0.97961538  0.48136742  0.84029582  1  -0.017087  0  -0.097724  -0.178043  0  3.97231  0
C  C25  1  0.14064410  0.49782129  0.88093845  1  0.29527  0  0.092037  0.197442  0  4.057936  0
C  C26  1  0.32658213  0.51689746  0.83904585  1  0.043112  0  -0.090723  -0.262225  0  3.888969  0
C  C27  1  0.35368315  0.52209995  0.75560249  1  0.468439  0  0.093764  0.314809  0  4.060175  0
C  C28  1  0.74306703  0.46962235  0.12317464  1  0.076166  0  -0.087602  -0.258227  0  3.880695  0
C  C29  1  0.93317101  0.48740140  0.08454938  1  0.345291  0  0.096942  0.203911  0  4.050903  0
C  C30  1  0.08642785  0.50660618  0.12826447  1  0.029604  0  -0.095545  -0.175174  0  3.963446  0
C  C31  1  0.04323851  0.51006500  0.20994596  1  -0.005418  0  -0.07802  -0.039615  0  3.997452  0
C  C32  1  0.85241147  0.49292145  0.25081459  1  -0.055145  0  -0.033409  -0.203314  0  3.974314  0
C  C33  1  0.70177698  0.47022789  0.20627577  1  0.520121  0  0.099685  0.330598  0  4.043368  0
C  C34  1  0.54804325  0.86842145  0.52395041  1  0.066981  0  -0.034302  -0.221257  0  3.942366  0
C  C35  1  0.64024481  0.93821617  0.57193873  1  0.083768  0  -0.023777  -0.036917  0  4.00567  0
C  C36  1  0.35795066  0.93211002  0.49354532  1  0.536075  0  0.105244  0.240688  0  4.003012  0
C  C37  1  0.77919906  0.87582276  0.62755255  1  0.540584  0  0.05069  0.132502  0  4.116709  0
C  C38  1  0.85503511  0.94397701  0.67677614  1  0.530881  0  0.05069  0.100818  0  4.176478  0
C  C39  1  0.40237257  0.13949468  0.52162887  1  0.028563  0  -0.028019  -0.20245  0  3.932087  0
C  C40  1  0.28466116  0.06852064  0.49276779  1  0.61445  0  0.096137  0.217482  0  4.029165  0
C  C41  1  0.56853833  0.07609852  0.56978851  1  0.022291  0  -0.022227  -0.031647  0  3.99106  0
C  C42  1  0.64480508  0.14123062  0.62273507  1  0.489763  0  0.056762  0.141698  0  4.062138  0
C  C43  1  0.78916935  0.07596834  0.67386874  1  0.484399  0  0.045019  0.078929  0  4.1709  0
N  N44  1  0.12733757  0.49788437  0.96496617  1  -0.429978  0  -0.142105  -0.126363  0  3.238643  0
N  N45  1  0.95346561  0.48515746  0.00073211  1  -0.521648  0  -0.142137  -0.126593  0  3.267101  0
O  O46  1  0.52737952  0.67866128  0.47179912  1  -1.264466  0  -0.245988  -0.612341  0  2.412139  0
O  O47  1  0.95116523  0.51887701  0.37600224  1  -1.273291  0  -0.234872  -0.59509  0  2.338826  0
O  O48  1  0.16407779  0.33036635  0.47895308  1  -1.259249  0  -0.249303  -0.628791  0  2.370703  0
O  O49  1  0.38015431  0.53634004  0.58854010  1  -1.263049  0  -0.239031  -0.608771  0  2.408248  0
O  O50  1  0.49689772  0.33364437  0.48850382  1  -1.269293  0  -0.231341  -0.581637  0  2.393756  0
O  O51  1  0.06514588  0.49499720  0.59249562  1  -1.271127  0  -0.233801  -0.585167  0  2.366107  0
O  O52  1  0.84037540  0.68216262  0.50464934  1  -1.256931  0  -0.237829  -0.58052  0  2.365686  0
O  O53  1  0.63240597  0.48491346  0.37200299  1  -1.262897  0  -0.23788  -0.611664  0  2.379465  0
O  O54  1  0.23995725  0.56583872  0.44638365  1  -1.443958  0  -0.446367  -0.986454  0  2.169585  0
O  O55  1  0.76572175  0.45125563  0.51893869  1  -1.443343  0  -0.453025  -1.004365  0  2.220363  0
O  O56  1  0.53627276  0.54023251  0.71744261  1  -1.153864  0  -0.338441  -0.426292  0  2.310596  0
O  O57  1  0.51844483  0.44885158  0.24085684  1  -1.146014  0  -0.341672  -0.431314  0  2.295169  0
O  O58  1  0.11235472  0.11780854  0.45613076  1  -1.11384  0  -0.334932  -0.398329  0  2.295031  0
O  O59  1  0.24172092  0.87721526  0.45770765  1  -1.136479  0  -0.327826  -0.388695  0  2.301037  0
O  O60  1  0.57014095  0.27076696  0.63222475  1  -1.128196  0  -0.344013  -0.43758  0  2.386402  0
O  O61  1  0.84903382  0.14675013  0.72497505  1  -1.148597  0  -0.356387  -0.441973  0  2.275043  0
O  O62  1  0.98404038  0.88331155  0.73215591  1  -1.162825  0  -0.361011  -0.437461  0  2.262602  0
O  O63  1  0.83836321  0.74753039  0.64548209  1  -1.181382  0  -0.370748  -0.472296  0  2.387345  0
