# generated using pymatgen
data_CdH10C5(NO3)2
_symmetry_space_group_name_H-M   'P 1'
_cell_length_a   8.67995877
_cell_length_b   8.85221737
_cell_length_c   13.46996286
_cell_angle_alpha   72.40033145
_cell_angle_beta   86.20522190
_cell_angle_gamma   89.49931788
_symmetry_Int_Tables_number   1
_chemical_formula_structural   CdH10C5(NO3)2
_chemical_formula_sum   'Cd4 H40 C20 N8 O24'
_cell_volume   984.31242582
_cell_formula_units_Z   4
loop_
 _symmetry_equiv_pos_site_id
 _symmetry_equiv_pos_as_xyz
  1  'x, y, z'
loop_
 _atom_site_type_symbol
 _atom_site_label
 _atom_site_symmetry_multiplicity
 _atom_site_fract_x
 _atom_site_fract_y
 _atom_site_fract_z
 _atom_site_occupancy
 _atom_site_pbe_bader_spin_density
 _atom_site_pbe_cm5_charge
 _atom_site_pbe_ddec_charge
 _atom_site_pbe_ddec_spin_density
 _atom_site_pbe_ddec_sum_bond_order
 _atom_site_pbe_magmom
Cd  Cd0  1  0.07461877  0.72941679  0.66985999  1  0  0.772603  0.951916  0  2.117186  0
Cd  Cd1  1  0.92538663  0.27058310  0.33013967  1  0  0.772596  0.95189  0  2.117201  0
Cd  Cd2  1  0.61082525  0.76511940  0.32682052  1  0  0.77153  0.949615  0  2.113002  0
Cd  Cd3  1  0.38917439  0.23488166  0.67317989  1  0  0.771509  0.949595  0  2.113059  0
H  H4  1  0.35106969  0.68911554  0.51887436  1  0  0.109782  0.021376  0  1.004761  0
H  H5  1  0.64893002  0.31089264  0.48112465  1  0  0.109766  0.02141  0  1.004717  0
H  H6  1  0.50685905  0.85377636  0.73737112  1  0  0.108287  0.022356  0  0.998359  0
H  H7  1  0.49314065  0.14623180  0.26263087  1  0  0.108336  0.022389  0  0.998421  0
H  H8  1  0.85298606  0.80520908  0.47664369  1  0  0.108702  0.019411  0  1.007074  0
H  H9  1  0.14701699  0.19478725  0.52335824  1  0  0.108739  0.019444  0  1.007084  0
H  H10  1  0.94795888  0.35243106  0.74783748  1  0  0.110504  0.024829  0  0.994851  0
H  H11  1  0.05204190  0.64756998  0.25216585  1  0  0.110492  0.024814  0  0.99488  0
H  H12  1  0.68601244  0.52794039  0.93832433  1  0  0.098985  0.057648  0  1.035566  0
H  H13  1  0.31398830  0.47205592  0.06167844  1  0  0.098994  0.057641  0  1.03558  0
H  H14  1  0.54519439  0.63042597  0.99584672  1  0  0.104884  0.068205  0  0.995409  0
H  H15  1  0.45480757  0.36957629  0.00415261  1  0  0.104882  0.068205  0  0.99538  0
H  H16  1  0.73343073  0.50031860  0.12565289  1  0  0.091785  0.141002  0  1.028323  0
H  H17  1  0.26656659  0.49968245  0.87434909  1  0  0.091771  0.140996  0  1.028328  0
H  H18  1  0.75317894  0.70959645  0.09315857  1  0  0.086628  0.126172  0  1.030684  0
H  H19  1  0.24681950  0.29040106  0.90684258  1  0  0.086611  0.126181  0  1.030641  0
H  H20  1  0.89041927  0.59757376  0.03973152  1  0  0.093028  0.13875  0  1.007717  0
H  H21  1  0.10957919  0.40242609  0.96027289  1  0  0.093025  0.138765  0  1.007693  0
H  H22  1  0.04757886  0.03243733  0.70278818  1  0  0.296847  0.275237  0  1.002865  0
H  H23  1  0.95242191  0.96756137  0.29721190  1  0  0.296842  0.275238  0  1.002824  0
H  H24  1  0.92452148  0.02955599  0.61319501  1  0  0.294715  0.272291  0  1.010608  0
H  H25  1  0.07547818  0.97044745  0.38680493  1  0  0.294706  0.272231  0  1.010663  0
H  H26  1  0.75142146  0.00871021  0.74025860  1  0  0.315406  0.272303  0  0.988393  0
H  H27  1  0.24857929  0.99128729  0.25974394  1  0  0.315398  0.272302  0  0.988364  0
H  H28  1  0.26677508  0.98344252  0.04939983  1  0  0.099585  0.063588  0  1.015648  0
H  H29  1  0.73321187  0.01655856  0.95059738  1  0  0.099582  0.063631  0  1.015623  0
H  H30  1  0.39293208  0.90229185  0.97028042  1  0  0.104408  0.076016  0  0.988346  0
H  H31  1  0.60706647  0.09771631  0.02972013  1  0  0.104424  0.076022  0  0.988401  0
H  H32  1  0.14389338  0.98798487  0.88491056  1  0  0.092695  0.140053  0  1.027875  0
H  H33  1  0.85610849  0.01200444  0.11508091  1  0  0.092696  0.140041  0  1.027849  0
H  H34  1  0.16458649  0.77889588  0.91496374  1  0  0.089413  0.130194  0  1.012662  0
H  H35  1  0.83543151  0.22109339  0.08503524  1  0  0.089425  0.130203  0  1.012666  0
H  H36  1  0.03814406  0.85896842  0.99524105  1  0  0.09084  0.127489  0  1.010305  0
H  H37  1  0.96185428  0.14101497  0.00475097  1  0  0.090813  0.127433  0  1.010304  0
H  H38  1  0.43688987  0.47615297  0.38381712  1  0  0.294455  0.271114  0  1.010652  0
H  H39  1  0.56310632  0.52384928  0.61618246  1  0  0.294469  0.271143  0  1.010628  0
H  H40  1  0.57672463  0.45960225  0.29690063  1  0  0.295331  0.273345  0  1.006708  0
H  H41  1  0.42327730  0.54039881  0.70310191  1  0  0.29534  0.273366  0  1.006665  0
H  H42  1  0.29328094  0.50259147  0.25191681  1  0  0.318744  0.274486  0  0.978698  0
H  H43  1  0.70672221  0.49741318  0.74807978  1  0  0.318712  0.27446  0  0.978716  0
C  C44  1  0.28909949  0.78281925  0.46188966  1  0  0.144594  0.500385  0  4.191328  0
C  C45  1  0.71090251  0.21718656  0.53810972  1  0  0.144636  0.500303  0  4.191447  0
C  C46  1  0.38721427  0.85463011  0.71299710  1  0  0.144892  0.493916  0  4.213421  0
C  C47  1  0.61278537  0.14537212  0.28700605  1  0  0.14485  0.493875  0  4.21349  0
C  C48  1  0.78178381  0.71131676  0.53414643  1  0  0.142255  0.498464  0  4.197174  0
C  C49  1  0.21821693  0.28867840  0.46585286  1  0  0.142234  0.498429  0  4.197122  0
C  C50  1  0.07091988  0.35004531  0.72044634  1  0  0.145971  0.4946  0  4.210004  0
C  C51  1  0.92908205  0.64995456  0.27955568  1  0  0.145993  0.494634  0  4.210121  0
C  C52  1  0.82497940  0.78549525  0.82768410  1  0  0.321571  0.630574  0  4.210798  0
C  C53  1  0.17502367  0.21450228  0.17231537  1  0  0.321486  0.630426  0  4.21105  0
C  C54  1  0.66795769  0.62505155  0.97250108  1  0  -0.067495  0.100001  0  3.863665  0
C  C55  1  0.33204193  0.37494715  0.02749905  1  0  -0.067504  0.099993  0  3.863637  0
C  C56  1  0.76825235  0.60834758  0.06265774  1  0  -0.259424  -0.420143  0  3.931191  0
C  C57  1  0.23174496  0.39165230  0.93734300  1  0  -0.259379  -0.420167  0  3.931133  0
C  C58  1  0.39509389  0.71957500  0.16476441  1  0  0.318491  0.621041  0  4.237017  0
C  C59  1  0.60490922  0.28042609  0.83523362  1  0  0.318493  0.621141  0  4.236767  0
C  C60  1  0.28030077  0.88655111  0.01458405  1  0  -0.067733  0.097031  0  3.850592  0
C  C61  1  0.71969768  0.11344641  0.98541635  1  0  -0.067763  0.096937  0  3.850685  0
C  C62  1  0.14898745  0.87665460  0.94885733  1  0  -0.253473  -0.403371  0  3.93688  0
C  C63  1  0.85101444  0.12333941  0.05113916  1  0  -0.253444  -0.403274  0  3.936882  0
N  N64  1  0.96754228  0.96250580  0.68332129  1  0  -0.525838  -0.457389  0  3.39544  0
N  N65  1  0.03245852  0.03749528  0.31667757  1  0  -0.525844  -0.457339  0  3.395464  0
N  N66  1  0.84312384  0.93326433  0.75961888  1  0  -0.349627  -0.282281  0  3.574834  0
N  N67  1  0.15687579  0.06673556  0.24038026  1  0  -0.349567  -0.282196  0  3.574886  0
N  N68  1  0.49691804  0.53724955  0.31373410  1  0  -0.524677  -0.452498  0  3.393296  0
N  N69  1  0.50308278  0.46275388  0.68626654  1  0  -0.524761  -0.452634  0  3.393281  0
N  N70  1  0.39056854  0.57310620  0.23552026  1  0  -0.349994  -0.285164  0  3.589675  0
N  N71  1  0.60943229  0.42689843  0.76447866  1  0  -0.349846  -0.285021  0  3.589539  0
O  O72  1  0.16204312  0.83049743  0.49431879  1  0  -0.32629  -0.520452  0  2.320329  0
O  O73  1  0.83795537  0.16950482  0.50568143  1  0  -0.32631  -0.520453  0  2.32051  0
O  O74  1  0.34867935  0.83465060  0.36939514  1  0  -0.324074  -0.524048  0  2.301797  0
O  O75  1  0.65131916  0.16535401  0.63060536  1  0  -0.32408  -0.523997  0  2.301727  0
O  O76  1  0.32401817  0.72001431  0.72607012  1  0  -0.322321  -0.521292  0  2.34331  0
O  O77  1  0.67598262  0.27998791  0.27393298  1  0  -0.322323  -0.521268  0  2.343242  0
O  O78  1  0.32210568  0.98555019  0.67495270  1  0  -0.329381  -0.526851  0  2.376244  0
O  O79  1  0.67789625  0.01444969  0.32504784  1  0  -0.329383  -0.526865  0  2.376305  0
O  O80  1  0.82372783  0.66058003  0.62649774  1  0  -0.327277  -0.527828  0  2.29676  0
O  O81  1  0.17627522  0.33941630  0.37350345  1  0  -0.327237  -0.527735  0  2.296844  0
O  O82  1  0.66229388  0.66237393  0.50233540  1  0  -0.327562  -0.521858  0  2.31923  0
O  O83  1  0.33770802  0.33762241  0.49766435  1  0  -0.327599  -0.521921  0  2.319084  0
O  O84  1  0.13149987  0.21425915  0.73529103  1  0  -0.321965  -0.518461  0  2.338023  0
O  O85  1  0.86850323  0.78574191  0.26470997  1  0  -0.32197  -0.518465  0  2.338022  0
O  O86  1  0.14315457  0.47900341  0.67728276  1  0  -0.329687  -0.527565  0  2.376723  0
O  O87  1  0.85684509  0.52100003  0.32271719  1  0  -0.329691  -0.527593  0  2.376811  0
O  O88  1  0.91683233  0.67458612  0.83447345  1  0  -0.302917  -0.538862  0  2.219413  0
O  O89  1  0.08316961  0.32541377  0.16552634  1  0  -0.302902  -0.538865  0  2.21946  0
O  O90  1  0.69452901  0.77529547  0.88975413  1  0  -0.178224  -0.284776  0  2.486223  0
O  O91  1  0.30547292  0.22470324  0.11024590  1  0  -0.178185  -0.28467  0  2.486273  0
O  O92  1  0.28065431  0.73643067  0.09956876  1  0  -0.17613  -0.27961  0  2.487516  0
O  O93  1  0.71934418  0.26357158  0.90043220  1  0  -0.176167  -0.279672  0  2.487406  0
O  O94  1  0.49446191  0.82347848  0.15809809  1  0  -0.30284  -0.540949  0  2.223503  0
O  O95  1  0.50554121  0.17652379  0.84190045  1  0  -0.302869  -0.54101  0  2.223438  0
