# generated using pymatgen
data_SmH7C8SO7
_symmetry_space_group_name_H-M   'P 1'
_cell_length_a   7.97832125
_cell_length_b   9.93881211
_cell_length_c   14.34628999
_cell_angle_alpha   90.00046474
_cell_angle_beta   90.00057999
_cell_angle_gamma   103.13498804
_symmetry_Int_Tables_number   1
_chemical_formula_structural   SmH7C8SO7
_chemical_formula_sum   'Sm4 H28 C32 S4 O28'
_cell_volume   1107.82725498
_cell_formula_units_Z   4
loop_
 _symmetry_equiv_pos_site_id
 _symmetry_equiv_pos_as_xyz
  1  'x, y, z'
loop_
 _atom_site_type_symbol
 _atom_site_label
 _atom_site_symmetry_multiplicity
 _atom_site_fract_x
 _atom_site_fract_y
 _atom_site_fract_z
 _atom_site_occupancy
 _atom_site_hle17_bader_spin_density
 _atom_site_hle17_ddec_charge
 _atom_site_hle17_ddec_spin_density
 _atom_site_hle17_ddec_sum_bond_order
 _atom_site_hle17_magmom
 _atom_site_hse06_10hf_bader_spin_density
 _atom_site_hse06_10hf_ddec_charge
 _atom_site_hse06_10hf_ddec_spin_density
 _atom_site_hse06_10hf_ddec_sum_bond_order
 _atom_site_hse06_10hf_magmom
 _atom_site_hse06_bader_spin_density
 _atom_site_hse06_ddec_charge
 _atom_site_hse06_ddec_spin_density
 _atom_site_hse06_ddec_sum_bond_order
 _atom_site_hse06_magmom
 _atom_site_pbe_bader_spin_density
 _atom_site_pbe_cm5_charge
 _atom_site_pbe_ddec_charge
 _atom_site_pbe_ddec_spin_density
 _atom_site_pbe_ddec_sum_bond_order
 _atom_site_pbe_magmom
Sm  Sm0  1  0.60031270  0.59783872  0.11645161  1  0  2.330868  0  1.645086  0  0  2.237148  0  2.001592  0  0  2.280638  0  1.956804  0  0  1.527493  2.146365  0  2.14189  0
Sm  Sm1  1  0.89968636  0.40216466  0.61645295  1  0  2.330834  0  1.645229  0  0  2.237119  0  2.001748  0  0  2.280609  0  1.956957  0  0  1.527475  2.146432  0  2.141913  0
Sm  Sm2  1  0.39968910  0.40215927  0.88354707  1  0  2.330926  0  1.644866  0  0  2.237213  0  2.001351  0  0  2.280705  0  1.956562  0  0  1.527564  2.146389  0  2.141717  0
Sm  Sm3  1  0.10030848  0.59783958  0.38354921  1  0  2.330885  0  1.644977  0  0  2.237158  0  2.001477  0  0  2.28065  0  1.956685  0  0  1.527551  2.146397  0  2.141756  0
H  H4  1  0.50853142  0.49265915  0.31923240  1  0  0.452713  0  0.833875  0  0  0.426135  0  0.889296  0  0  0.436528  0  0.874011  0  0  0.307562  0.418355  0  0.900628  0
H  H5  1  0.99146632  0.50734437  0.81923276  1  0  0.452678  0  0.833934  0  0  0.426085  0  0.889385  0  0  0.436482  0  0.874091  0  0  0.307533  0.418305  0  0.900714  0
H  H6  1  0.49146438  0.50734405  0.68076767  1  0  0.452732  0  0.833866  0  0  0.426143  0  0.889307  0  0  0.436537  0  0.874019  0  0  0.307551  0.41836  0  0.900641  0
H  H7  1  0.00853323  0.49265881  0.18076522  1  0  0.452667  0  0.83394  0  0  0.426076  0  0.889389  0  0  0.436471  0  0.874099  0  0  0.307531  0.418294  0  0.900722  0
H  H8  1  0.70408444  0.48640671  0.30275690  1  0  0.437342  0  0.86139  0  0  0.407849  0  0.923391  0  0  0.417945  0  0.908516  0  0  0.305813  0.401117  0  0.93294  0
H  H9  1  0.79591107  0.51359449  0.80275619  1  0  0.437319  0  0.861426  0  0  0.407827  0  0.923427  0  0  0.417923  0  0.908553  0  0  0.305807  0.401094  0  0.932978  0
H  H10  1  0.29591265  0.51359235  0.69724596  1  0  0.437422  0  0.861291  0  0  0.407883  0  0.923372  0  0  0.417983  0  0.908492  0  0  0.305792  0.40113  0  0.932943  0
H  H11  1  0.20408688  0.48641181  0.19724458  1  0  0.437357  0  0.861361  0  0  0.407809  0  0.923466  0  0  0.417906  0  0.908589  0  0  0.305758  0.401061  0  0.933032  0
H  H12  1  0.31883333  0.24334058  0.30063053  1  0  0.117728  0  0.956026  0  0  0.126522  0  1.01961  0  0  0.129488  0  1.01828  0  0  0.109525  0.12411  0  1.021157  0
H  H13  1  0.18116804  0.75665487  0.80063124  1  0  0.11778  0  0.956007  0  0  0.126574  0  1.019586  0  0  0.129544  0  1.018247  0  0  0.109553  0.124158  0  1.021131  0
H  H14  1  0.68116907  0.75665949  0.69937163  1  0  0.117715  0  0.956078  0  0  0.126517  0  1.019646  0  0  0.129482  0  1.018318  0  0  0.109542  0.124101  0  1.021197  0
H  H15  1  0.81883757  0.24333897  0.19937162  1  0  0.117748  0  0.956072  0  0  0.126561  0  1.019629  0  0  0.129519  0  1.018327  0  0  0.109547  0.124143  0  1.021176  0
H  H16  1  0.15335648  0.99707090  0.36709118  1  0  0.114172  0  0.941482  0  0  0.122964  0  1.00396  0  0  0.126976  0  1.000563  0  0  0.114245  0.120209  0  1.006159  0
H  H17  1  0.34665289  0.00293074  0.86709067  1  0  0.114146  0  0.941428  0  0  0.122933  0  1.003909  0  0  0.126948  0  1.000508  0  0  0.114241  0.120162  0  1.006114  0
H  H18  1  0.84664127  0.00292608  0.63290959  1  0  0.11419  0  0.941488  0  0  0.122992  0  1.003949  0  0  0.127  0  1.000553  0  0  0.114283  0.120241  0  1.006143  0
H  H19  1  0.65335422  0.99706827  0.13291010  1  0  0.11409  0  0.941516  0  0  0.122889  0  1.003992  0  0  0.126899  0  1.000592  0  0  0.114223  0.120143  0  1.006172  0
H  H20  1  0.97221121  0.29199832  0.00910349  1  0  0.151147  0  0.961637  0  0  0.165256  0  1.026581  0  0  0.167908  0  1.025939  0  0  0.100305  0.163264  0  1.027214  0
H  H21  1  0.52778668  0.70800336  0.50909817  1  0  0.151135  0  0.961654  0  0  0.16521  0  1.026647  0  0  0.16786  0  1.02601  0  0  0.100294  0.16322  0  1.027277  0
H  H22  1  0.02778623  0.70799763  0.99090007  1  0  0.151172  0  0.961606  0  0  0.165243  0  1.026595  0  0  0.167893  0  1.025955  0  0  0.100294  0.163251  0  1.027228  0
H  H23  1  0.47221157  0.29200396  0.49089214  1  0  0.151101  0  0.961695  0  0  0.165197  0  1.026668  0  0  0.167845  0  1.026034  0  0  0.10028  0.163208  0  1.027298  0
H  H24  1  0.81470274  0.27614680  0.91752950  1  0  0.161868  0  0.939961  0  0  0.178262  0  1.000191  0  0  0.181354  0  0.998929  0  0  0.108754  0.175822  0  1.001709  0
H  H25  1  0.68529851  0.72385413  0.41752795  1  0  0.161876  0  0.940041  0  0  0.17827  0  1.000265  0  0  0.181363  0  0.999003  0  0  0.108769  0.175831  0  1.001778  0
H  H26  1  0.18529560  0.72385225  0.08247197  1  0  0.161913  0  0.940009  0  0  0.178308  0  1.000207  0  0  0.181398  0  0.998944  0  0  0.108777  0.175866  0  1.001723  0
H  H27  1  0.31470764  0.27614592  0.58246933  1  0  0.161894  0  0.93998  0  0  0.178277  0  1.000231  0  0  0.181373  0  0.998969  0  0  0.108759  0.175839  0  1.00175  0
H  H28  1  0.76723093  0.17550443  0.01964816  1  0  0.137961  0  0.940214  0  0  0.157718  0  1.001583  0  0  0.159541  0  1.001286  0  0  0.103368  0.156347  0  1.00213  0
H  H29  1  0.73276685  0.82450052  0.51964675  1  0  0.137947  0  0.940134  0  0  0.157695  0  1.00152  0  0  0.159517  0  1.001226  0  0  0.103364  0.156327  0  1.002067  0
H  H30  1  0.23276426  0.82449671  0.98035400  1  0  0.137919  0  0.940243  0  0  0.157646  0  1.00165  0  0  0.159468  0  1.001354  0  0  0.103322  0.156279  0  1.002194  0
H  H31  1  0.26723175  0.17550370  0.48034774  1  0  0.137969  0  0.940127  0  0  0.157725  0  1.001514  0  0  0.159546  0  1.001221  0  0  0.103393  0.156359  0  1.002056  0
C  C32  1  0.28238589  0.29460788  0.10630855  1  0  0.722995  0  3.890242  0  0  0.675947  0  4.183951  0  0  0.711586  0  4.171255  0  0  0.229289  0.65167  0  4.188471  0
C  C33  1  0.21761134  0.70538967  0.60630430  1  0  0.723094  0  3.890054  0  0  0.676121  0  4.183644  0  0  0.71176  0  4.170949  0  0  0.229348  0.651843  0  4.188174  0
C  C34  1  0.71761276  0.70539220  0.89369012  1  0  0.723034  0  3.890038  0  0  0.675891  0  4.183884  0  0  0.711527  0  4.171195  0  0  0.229271  0.651614  0  4.188401  0
C  C35  1  0.78238921  0.29460834  0.39368740  1  0  0.722747  0  3.890091  0  0  0.675711  0  4.183791  0  0  0.711348  0  4.171105  0  0  0.229132  0.651441  0  4.18831  0
C  C36  1  0.20875878  0.17495380  0.16585720  1  0  -0.159682  0  3.705478  0  0  -0.140999  0  3.969507  0  0  -0.148667  0  3.990018  0  0  -0.023432  -0.136693  0  3.957599  0
C  C37  1  0.29124735  0.82504051  0.66585334  1  0  -0.159744  0  3.705494  0  0  -0.141091  0  3.969525  0  0  -0.148755  0  3.99003  0  0  -0.023479  -0.136785  0  3.957621  0
C  C38  1  0.79125398  0.82504311  0.83414217  1  0  -0.159758  0  3.705599  0  0  -0.140996  0  3.969561  0  0  -0.148665  0  3.990082  0  0  -0.023444  -0.136687  0  3.957646  0
C  C39  1  0.70875200  0.17495336  0.33414742  1  0  -0.159586  0  3.705436  0  0  -0.14093  0  3.969501  0  0  -0.148597  0  3.990015  0  0  -0.023425  -0.136628  0  3.957595  0
C  C40  1  0.23617108  0.16152577  0.26063087  1  0  -0.065612  0  3.727399  0  0  -0.097551  0  3.993182  0  0  -0.097055  0  4.013243  0  0  -0.091583  -0.097754  0  3.98041  0
C  C41  1  0.26383528  0.83847211  0.76062833  1  0  -0.0658  0  3.727376  0  0  -0.097746  0  3.993162  0  0  -0.097249  0  4.013219  0  0  -0.091667  -0.097943  0  3.980376  0
C  C42  1  0.76383197  0.83847222  0.73936989  1  0  -0.06558  0  3.727495  0  0  -0.097529  0  3.993243  0  0  -0.097036  0  4.013309  0  0  -0.091579  -0.097731  0  3.980471  0
C  C43  1  0.73616842  0.16152380  0.23937104  1  0  -0.065715  0  3.727326  0  0  -0.097675  0  3.993117  0  0  -0.097183  0  4.013172  0  0  -0.091601  -0.097869  0  3.980336  0
C  C44  1  0.14883824  0.03208978  0.29546436  1  0  -0.078522  0  3.750775  0  0  -0.111482  0  4.01885  0  0  -0.111444  0  4.03782  0  0  -0.090558  -0.111387  0  4.006189  0
C  C45  1  0.35117357  0.96791174  0.79546303  1  0  -0.078324  0  3.750297  0  0  -0.11125  0  4.018348  0  0  -0.111207  0  4.03733  0  0  -0.090491  -0.111135  0  4.005674  0
C  C46  1  0.85116391  0.96790511  0.70453641  1  0  -0.078488  0  3.750742  0  0  -0.111449  0  4.018848  0  0  -0.11142  0  4.037802  0  0  -0.090584  -0.111355  0  4.006188  0
C  C47  1  0.64883449  0.03208623  0.20453704  1  0  -0.078392  0  3.750555  0  0  -0.111335  0  4.018644  0  0  -0.11129  0  4.037611  0  0  -0.090546  -0.111244  0  4.005961  0
C  C48  1  0.05409716  0.94922989  0.22715842  1  0  -0.152751  0  3.695352  0  0  -0.133166  0  3.95582  0  0  -0.140371  0  3.976813  0  0  -0.01668  -0.128984  0  3.943104  0
C  C49  1  0.44592122  0.05077258  0.72715595  1  0  -0.152942  0  3.695499  0  0  -0.133389  0  3.956028  0  0  -0.140621  0  3.97705  0  0  -0.016726  -0.129205  0  3.943308  0
C  C50  1  0.94590780  0.05076603  0.77284026  1  0  -0.152739  0  3.695263  0  0  -0.133218  0  3.955798  0  0  -0.140369  0  3.97672  0  0  -0.016703  -0.129041  0  3.94309  0
C  C51  1  0.55408834  0.94923055  0.27284133  1  0  -0.152706  0  3.695393  0  0  -0.133167  0  3.955897  0  0  -0.140376  0  3.976894  0  0  -0.016654  -0.12898  0  3.943176  0
C  C52  1  0.94367703  0.80913306  0.23849309  1  0  0.745643  0  3.887518  0  0  0.697833  0  4.182537  0  0  0.733692  0  4.170523  0  0  0.236543  0.673529  0  4.1856  0
C  C53  1  0.55631433  0.19088368  0.73849478  1  0  0.745644  0  3.887764  0  0  0.697837  0  4.182785  0  0  0.733708  0  4.17077  0  0  0.23651  0.673533  0  4.185854  0
C  C54  1  0.05632783  0.19087113  0.76151813  1  0  0.745602  0  3.887768  0  0  0.697836  0  4.182732  0  0  0.733677  0  4.17073  0  0  0.23658  0.673535  0  4.185799  0
C  C55  1  0.44367235  0.80912267  0.26151505  1  0  0.745533  0  3.887925  0  0  0.697761  0  4.18287  0  0  0.733621  0  4.170863  0  0  0.236512  0.673458  0  4.185929  0
C  C56  1  0.75718538  0.38489344  0.03679253  1  0  0.806255  0  3.774798  0  0  0.76882  0  4.067555  0  0  0.80325  0  4.05628  0  0  0.224887  0.74569  0  4.068196  0
C  C57  1  0.74281343  0.61510971  0.53679279  1  0  0.806364  0  3.774575  0  0  0.768926  0  4.067333  0  0  0.803355  0  4.056063  0  0  0.224994  0.745799  0  4.067978  0
C  C58  1  0.24281326  0.61510664  0.96321033  1  0  0.806551  0  3.774495  0  0  0.769128  0  4.0672  0  0  0.803555  0  4.055924  0  0  0.225061  0.745997  0  4.067842  0
C  C59  1  0.25718982  0.38489759  0.46320310  1  0  0.806155  0  3.77513  0  0  0.768877  0  4.067622  0  0  0.803306  0  4.056354  0  0  0.224929  0.745746  0  4.068263  0
C  C60  1  0.83526455  0.27710458  0.99307452  1  0  -0.467651  0  3.626017  0  0  -0.542811  0  3.855595  0  0  -0.550599  0  3.857867  0  0  -0.242089  -0.538054  0  3.855814  0
C  C61  1  0.66473280  0.72289549  0.49307146  1  0  -0.4677  0  3.626026  0  0  -0.542829  0  3.855641  0  0  -0.550619  0  3.857918  0  0  -0.242153  -0.538069  0  3.855851  0
C  C62  1  0.16473349  0.72289343  0.00693042  1  0  -0.467752  0  3.626042  0  0  -0.542855  0  3.855622  0  0  -0.55064  0  3.857896  0  0  -0.242106  -0.538099  0  3.855839  0
C  C63  1  0.33526394  0.27710667  0.50692442  1  0  -0.467587  0  3.626017  0  0  -0.542797  0  3.855616  0  0  -0.550589  0  3.857895  0  0  -0.242103  -0.538034  0  3.855826  0
S  S64  1  0.07526341  0.02920374  0.12013031  1  0  0.192784  0  2.634317  0  0  0.192638  0  2.953912  0  0  0.191974  0  2.963412  0  0  0.126777  0.19226  0  2.948774  0
S  S65  1  0.42474349  0.97079605  0.62012942  1  0  0.192906  0  2.634322  0  0  0.19277  0  2.953928  0  0  0.192117  0  2.963439  0  0  0.126821  0.192389  0  2.948799  0
S  S66  1  0.92474185  0.97079321  0.87986767  1  0  0.192769  0  2.634464  0  0  0.192629  0  2.954052  0  0  0.191943  0  2.963541  0  0  0.126792  0.192255  0  2.94891  0
S  S67  1  0.57525395  0.02919990  0.37986786  1  0  0.192787  0  2.634477  0  0  0.192655  0  2.954101  0  0  0.191994  0  2.963609  0  0  0.126799  0.192272  0  2.94897  0
O  O68  1  0.35703972  0.40649426  0.14814011  1  0  -0.751858  0  2.071346  0  0  -0.695817  0  2.312407  0  0  -0.720275  0  2.29952  0  0  -0.38416  -0.671676  0  2.321506  0
O  O69  1  0.14296256  0.59350082  0.64814595  1  0  -0.75195  0  2.07116  0  0  -0.695951  0  2.312173  0  0  -0.720412  0  2.299288  0  0  -0.384267  -0.671816  0  2.321272  0
O  O70  1  0.64297049  0.59350679  0.85186275  1  0  -0.751808  0  2.07133  0  0  -0.69581  0  2.312466  0  0  -0.720263  0  2.299577  0  0  -0.384167  -0.671666  0  2.321568  0
O  O71  1  0.85703494  0.40649099  0.35186248  1  0  -0.751753  0  2.071419  0  0  -0.695748  0  2.312471  0  0  -0.720199  0  2.299582  0  0  -0.384141  -0.67161  0  2.32157  0
O  O72  1  0.26548235  0.28009868  0.01851504  1  0  -0.721001  0  2.021254  0  0  -0.6834  0  2.276927  0  0  -0.705048  0  2.261672  0  0  -0.386761  -0.659581  0  2.28763  0
O  O73  1  0.23451850  0.71989952  0.51851444  1  0  -0.720971  0  2.021368  0  0  -0.683376  0  2.276986  0  0  -0.705024  0  2.261734  0  0  -0.386716  -0.659564  0  2.287689  0
O  O74  1  0.73451790  0.71989829  0.98148643  1  0  -0.72101  0  2.021106  0  0  -0.683371  0  2.276823  0  0  -0.705019  0  2.261574  0  0  -0.386773  -0.659557  0  2.287522  0
O  O75  1  0.76547925  0.28009747  0.48148981  1  0  -0.720871  0  2.020836  0  0  -0.683262  0  2.276486  0  0  -0.704911  0  2.261237  0  0  -0.386678  -0.659465  0  2.287184  0
O  O76  1  0.95437775  0.74733823  0.31571779  1  0  -0.75748  0  2.015902  0  0  -0.71022  0  2.272178  0  0  -0.734898  0  2.257813  0  0  -0.423224  -0.683396  0  2.28335  0
O  O77  1  0.54561871  0.25266109  0.81571210  1  0  -0.757291  0  2.016508  0  0  -0.710054  0  2.272826  0  0  -0.734728  0  2.258456  0  0  -0.4231  -0.683219  0  2.283996  0
O  O78  1  0.04561299  0.25266913  0.68427949  1  0  -0.75763  0  2.015538  0  0  -0.710382  0  2.271776  0  0  -0.735065  0  2.257427  0  0  -0.42334  -0.683566  0  2.282943  0
O  O79  1  0.45437814  0.74733279  0.18428030  1  0  -0.757549  0  2.015736  0  0  -0.710304  0  2.271987  0  0  -0.734983  0  2.257624  0  0  -0.423246  -0.683473  0  2.283155  0
O  O80  1  0.84581378  0.75911475  0.17140285  1  0  -0.728538  0  2.023545  0  0  -0.688832  0  2.286023  0  0  -0.712185  0  2.272402  0  0  -0.396387  -0.663709  0  2.296472  0
O  O81  1  0.65420089  0.24089149  0.67139214  1  0  -0.72867  0  2.023145  0  0  -0.688955  0  2.285632  0  0  -0.71232  0  2.272013  0  0  -0.396466  -0.663818  0  2.296021  0
O  O82  1  0.15418176  0.24088328  0.82858955  1  0  -0.728371  0  2.024151  0  0  -0.688681  0  2.286617  0  0  -0.712027  0  2.273003  0  0  -0.396337  -0.663553  0  2.297065  0
O  O83  1  0.34580987  0.75911577  0.32859260  1  0  -0.728372  0  2.024056  0  0  -0.688673  0  2.2865  0  0  -0.712025  0  2.272883  0  0  -0.396331  -0.663545  0  2.296917  0
O  O84  1  0.82506942  0.45661560  0.10682218  1  0  -0.716556  0  1.93878  0  0  -0.66272  0  2.16323  0  0  -0.687624  0  2.151798  0  0  -0.354946  -0.639363  0  2.171462  0
O  O85  1  0.67492722  0.54338868  0.60682235  1  0  -0.716601  0  1.93864  0  0  -0.66277  0  2.163117  0  0  -0.687655  0  2.151648  0  0  -0.354969  -0.639421  0  2.171351  0
O  O86  1  0.17493293  0.54338860  0.89317998  1  0  -0.716688  0  1.938619  0  0  -0.662877  0  2.163111  0  0  -0.687787  0  2.151685  0  0  -0.355038  -0.639514  0  2.17135  0
O  O87  1  0.32506136  0.45661560  0.39318051  1  0  -0.716542  0  1.939104  0  0  -0.662784  0  2.163518  0  0  -0.687663  0  2.152037  0  0  -0.354987  -0.639443  0  2.171795  0
O  O88  1  0.61481910  0.40505691  0.00424230  1  0  -0.846161  0  2.141908  0  0  -0.80008  0  2.397703  0  0  -0.825758  0  2.385514  0  0  -0.441043  -0.768196  0  2.405279  0
O  O89  1  0.88517838  0.59494366  0.50424256  1  0  -0.846168  0  2.141803  0  0  -0.800087  0  2.397607  0  0  -0.825776  0  2.385437  0  0  -0.441048  -0.768222  0  2.405187  0
O  O90  1  0.38518110  0.59494420  0.99575846  1  0  -0.846218  0  2.141777  0  0  -0.800154  0  2.397592  0  0  -0.825836  0  2.385412  0  0  -0.44106  -0.768276  0  2.405175  0
O  O91  1  0.11481090  0.40505440  0.49576100  1  0  -0.846112  0  2.141783  0  0  -0.800086  0  2.397523  0  0  -0.825773  0  2.385344  0  0  -0.441032  -0.768224  0  2.405113  0
O  O92  1  0.60974283  0.52636630  0.27860764  1  0  -0.925711  0  1.842746  0  0  -0.89  0  2.033616  0  0  -0.906945  0  2.001055  0  0  -0.6437  -0.869945  0  2.060034  0
O  O93  1  0.89025434  0.47363346  0.77860654  1  0  -0.925673  0  1.842826  0  0  -0.889941  0  2.033669  0  0  -0.906884  0  2.001111  0  0  -0.643683  -0.8699  0  2.06008  0
O  O94  1  0.39025487  0.47363482  0.72139312  1  0  -0.925814  0  1.842653  0  0  -0.890054  0  2.033525  0  0  -0.907003  0  2.000953  0  0  -0.643678  -0.869964  0  2.059998  0
O  O95  1  0.10974270  0.52636973  0.22139213  1  0  -0.925674  0  1.842704  0  0  -0.889928  0  2.033583  0  0  -0.906872  0  2.001022  0  0  -0.643631  -0.869856  0  2.060036  0
