# generated using pymatgen
data_CuH10C15N6O
_symmetry_space_group_name_H-M   'P 1'
_cell_length_a   7.70625895
_cell_length_b   9.19898660
_cell_length_c   10.06188820
_cell_angle_alpha   88.16294457
_cell_angle_beta   77.77090995
_cell_angle_gamma   86.58812942
_symmetry_Int_Tables_number   1
_chemical_formula_structural   CuH10C15N6O
_chemical_formula_sum   'Cu2 H20 C30 N12 O2'
_cell_volume   695.72552467
_cell_formula_units_Z   2
loop_
 _symmetry_equiv_pos_site_id
 _symmetry_equiv_pos_as_xyz
  1  'x, y, z'
loop_
 _atom_site_type_symbol
 _atom_site_label
 _atom_site_symmetry_multiplicity
 _atom_site_fract_x
 _atom_site_fract_y
 _atom_site_fract_z
 _atom_site_occupancy
 _atom_site_hle17_ddec_charge
 _atom_site_hle17_ddec_spin_density
 _atom_site_hle17_ddec_sum_bond_order
 _atom_site_hle17_magmom
 _atom_site_hse06_10hf_ddec_charge
 _atom_site_hse06_10hf_ddec_spin_density
 _atom_site_hse06_10hf_ddec_sum_bond_order
 _atom_site_hse06_10hf_magmom
 _atom_site_hse06_ddec_charge
 _atom_site_hse06_ddec_spin_density
 _atom_site_hse06_ddec_sum_bond_order
 _atom_site_hse06_magmom
 _atom_site_pbe_cm5_charge
 _atom_site_pbe_ddec_charge
 _atom_site_pbe_ddec_spin_density
 _atom_site_pbe_ddec_sum_bond_order
 _atom_site_pbe_magmom
Cu  Cu0  1  0.60821981  0.70808749  0.53792410  1  0.825924  -0.717614  2.030928  -0.492  0.802598  -0.797706  2.453438  -0.602  0.884861  -0.880748  2.383205  -0.694  0.799855  0.757834  -0.739411  2.499852  -0.544
Cu  Cu1  1  0.39178116  0.29191579  0.46207817  1  0.825956  0.717641  2.030906  0.492  0.802524  0.797705  2.453473  0.602  0.884794  0.88073  2.383133  0.694  0.799847  0.757752  0.739409  2.499892  0.544
H  H2  1  0.91118879  0.20072930  0.64674394  1  0.098885  -0.000322  0.963562  0.0  0.104469  -0.000291  1.032774  0.0  0.106007  -0.000162  1.033401  0.0  0.101555  0.103481  -0.000427  1.032029  0.0
H  H3  1  0.08879434  0.79926394  0.35325677  1  0.09884  0.000316  0.963653  0.0  0.104442  0.000292  1.032837  0.0  0.105979  0.000162  1.033465  0.0  0.101516  0.103457  0.000428  1.032092  0.0
H  H4  1  0.95741411  0.03406890  0.83611962  1  0.083671  -0.000122  0.995097  0.0  0.089141  -9.6e-05  1.063965  0.0  0.091428  -5e-05  1.064053  0.0  0.093187  0.087253  -0.000133  1.064321  0.0
H  H5  1  0.04257683  0.96592661  0.16388168  1  0.083754  0.000128  0.99508  0.0  0.089201  9.7e-05  1.063964  0.0  0.091488  5e-05  1.064054  0.0  0.093211  0.087316  0.000133  1.064318  0.0
H  H6  1  0.83556691  0.10412120  0.07658783  1  0.080753  1.6e-05  0.980915  0.0  0.089271  -1e-06  1.04724  0.0  0.090974  -5e-06  1.04762  0.0  0.095197  0.088892  2e-06  1.045198  0.0
H  H7  1  0.16443812  0.89588103  0.92341381  1  0.08073  -1.9e-05  0.980924  0.0  0.089248  2e-06  1.047246  0.0  0.090947  5e-06  1.047642  0.0  0.095182  0.088872  -2e-06  1.045198  0.0
H  H8  1  0.66302461  0.34128595  0.12691503  1  0.102022  -1.8e-05  0.965109  0.0  0.109804  -3.9e-05  1.029199  0.0  0.11255  -2.7e-05  1.028834  0.0  0.098691  0.108198  -2.8e-05  1.028655  0.0
H  H9  1  0.33698435  0.65871745  0.87308888  1  0.102003  2.5e-05  0.965169  0.0  0.109808  3.9e-05  1.029226  0.0  0.112553  2.7e-05  1.028863  0.0  0.098694  0.108203  2.8e-05  1.028681  0.0
H  H10  1  0.62268467  0.50931272  0.93421795  1  0.093795  -0.00019  0.984298  0.0  0.103849  -0.000234  1.048797  0.0  0.106951  -0.000158  1.04699  0.0  0.100388  0.102055  -0.00028  1.048915  0.0
H  H11  1  0.37732412  0.49069286  0.06578689  1  0.093773  0.000199  0.984324  0.0  0.103852  0.000234  1.048783  0.0  0.106949  0.000159  1.046992  0.0  0.10039  0.102059  0.00028  1.048901  0.0
H  H12  1  0.89341328  0.45173070  0.27319771  1  0.11112  -0.007381  0.922137  -0.009  0.117888  -0.003831  0.985411  -0.004  0.118729  -0.002575  0.983998  -0.003  0.126493  0.117155  -0.004774  0.985995  -0.005
H  H13  1  0.10657995  0.54826918  0.72680203  1  0.111097  0.007382  0.92211  0.009  0.117875  0.003829  0.985393  0.004  0.118719  0.002574  0.983977  0.003  0.126479  0.117138  0.004771  0.985979  0.005
H  H14  1  0.45359696  0.94127571  0.35713919  1  0.098401  -0.001851  0.942989  -0.003  0.102515  -0.001601  1.010527  -0.002  0.102698  -0.001126  1.010302  -0.002  0.120443  0.101842  -0.001973  1.011508  -0.003
H  H15  1  0.54639608  0.05872633  0.64285851  1  0.098399  0.001857  0.943056  0.003  0.102521  0.0016  1.01058  0.002  0.102706  0.001126  1.010354  0.002  0.120455  0.101848  0.001972  1.011563  0.003
H  H16  1  0.50675443  0.99066966  0.10721450  1  0.101355  -0.000794  0.959583  -0.001  0.111596  -0.000611  1.020616  -0.001  0.113619  -0.00043  1.021317  -0.001  0.10906  0.110651  -0.000731  1.018815  -0.001
H  H17  1  0.49325232  0.00932705  0.89278111  1  0.10133  0.000797  0.959459  0.001  0.111578  0.000611  1.0205  0.001  0.113602  0.00043  1.021199  0.001  0.109025  0.110631  0.000732  1.018703  0.001
H  H18  1  0.71368307  0.81705282  0.94918417  1  0.10286  -0.000141  0.921626  0.0  0.11682  4.2e-05  0.973396  0.0  0.119189  4.9e-05  0.97159  0.0  0.113359  0.114642  1.7e-05  0.975242  0.0
H  H19  1  0.28632087  0.18294608  0.05081381  1  0.102887  0.000148  0.921674  0.0  0.11685  -4.2e-05  0.973429  0.0  0.119218  -4.9e-05  0.971623  0.0  0.113359  0.11467  -1.7e-05  0.975272  0.0
H  H20  1  0.85946755  0.60359391  0.05090674  1  0.106982  -0.001064  0.947503  -0.001  0.118128  -0.000791  1.005903  -0.001  0.120537  -0.000559  1.006482  -0.001  0.109113  0.116582  -0.000946  1.005092  -0.001
H  H21  1  0.14053534  0.39640174  0.94909353  1  0.10699  0.001071  0.947546  0.001  0.11812  0.000791  1.005964  0.001  0.120529  0.000558  1.006541  0.001  0.109088  0.116573  0.000946  1.005152  0.001
C  C22  1  0.72611074  0.46752312  0.67090849  1  0.460928  -0.0095  3.834245  -0.008  0.429486  -0.005656  4.122024  -0.005  0.458076  -0.004238  4.129237  -0.004  0.217788  0.412024  -0.006884  4.115016  -0.006
C  C23  1  0.27388654  0.53247689  0.32909752  1  0.460904  0.009489  3.83416  0.008  0.429474  0.00566  4.122015  0.005  0.458062  0.004241  4.129235  0.004  0.21778  0.41199  0.006887  4.115035  0.006
C  C24  1  0.76211360  0.36545115  0.77969276  1  -0.045283  -0.005344  3.781953  -0.005  -0.018284  -0.004054  4.001125  -0.004  -0.024499  -0.002807  4.023635  -0.003  -0.017061  -0.015716  -0.005039  3.986658  -0.005
C  C25  1  0.23788233  0.63454881  0.22031050  1  -0.045125  0.005376  3.781451  0.005  -0.018302  0.004048  4.000873  0.004  -0.024514  0.00281  4.023381  0.003  -0.017087  -0.015723  0.005038  3.98641  0.005
C  C26  1  0.85723360  0.23094922  0.75177465  1  -0.072257  -0.001892  3.716983  -0.002  -0.093309  -0.001079  3.961423  -0.001  -0.093861  -0.000778  3.984338  -0.001  -0.082435  -0.092995  -0.001225  3.946422  -0.001
C  C27  1  0.14275312  0.76904955  0.24822921  1  -0.072232  0.001897  3.716935  0.002  -0.093233  0.001081  3.961413  0.001  -0.093784  0.000776  3.984325  0.001  -0.08231  -0.092922  0.001225  3.946419  0.001
C  C28  1  0.88300096  0.13793093  0.85875442  1  -0.084966  0.000144  3.774609  0.0  -0.095854  -6.8e-05  4.024117  0.0  -0.101137  -3.7e-05  4.049294  0.0  -0.097908  -0.092282  -0.000257  4.007653  0.0
C  C29  1  0.11699134  0.86206463  0.14124962  1  -0.085169  -0.000158  3.774678  0.0  -0.096052  6.8e-05  4.024195  0.0  -0.101337  3.7e-05  4.049376  0.0  -0.098049  -0.092483  0.000257  4.007739  0.0
C  C30  1  0.81477409  0.17735691  0.99354567  1  -0.063054  -0.000491  3.769976  0.0  -0.078996  -6.1e-05  4.0209  0.0  -0.080165  -0.000115  4.044616  0.0  -0.091226  -0.078144  4.2e-05  4.002994  0.0
C  C31  1  0.18522864  0.82264094  0.00645653  1  -0.062906  0.000505  3.76986  0.0  -0.078825  5.8e-05  4.02075  0.0  -0.079995  0.000118  4.044462  0.0  -0.091119  -0.077969  -4.3e-05  4.002842  0.0
C  C32  1  0.72022081  0.31098815  0.02213972  1  -0.090335  -9.6e-05  3.76908  0.0  -0.10076  -0.00012  4.019903  0.0  -0.105145  -0.000128  4.042738  0.0  -0.097204  -0.097552  -0.000264  4.002831  0.0
C  C33  1  0.27978838  0.68901194  0.97786131  1  -0.090346  9.1e-05  3.769218  0.0  -0.100794  0.000119  4.02002  0.0  -0.105176  0.000127  4.042851  0.0  -0.097243  -0.097587  0.000264  4.002949  0.0
C  C34  1  0.69528162  0.40444653  0.91523048  1  -0.088819  5.6e-05  3.745908  0.0  -0.11117  -0.00014  3.986611  0.0  -0.110651  -0.000155  4.006274  0.0  -0.090755  -0.110513  -0.000116  3.972134  0.0
C  C35  1  0.30472198  0.59555674  0.08476837  1  -0.088853  -0.000106  3.745837  0.0  -0.111159  0.000144  3.986576  0.0  -0.110644  0.000154  4.006238  0.0  -0.09076  -0.110505  0.000115  3.972101  0.0
C  C36  1  0.80535321  0.53847943  0.32626627  1  0.01354  0.03081  3.619411  0.03  -0.033817  0.005559  3.904544  0.007  -0.023744  0.008044  3.915751  0.01  0.052749  -0.0409  0.004047  3.89761  0.005
C  C37  1  0.19463978  0.46152375  0.67373536  1  0.01362  -0.03085  3.618825  -0.03  -0.033833  -0.005564  3.903994  -0.007  -0.023773  -0.008045  3.915209  -0.01  0.052716  -0.040915  -0.004047  3.897058  -0.005
C  C38  1  0.73127231  0.65862151  0.25610516  1  0.206838  -0.005376  3.798004  -0.006  0.210496  -0.002789  4.042082  -0.003  0.219291  -0.001823  4.061984  -0.002  0.114507  0.204525  -0.003467  4.029107  -0.004
C  C39  1  0.26872784  0.34137519  0.74389553  1  0.20662  0.005385  3.797899  0.006  0.210346  0.002789  4.041997  0.003  0.219143  0.001824  4.061904  0.002  0.114429  0.204372  0.003465  4.029017  0.004
C  C40  1  0.54197499  0.86918920  0.28578820  1  0.159428  0.004944  3.667312  0.006  0.130122  0.001023  3.925215  0.002  0.140221  0.002011  3.945409  0.003  0.061546  0.122081  0.000264  3.913551  0.002
C  C41  1  0.45802248  0.13080745  0.71420997  1  0.159375  -0.00496  3.66735  -0.006  0.13009  -0.001023  3.92528  -0.002  0.14019  -0.002009  3.945471  -0.003  0.061516  0.122047  -0.000263  3.913618  -0.002
C  C42  1  0.57255376  0.89550911  0.14558222  1  -0.113201  -0.001861  3.715974  -0.003  -0.130934  -0.002767  3.973693  -0.004  -0.138192  -0.001914  3.994944  -0.003  -0.079713  -0.12608  -0.003501  3.958414  -0.004
C  C43  1  0.42744465  0.10449185  0.85441164  1  -0.11312  0.001858  3.71591  0.003  -0.130862  0.002764  3.973628  0.004  -0.138121  0.001913  3.99488  0.003  -0.079662  -0.126009  0.0035  3.95835  0.004
C  C44  1  0.68654593  0.79934396  0.05920847  1  0.002019  0.003931  3.705666  0.003  -0.017402  0.002436  3.960685  0.002  -0.011401  0.002324  3.975535  0.002  -0.060657  -0.020968  0.002616  3.950629  0.002
C  C45  1  0.31345668  0.20065492  0.94078973  1  0.001926  -0.003942  3.705668  -0.003  -0.017493  -0.002435  3.960699  -0.002  -0.011493  -0.002324  3.975548  -0.002  -0.060662  -0.021058  -0.002616  3.950636  -0.002
C  C46  1  0.76757575  0.67972462  0.11499257  1  -0.13067  0.00309  3.692259  0.003  -0.149348  -0.000695  3.936023  -0.001  -0.156001  -0.000294  3.955853  0.0  -0.075269  -0.145563  -0.000978  3.922606  -0.001
C  C47  1  0.23242152  0.32027538  0.88501245  1  -0.130624  -0.00311  3.692083  -0.003  -0.149302  0.000695  3.935849  0.001  -0.155956  0.000292  3.955679  0.0  -0.075245  -0.145516  0.00098  3.922429  0.001
C  C48  1  0.22704796  0.82560665  0.63649967  1  0.523462  0.004976  3.98543  0.003  0.496084  -0.000143  4.267007  -0.003  0.529765  0.000606  4.270861  -0.002  0.319762  0.474225  -0.000617  4.262671  -0.003
C  C49  1  0.77295971  0.17439557  0.36349854  1  0.523359  -0.004952  3.985391  -0.003  0.495962  0.000142  4.266993  0.003  0.52963  -0.000608  4.270855  0.002  0.31974  0.474102  0.000616  4.262659  0.003
C  C50  1  0.93016041  0.84727357  0.62001230  1  0.503674  0.003868  3.981832  0.004  0.4799  0.001867  4.26231  0.002  0.510374  0.001738  4.2677  0.002  0.303701  0.459953  0.001942  4.257701  0.002
C  C51  1  0.06984597  0.15272748  0.37998121  1  0.503718  -0.00385  3.981889  -0.004  0.47995  -0.001866  4.262345  -0.002  0.510414  -0.001741  4.267737  -0.002  0.303762  0.460002  -0.001942  4.257733  -0.002
N  N52  1  0.80513810  0.43581837  0.54161075  1  -0.325833  -0.045195  2.953953  -0.043  -0.32211  -0.019828  3.266398  -0.019  -0.349515  -0.010019  3.293731  -0.009  -0.233669  -0.305198  -0.029476  3.248868  -0.028
N  N53  1  0.19486208  0.56417838  0.45839292  1  -0.326035  0.045232  2.954398  0.043  -0.322339  0.019838  3.266818  0.019  -0.349744  0.010027  3.294158  0.009  -0.233762  -0.30542  0.02949  3.249293  0.028
N  N54  1  0.75690200  0.53939057  0.45846574  1  -0.102877  -0.152352  3.512656  -0.187  -0.083496  -0.087488  3.859334  -0.116  -0.106289  -0.069477  3.885083  -0.097  -0.236623  -0.071814  -0.098056  3.846253  -0.125
N  N55  1  0.24309595  0.46061581  0.54152598  1  -0.102748  0.152374  3.512505  0.187  -0.083189  0.087495  3.858999  0.116  -0.105973  0.069483  3.884734  0.097  -0.236467  -0.071505  0.098057  3.845909  0.125
N  N56  1  0.61930402  0.75429833  0.33883824  1  -0.330908  -0.086271  3.289383  -0.104  -0.288919  -0.067113  3.579622  -0.087  -0.321115  -0.054339  3.601958  -0.075  -0.337375  -0.270283  -0.074642  3.567202  -0.093
N  N57  1  0.38069054  0.24570157  0.66116127  1  -0.330733  0.086267  3.289415  0.104  -0.288822  0.067112  3.57971  0.087  -0.321016  0.054341  3.602028  0.075  -0.337337  -0.270185  0.074641  3.56729  0.093
N  N58  1  0.38374008  0.81354077  0.61041434  1  -0.599808  -0.031503  2.96626  -0.036  -0.575016  -0.025192  3.282491  -0.029  -0.60222  -0.023393  3.275051  -0.028  -0.421861  -0.558756  -0.025724  3.287334  -0.029
N  N59  1  0.61626722  0.18646701  0.38959265  1  -0.599738  0.03148  2.966095  0.036  -0.574907  0.025189  3.282307  0.029  -0.60211  0.023394  3.274844  0.028  -0.421819  -0.558647  0.025722  3.287148  0.029
N  N60  1  0.05874798  0.84105060  0.68476626  1  -0.472943  -0.000977  3.331034  -0.002  -0.414957  0.000232  3.580423  0.0  -0.438505  0.000454  3.578873  0.0  -0.306979  -0.398122  -0.000239  3.579616  -0.001
N  N61  1  0.94125749  0.15894495  0.31522464  1  -0.472909  0.00097  3.331036  0.002  -0.414912  -0.000232  3.580417  0.0  -0.438446  -0.000456  3.578864  0.0  -0.307022  -0.398076  0.000238  3.579606  0.001
N  N62  1  0.79975904  0.85567095  0.57538961  1  -0.594617  -0.001579  2.787282  -0.004  -0.57408  0.000229  3.064968  -0.001  -0.597041  0.000433  3.062947  -0.001  -0.396945  -0.5597  -9.3e-05  3.066321  -0.001
N  N63  1  0.20024206  0.14433010  0.42460876  1  -0.594701  0.001562  2.787415  0.004  -0.574161  -0.000231  3.065112  0.001  -0.597118  -0.000431  3.063073  0.001  -0.396986  -0.559782  9.2e-05  3.066463  0.001
O  O64  1  0.62099162  0.58084783  0.70499970  1  -0.56008  -0.078229  2.029506  -0.101  -0.523717  -0.057448  2.291  -0.081  -0.565791  -0.045979  2.288401  -0.069  -0.311706  -0.496804  -0.063373  2.292303  -0.086
O  O65  1  0.37900535  0.41915539  0.29500127  1  -0.560047  0.078228  2.029536  0.101  -0.523652  0.057445  2.291021  0.081  -0.565724  0.045981  2.288412  0.069  -0.311668  -0.496734  0.063368  2.292331  0.086
