# generated using pymatgen
data_Al4H16C36(SO12)3
_symmetry_space_group_name_H-M   'P 1'
_cell_length_a   6.98406824
_cell_length_b   16.31446073
_cell_length_c   18.56874471
_cell_angle_alpha   106.60698865
_cell_angle_beta   89.64788624
_cell_angle_gamma   89.26946132
_symmetry_Int_Tables_number   1
_chemical_formula_structural   Al4H16C36(SO12)3
_chemical_formula_sum   'Al4 H16 C36 S3 O36'
_cell_volume   2027.22380333
_cell_formula_units_Z   1
loop_
 _symmetry_equiv_pos_site_id
 _symmetry_equiv_pos_as_xyz
  1  'x, y, z'
loop_
 _atom_site_type_symbol
 _atom_site_label
 _atom_site_symmetry_multiplicity
 _atom_site_fract_x
 _atom_site_fract_y
 _atom_site_fract_z
 _atom_site_occupancy
 _atom_site_pbe_bader_charge
 _atom_site_pbe_bader_spin_density
 _atom_site_pbe_cm5_charge
 _atom_site_pbe_ddec_charge
 _atom_site_pbe_ddec_spin_density
 _atom_site_pbe_ddec_sum_bond_order
 _atom_site_pbe_magmom
Al  Al0  1  0.14211712  0.50461898  0.49889629  1  2.507754  0  0.412014  1.641158  0  2.529446  0
Al  Al1  1  0.64321575  0.50282663  0.49829257  1  2.507195  0  0.413672  1.642712  0  2.525217  0
Al  Al2  1  0.61529177  0.00304010  0.99717951  1  2.505686  0  0.412847  1.632789  0  2.552185  0
Al  Al3  1  0.11824283  0.00460103  0.99875340  1  2.505155  0  0.412309  1.634364  0  2.538798  0
H  H4  1  0.69727547  0.21032935  0.19264479  1  0.136463  0  0.113344  0.143856  0  0.98985  0
H  H5  1  0.17290559  0.29556282  0.16275852  1  0.116865  0  0.121856  0.133868  0  0.95059  0
H  H6  1  0.03242281  0.83956508  0.63395061  1  0.629923  0  0.339793  0.38017  0  0.862192  0
H  H7  1  0.65634881  0.39724210  0.24287252  1  0.624544  0  0.328446  0.382327  0  0.89003  0
H  H8  1  0.01116264  0.14048931  0.28499975  1  0.658111  0  0.32171  0.378043  0  0.943603  0
H  H9  1  0.58351007  0.85854050  0.68345419  1  0.640892  0  0.334943  0.379141  0  0.880905  0
H  H10  1  0.56112860  0.66880365  0.85690365  1  0.669777  0  0.328759  0.395124  0  0.911536  0
H  H11  1  0.87884934  0.65907897  0.87786854  1  0.624719  0  0.337719  0.375425  0  0.875107  0
H  H12  1  0.22374807  0.63934912  0.80903231  1  0.674711  0  0.312421  0.369659  0  0.974584  0
H  H13  1  0.35880476  0.72361630  0.67880308  1  0.654091  0  0.317304  0.383519  0  0.943256  0
H  H14  1  0.31102910  0.09938824  0.32247167  1  0.625491  0  0.347631  0.389412  0  0.851511  0
H  H15  1  0.71036407  0.17493135  0.33741586  1  0.627616  0  0.308003  0.354074  0  0.977074  0
H  H16  1  0.39080571  0.60955590  0.49412626  1  0.59844  0  0.341889  0.421928  0  0.865291  0
H  H17  1  0.90145516  0.39196423  0.46687537  1  0.654474  0  0.32632  0.418345  0  0.89577  0
H  H18  1  0.36925682  0.90137067  0.94030718  1  0.624274  0  0.327113  0.413555  0  0.89788  0
H  H19  1  0.86377758  0.10464593  0.98574588  1  0.596546  0  0.343038  0.422499  0  0.866308  0
C  C20  1  0.39176373  0.38892891  0.38580286  1  1.588555  0  0.269195  0.677344  0  4.072899  0
C  C21  1  0.39684312  0.41607315  0.57996659  1  1.69885  0  0.28265  0.706715  0  4.16107  0
C  C22  1  0.89088945  0.60881088  0.61720304  1  1.659778  0  0.276019  0.686134  0  4.048715  0
C  C23  1  0.88704229  0.59491205  0.41817104  1  1.709151  0  0.278418  0.70947  0  4.157221  0
C  C24  1  0.88778565  0.64457146  0.36518449  1  0.120165  0  0.001529  -0.133232  0  3.821078  0
C  C25  1  0.88609805  0.68694976  0.32022299  1  -0.259921  0  -0.010003  0.024798  0  4.257838  0
C  C26  1  0.88316719  0.73368169  0.27138347  1  0.017376  0  0.000499  -0.001394  0  4.189816  0
C  C27  1  0.87912271  0.77711277  0.22679310  1  -0.041382  0  -0.002525  -0.005878  0  4.1928  0
C  C28  1  0.87458331  0.82448405  0.17846976  1  -0.150256  0  -0.01073  0.02399  0  4.260782  0
C  C29  1  0.87031853  0.86783904  0.13431247  1  0.081573  0  0.000242  -0.135969  0  3.825355  0
C  C30  1  0.75474695  0.80907646  0.73978443  1  0.672171  0  0.105797  0.256464  0  3.719065  0
C  C31  1  0.93308606  0.76751729  0.69110884  1  0.617434  0  0.082677  0.218646  0  3.823543  0
C  C32  1  0.88565654  0.67510968  0.69235291  1  -0.008219  0  -0.006314  -0.140106  0  3.656728  0
C  C33  1  0.70118093  0.70890178  0.74089801  1  -0.175744  0  -0.031518  -0.287725  0  3.647333  0
C  C34  1  0.82526304  0.72768492  0.81328447  1  0.545267  0  0.078316  0.217245  0  3.798506  0
C  C35  1  0.00548410  0.68804177  0.76729146  1  0.644912  0  0.09334  0.24577  0  3.74608  0
C  C36  1  0.05814904  0.78254202  0.76430825  1  -0.171124  0  -0.019101  -0.25651  0  3.716955  0
C  C37  1  0.87543046  0.81984175  0.81255100  1  -0.002152  0  3.6e-05  -0.123673  0  3.658543  0
C  C38  1  0.49156254  0.22189998  0.30010032  1  0.608203  0  0.079688  0.233613  0  3.774576  0
C  C39  1  0.30633425  0.17904185  0.26370114  1  0.544217  0  0.083105  0.205681  0  3.748647  0
C  C40  1  0.37029549  0.18467398  0.18437289  1  -0.00893  0  -0.004719  -0.072559  0  3.657978  0
C  C41  1  0.55857186  0.22765857  0.22009618  1  -0.053045  0  -0.092373  -0.226165  0  3.646561  0
C  C42  1  0.45701519  0.31723566  0.23640408  1  0.643129  0  0.097426  0.320115  0  3.745667  0
C  C43  1  0.26593582  0.27476797  0.20146287  1  -0.040499  0  -0.057204  -0.101937  0  3.556877  0
C  C44  1  0.20388339  0.26892084  0.28093735  1  -0.150101  0  -0.014123  -0.172865  0  3.772664  0
C  C45  1  0.38878078  0.31327308  0.31836202  1  -0.022456  0  -0.011032  -0.172462  0  3.616971  0
C  C46  1  0.39243995  0.36661552  0.63287681  1  0.130848  0  0.010505  -0.113879  0  3.804649  0
C  C47  1  0.38548793  0.32375666  0.67731568  1  -0.189308  0  -0.00555  0.027108  0  4.238463  0
C  C48  1  0.37834810  0.27648847  0.72556370  1  -0.062667  0  0.004319  0.005032  0  4.188997  0
C  C49  1  0.37207555  0.23256173  0.76966475  1  0.030389  0  -0.001414  -0.010024  0  4.193574  0
C  C50  1  0.36723015  0.18518535  0.81786660  1  -0.266349  0  -0.006176  0.034452  0  4.253831  0
C  C51  1  0.36412284  0.14205589  0.86217369  1  0.19783  0  -0.001835  -0.13556  0  3.834104  0
C  C52  1  0.36460859  0.09328639  0.91548162  1  1.664809  0  0.276249  0.710645  0  4.160438  0
C  C53  1  0.36371602  0.11423857  0.11287889  1  1.601471  0  0.275764  0.666498  0  4.074721  0
C  C54  1  0.86880914  0.91779913  0.08158181  1  1.701945  0  0.277338  0.701252  0  4.174539  0
C  C55  1  0.87148954  0.89222841  0.88336736  1  1.639061  0  0.278755  0.684635  0  4.050616  0
S  S56  1  0.97685599  0.27809693  0.32144899  1  3.024036  0  0.556573  1.173862  0  5.926844  0
S  S57  1  0.53803961  0.62637775  0.73615515  1  3.05221  0  0.551511  1.170729  0  5.928799  0
S  S58  1  0.26902176  0.83849191  0.76636065  1  3.09017  0  0.536342  1.18115  0  6.021311  0
O  O59  1  0.56127124  0.43879175  0.56377022  1  -1.220532  0  -0.217407  -0.56342  0  2.302059  0
O  O60  1  0.22904973  0.42465010  0.40673559  1  -1.252084  0  -0.235146  -0.60163  0  2.358642  0
O  O61  1  0.04989859  0.58128809  0.44349637  1  -1.225717  0  -0.22304  -0.57771  0  2.275764  0
O  O62  1  0.23501165  0.43072448  0.55453066  1  -1.220508  0  -0.218637  -0.566349  0  2.284947  0
O  O63  1  0.05591533  0.58284718  0.59171369  1  -1.243858  0  -0.218406  -0.550888  0  2.333857  0
O  O64  1  0.55470285  0.41173503  0.41431664  1  -1.245986  0  -0.230136  -0.585459  0  2.332342  0
O  O65  1  0.39183159  0.55610269  0.50728040  1  -1.403865  0  -0.452288  -0.978057  0  2.096387  0
O  O66  1  0.73016623  0.59159792  0.58489156  1  -1.249184  0  -0.230212  -0.587536  0  2.341015  0
O  O67  1  0.72254151  0.57098309  0.43374840  1  -1.221077  0  -0.22501  -0.580745  0  2.273566  0
O  O68  1  0.89454591  0.45401179  0.48844987  1  -1.461629  0  -0.456581  -0.995651  0  2.106256  0
O  O69  1  0.19938126  0.08964128  0.08685930  1  -1.254403  0  -0.230501  -0.581474  0  2.309054  0
O  O70  1  0.52974228  0.07457888  0.93609044  1  -1.225774  0  -0.228371  -0.589111  0  2.275982  0
O  O71  1  0.70655139  0.91784537  0.90954178  1  -1.248542  0  -0.221162  -0.563331  0  2.348646  0
O  O72  1  0.52614642  0.08571701  0.08479778  1  -1.247077  0  -0.223344  -0.574524  0  2.341186  0
O  O73  1  0.70487909  0.93538714  0.05988271  1  -1.21742  0  -0.219793  -0.565167  0  2.283702  0
O  O74  1  0.20035236  0.07547426  0.93721133  1  -1.231986  0  -0.229851  -0.592872  0  2.284181  0
O  O75  1  0.36784323  0.95098735  0.98479513  1  -1.429959  0  -0.454253  -0.978319  0  2.067091  0
O  O76  1  0.03261219  0.93806576  0.06214610  1  -1.226361  0  -0.219497  -0.564021  0  2.284377  0
O  O77  1  0.03423817  0.91649197  0.91117530  1  -1.242938  0  -0.227422  -0.590916  0  2.359907  0
O  O78  1  0.86502312  0.05524254  0.00508349  1  -1.403101  0  -0.453716  -0.981811  0  2.08378  0
O  O79  1  0.98000540  0.78219611  0.62408541  1  -1.134122  0  -0.360199  -0.447794  0  2.249981  0
O  O80  1  0.52853682  0.38811266  0.22076150  1  -1.130087  0  -0.376377  -0.483747  0  2.196325  0
O  O81  1  0.98832663  0.28263813  0.40005189  1  -1.277272  0  -0.287634  -0.512342  0  2.154733  0
O  O82  1  0.85455561  0.33555557  0.29636903  1  -1.302518  0  -0.279361  -0.507576  0  2.222444  0
O  O83  1  0.90654672  0.18154600  0.27902309  1  -1.220793  0  -0.354517  -0.552586  0  2.249756  0
O  O84  1  0.65898136  0.87708112  0.72941750  1  -1.145363  0  -0.345629  -0.429122  0  2.332821  0
O  O85  1  0.37607689  0.62932574  0.68854559  1  -1.285505  0  -0.272359  -0.498848  0  2.306795  0
O  O86  1  0.64653074  0.54863270  0.72561212  1  -1.25993  0  -0.274206  -0.470334  0  2.133065  0
O  O87  1  0.45112596  0.65248956  0.82043927  1  -1.243948  0  -0.358336  -0.553138  0  2.288977  0
O  O88  1  0.78091209  0.70341404  0.87744332  1  -1.127923  0  -0.340509  -0.437303  0  2.251966  0
O  O89  1  0.08898111  0.62697362  0.79443220  1  -1.181339  0  -0.369885  -0.477055  0  2.300947  0
O  O90  1  0.22203385  0.92224621  0.76004856  1  -1.277928  0  -0.302395  -0.506075  0  2.091393  0
O  O91  1  0.39061842  0.82691231  0.82509394  1  -1.295157  0  -0.290193  -0.520435  0  2.269013  0
O  O92  1  0.35050292  0.78741903  0.68439972  1  -1.231369  0  -0.365753  -0.574136  0  2.26563  0
O  O93  1  0.23384295  0.10766552  0.28092653  1  -1.125998  0  -0.344074  -0.45168  0  2.271405  0
O  O94  1  0.57466504  0.18655427  0.35158878  1  -1.152868  0  -0.386609  -0.492218  0  2.258418  0
