# generated using pymatgen
data_AlH6C24(NO3)6
_symmetry_space_group_name_H-M   'P 1'
_cell_length_a   3.94194217
_cell_length_b   29.12947295
_cell_length_c   29.12954227
_cell_angle_alpha   119.99824476
_cell_angle_beta   89.99855234
_cell_angle_gamma   89.99941613
_symmetry_Int_Tables_number   1
_chemical_formula_structural   AlH6C24(NO3)6
_chemical_formula_sum   'Al2 H12 C48 N12 O36'
_cell_volume   2896.77556871
_cell_formula_units_Z   2
loop_
 _symmetry_equiv_pos_site_id
 _symmetry_equiv_pos_as_xyz
  1  'x, y, z'
loop_
 _atom_site_type_symbol
 _atom_site_label
 _atom_site_symmetry_multiplicity
 _atom_site_fract_x
 _atom_site_fract_y
 _atom_site_fract_z
 _atom_site_occupancy
 _atom_site_pbe_bader_charge
 _atom_site_pbe_bader_spin_density
 _atom_site_pbe_cm5_charge
 _atom_site_pbe_ddec_charge
 _atom_site_pbe_ddec_spin_density
 _atom_site_pbe_ddec_sum_bond_order
 _atom_site_pbe_magmom
Al  Al0  1  0.00000479  0.49999850  0.50000286  1  2.50165  0  0.429378  1.586368  0  2.583862  0
Al  Al1  1  0.99961054  0.16666040  0.83334063  1  2.50189  0  0.428032  1.585535  0  2.585568  0
H  H2  1  0.45937005  0.16640047  0.68524797  1  0.110516  0  0.131148  0.15034  0  0.961223  0
H  H3  1  0.54016410  0.31477297  0.83360274  1  0.110566  0  0.13108  0.150311  0  0.961444  0
H  H4  1  0.54038850  0.35188534  0.49972583  1  0.093032  0  0.13069  0.149622  0  0.961661  0
H  H5  1  0.45966826  0.50025880  0.64810308  1  0.093067  0  0.130618  0.14951  0  0.961885  0
H  H6  1  0.45937204  0.01881673  0.83359310  1  0.170653  0  0.13108  0.150262  0  0.961246  0
H  H7  1  0.54010211  0.01882476  0.68522806  1  0.120549  0  0.131054  0.150254  0  0.961217  0
H  H8  1  0.54036677  0.64783362  0.64810455  1  0.126931  0  0.130691  0.149604  0  0.961711  0
H  H9  1  0.45967641  0.64783230  0.49972631  1  0.125765  0  0.130733  0.149753  0  0.961612  0
H  H10  1  0.45939859  0.31476125  0.98116612  1  0.120134  0  0.131103  0.1504  0  0.961336  0
H  H11  1  0.54018903  0.16640794  0.98119948  1  0.171253  0  0.131011  0.150226  0  0.961243  0
H  H12  1  0.54036103  0.50028848  0.35217474  1  0.125848  0  0.130839  0.149882  0  0.9618  0
H  H13  1  0.45967016  0.35190673  0.35216867  1  0.1281  0  0.130692  0.149625  0  0.961617  0
C  C14  1  0.50002357  0.45923921  0.41846505  1  1.552972  0  0.284455  0.662666  0  4.052989  0
C  C15  1  0.50002004  0.45922303  0.54076812  1  1.548968  0  0.284783  0.662958  0  4.053476  0
C  C16  1  0.50001306  0.58153788  0.54077027  1  1.552855  0  0.284656  0.662987  0  4.053309  0
C  C17  1  0.49963334  0.20745110  0.79257593  1  1.582887  0  0.282062  0.662199  0  4.054027  0
C  C18  1  0.49961749  0.08510855  0.79255204  1  1.584121  0  0.281917  0.661894  0  4.053966  0
C  C19  1  0.49963489  0.20743041  0.91489312  1  1.583725  0  0.282052  0.661993  0  4.053903  0
C  C20  1  0.49977956  0.23696021  0.76304911  1  -0.118167  0  0.000396  -0.002793  0  3.956872  0
C  C21  1  0.47823784  0.20944935  0.70775146  1  0.139207  0  -0.063818  -0.136873  0  3.932508  0
C  C22  1  0.49610613  0.23726413  0.68066243  1  0.283064  0  0.09252  0.04156  0  3.884441  0
C  C23  1  0.49978519  0.29339737  0.70660534  1  0.066239  0  0.026593  0.056332  0  4.054396  0
C  C24  1  0.50343976  0.31934789  0.76273496  1  0.282334  0  0.092835  0.041967  0  3.883434  0
C  C25  1  0.52132534  0.29226451  0.79055893  1  0.139311  0  -0.063944  -0.137147  0  3.931877  0
C  C26  1  0.49984252  0.32126598  0.67872382  1  -0.264972  0  -0.016493  -0.039967  0  4.058271  0
C  C27  1  0.49980326  0.34538741  0.65458878  1  0.09484  0  -0.013146  -0.033178  0  4.055944  0
C  C28  1  0.49987581  0.37326315  0.62671797  1  0.196249  0  0.024826  0.051593  0  4.057088  0
C  C29  1  0.50335224  0.34733177  0.57059321  1  0.258519  0  0.092757  0.042684  0  3.885527  0
C  C30  1  0.52141088  0.37440984  0.54277025  1  0.008984  0  -0.063166  -0.135711  0  3.932481  0
C  C31  1  0.50000828  0.42970794  0.57027826  1  0.129493  0  -0.000267  -0.003884  0  3.959214  0
C  C32  1  0.47856358  0.45721455  0.62557763  1  0.009498  0  -0.063152  -0.135668  0  3.93294  0
C  C33  1  0.49652027  0.42938729  0.65265218  1  0.259311  0  0.092905  0.042836  0  3.885605  0
C  C34  1  0.49977200  0.02607327  0.76303678  1  0.041945  0  0.000299  -0.002667  0  3.957044  0
C  C35  1  0.47824985  0.99827915  0.79054488  1  -0.007917  0  -0.063885  -0.137065  0  3.932391  0
C  C36  1  0.49610852  0.94337566  0.76272468  1  0.179349  0  0.093028  0.042182  0  3.883667  0
C  C37  1  0.49974999  0.91318952  0.70659106  1  0.283365  0  0.026452  0.056399  0  4.054127  0
C  C38  1  0.50336876  0.94337977  0.68064668  1  0.123647  0  0.092847  0.042109  0  3.88294  0
C  C39  1  0.52126411  0.99828229  0.70773649  1  0.108382  0  -0.063836  -0.13711  0  3.931998  0
C  C40  1  0.49982812  0.85744272  0.67871484  1  -0.067318  0  -0.016842  -0.040937  0  4.05904  0
C  C41  1  0.49980671  0.80918342  0.65458481  1  -0.108505  0  -0.012831  -0.032304  0  4.055606  0
C  C42  1  0.49988737  0.75344170  0.62671724  1  0.2721  0  0.0249  0.051378  0  4.057896  0
C  C43  1  0.50336155  0.72325045  0.65265229  1  0.267738  0  0.092808  0.042739  0  3.886005  0
C  C44  1  0.52141803  0.66835315  0.62557838  1  0.056197  0  -0.063122  -0.135738  0  3.933159  0
C  C45  1  0.50001077  0.64056086  0.57027997  1  0.040502  0  -0.00027  -0.003583  0  3.959143  0
C  C46  1  0.47856852  0.66835208  0.54276980  1  -0.066926  0  -0.063232  -0.136057  0  3.932952  0
C  C47  1  0.49651454  0.72325173  0.57059367  1  0.230431  0  0.09283  0.042956  0  3.885997  0
C  C48  1  0.49980348  0.23695464  0.97392891  1  0.041549  0  0.000482  -0.002126  0  3.956576  0
C  C49  1  0.47826362  0.29225916  0.00171094  1  0.109429  0  -0.063895  -0.137428  0  3.932163  0
C  C50  1  0.49611432  0.31935134  0.05661369  1  0.124046  0  0.092802  0.042039  0  3.883846  0
C  C51  1  0.49978075  0.29341846  0.08681346  1  0.293832  0  0.026484  0.05639  0  4.053909  0
C  C52  1  0.50342841  0.23728035  0.05663444  1  0.178713  0  0.092964  0.042181  0  3.882572  0
C  C53  1  0.52131140  0.20946113  0.00173284  1  -0.007839  0  -0.063971  -0.137376  0  3.93255  0
C  C54  1  0.49983554  0.32130003  0.14256507  1  -0.078671  0  -0.016629  -0.040584  0  4.059557  0
C  C55  1  0.49977446  0.34542992  0.19081342  1  -0.108655  0  -0.013001  -0.03262  0  4.055904  0
C  C56  1  0.49983687  0.37330085  0.24656469  1  0.271429  0  0.024928  0.051624  0  4.05702  0
C  C57  1  0.50331513  0.42942297  0.27675348  1  0.244355  0  0.092538  0.04245  0  3.886196  0
C  C58  1  0.52139665  0.45724482  0.33165572  1  -0.080994  0  -0.063203  -0.136126  0  3.933307  0
C  C59  1  0.49999197  0.42973212  0.35944165  1  0.040556  0  -0.000271  -0.003357  0  3.959215  0
C  C60  1  0.47854515  0.37443514  0.33165056  1  0.007848  0  -0.063274  -0.136117  0  3.932658  0
C  C61  1  0.49648392  0.34736135  0.27674914  1  0.315333  0  0.093007  0.043078  0  3.885844  0
N  N62  1  0.48077584  0.37785570  0.79482584  1  0.397207  0  0.062571  0.510347  0  4.213957  0
N  N63  1  0.51886536  0.20517397  0.62216021  1  0.402076  0  0.062683  0.51023  0  4.215368  0
N  N64  1  0.51915744  0.46145155  0.71113957  1  0.40008  0  0.062249  0.510048  0  4.217799  0
N  N65  1  0.48077704  0.28884284  0.53853037  1  0.39899  0  0.06224  0.50992  0  4.217444  0
N  N66  1  0.48072378  0.91696596  0.62213874  1  0.411415  0  0.062239  0.509758  0  4.213959  0
N  N67  1  0.51884915  0.91695374  0.79480987  1  0.424394  0  0.062208  0.509394  0  4.215649  0
N  N68  1  0.51913986  0.74967787  0.53853012  1  0.40321  0  0.062375  0.510031  0  4.217634  0
N  N69  1  0.48078010  0.74967658  0.71114127  1  0.39466  0  0.062373  0.510225  0  4.217446  0
N  N70  1  0.48082156  0.20520238  0.08306877  1  0.424569  0  0.062568  0.510116  0  4.213894  0
N  N71  1  0.51885999  0.37785551  0.08301564  1  0.411734  0  0.062529  0.509747  0  4.215251  0
N  N72  1  0.51913211  0.28887435  0.25032706  1  0.395066  0  0.062442  0.510509  0  4.217394  0
N  N73  1  0.48077419  0.46148719  0.25032763  1  0.404346  0  0.062515  0.510301  0  4.217711  0
O  O74  1  0.73507980  0.55830706  0.55147679  1  -1.252945  0  -0.233475  -0.58966  0  2.34757  0
O  O75  1  0.73510739  0.49317133  0.44169361  1  -1.2582  0  -0.233338  -0.58949  0  2.347423  0
O  O76  1  0.73510561  0.44851966  0.50683366  1  -1.250964  0  -0.233435  -0.589456  0  2.347698  0
O  O77  1  0.26491462  0.55831052  0.50683698  1  -1.257386  0  -0.233529  -0.589715  0  2.347522  0
O  O78  1  0.26492053  0.49315862  0.55147526  1  -1.250502  0  -0.233613  -0.589705  0  2.347618  0
O  O79  1  0.26493215  0.44852954  0.44169541  1  -1.252856  0  -0.233474  -0.589614  0  2.34739  0
O  O80  1  0.73461124  0.17347994  0.89164351  1  -1.254879  0  -0.232185  -0.589454  0  2.347523  0
O  O81  1  0.73459272  0.21814641  0.82652024  1  -1.253827  0  -0.232137  -0.589334  0  2.347817  0
O  O82  1  0.73462107  0.10835602  0.78185470  1  -1.255149  0  -0.232253  -0.589344  0  2.347526  0
O  O83  1  0.26449111  0.21813070  0.89166759  1  -1.254581  0  -0.232036  -0.588878  0  2.347379  0
O  O84  1  0.26448581  0.10833236  0.82648090  1  -1.254191  0  -0.231812  -0.588722  0  2.347079  0
O  O85  1  0.26447482  0.17352383  0.78187308  1  -1.253565  0  -0.232093  -0.588984  0  2.346838  0
O  O86  1  0.28200643  0.39972125  0.77912333  1  -0.394866  0  -0.095355  -0.279303  0  1.97251  0
O  O87  1  0.65601238  0.39945570  0.83544403  1  -0.414678  0  -0.113182  -0.29993  0  1.878788  0
O  O88  1  0.71777888  0.22088015  0.60031314  1  -0.397655  0  -0.095363  -0.279047  0  1.972666  0
O  O89  1  0.34366076  0.16455341  0.60054669  1  -0.416629  0  -0.113213  -0.299995  0  1.879614  0
O  O90  1  0.71784235  0.44571249  0.73298598  1  -0.410063  0  -0.095054  -0.279622  0  1.973199  0
O  O91  1  0.34402966  0.50207922  0.73275251  1  -0.417897  0  -0.113141  -0.299808  0  1.880216  0
O  O92  1  0.28212306  0.26698941  0.55426666  1  -0.409643  0  -0.095081  -0.279561  0  1.972583  0
O  O93  1  0.65595406  0.26723231  0.49790656  1  -0.417695  0  -0.113135  -0.299785  0  1.880159  0
O  O94  1  0.28198500  0.87939489  0.60027226  1  -0.408204  0  -0.09507  -0.278838  0  1.972321  0
O  O95  1  0.65596101  0.93598705  0.60053881  1  -0.41846  0  -0.113167  -0.299841  0  1.87873  0
O  O96  1  0.71766511  0.87938866  0.77909259  1  -0.4171  0  -0.095168  -0.278679  0  1.972835  0
O  O97  1  0.34365954  0.93596102  0.83543482  1  -0.417674  0  -0.113051  -0.299705  0  1.879688  0
O  O98  1  0.71781831  0.78726365  0.55426662  1  -0.408418  0  -0.095163  -0.279756  0  1.973179  0
O  O99  1  0.34400723  0.73066583  0.49790342  1  -0.420598  0  -0.113189  -0.299795  0  1.880124  0
O  O100  1  0.28212340  0.78726598  0.73299344  1  -0.409722  0  -0.095121  -0.279735  0  1.973132  0
O  O101  1  0.65595389  0.73066381  0.73275244  1  -0.415624  0  -0.113259  -0.299946  0  1.880103  0
O  O102  1  0.28211856  0.22091997  0.12064785  1  -0.416801  0  -0.095226  -0.278976  0  1.972511  0
O  O103  1  0.65602521  0.16457901  0.06405500  1  -0.418031  0  -0.11335  -0.300093  0  1.878898  0
O  O104  1  0.71773490  0.39970916  0.12056995  1  -0.407367  0  -0.095326  -0.278842  0  1.972804  0
O  O105  1  0.34365035  0.39946342  0.06400118  1  -0.419386  0  -0.113203  -0.299878  0  1.879365  0
O  O106  1  0.71783280  0.26703026  0.21274200  1  -0.409305  0  -0.095186  -0.280036  0  1.973139  0
O  O107  1  0.34401952  0.26725738  0.26934063  1  -0.415782  0  -0.113243  -0.299919  0  1.879997  0
O  O108  1  0.28214260  0.44575148  0.21273705  1  -0.409346  0  -0.095124  -0.27983  0  1.972987  0
O  O109  1  0.65597649  0.50210644  0.26933625  1  -0.421069  0  -0.113272  -0.299818  0  1.880202  0
