# generated using pymatgen
data_CdH26C30(NO)4
_symmetry_space_group_name_H-M   'P 1'
_cell_length_a   10.07898672
_cell_length_b   11.16604753
_cell_length_c   11.50401844
_cell_angle_alpha   88.44897282
_cell_angle_beta   89.18997546
_cell_angle_gamma   83.14877726
_symmetry_Int_Tables_number   1
_chemical_formula_structural   CdH26C30(NO)4
_chemical_formula_sum   'Cd2 H52 C60 N8 O8'
_cell_volume   1284.89673028
_cell_formula_units_Z   2
loop_
 _symmetry_equiv_pos_site_id
 _symmetry_equiv_pos_as_xyz
  1  'x, y, z'
loop_
 _atom_site_type_symbol
 _atom_site_label
 _atom_site_symmetry_multiplicity
 _atom_site_fract_x
 _atom_site_fract_y
 _atom_site_fract_z
 _atom_site_occupancy
 _atom_site_hle17_bader_spin_density
 _atom_site_hle17_ddec_charge
 _atom_site_hle17_ddec_spin_density
 _atom_site_hle17_ddec_sum_bond_order
 _atom_site_hle17_magmom
 _atom_site_hse06_10hf_bader_spin_density
 _atom_site_hse06_10hf_ddec_charge
 _atom_site_hse06_10hf_ddec_spin_density
 _atom_site_hse06_10hf_ddec_sum_bond_order
 _atom_site_hse06_10hf_magmom
 _atom_site_hse06_bader_spin_density
 _atom_site_hse06_ddec_charge
 _atom_site_hse06_ddec_spin_density
 _atom_site_hse06_ddec_sum_bond_order
 _atom_site_hse06_magmom
 _atom_site_pbe_bader_spin_density
 _atom_site_pbe_cm5_charge
 _atom_site_pbe_ddec_charge
 _atom_site_pbe_ddec_spin_density
 _atom_site_pbe_ddec_sum_bond_order
 _atom_site_pbe_magmom
Cd  Cd0  1  0.76951146  0.23720862  0.29445595  1  0  1.1083  0  1.657506  0  0  0.918026  0  2.094873  0  0  0.975169  0  2.046044  0  0  0.779601  0.873147  0  2.131525  0
Cd  Cd1  1  0.23048954  0.76279383  0.70554538  1  0  1.108315  0  1.657567  0  0  0.918051  0  2.094944  0  0  0.975192  0  2.046113  0  0  0.779618  0.873179  0  2.131599  0
H  H2  1  0.58702678  0.06144800  0.40733764  1  0  0.150361  0  0.963039  0  0  0.170961  0  1.019971  0  0  0.173485  0  1.018581  0  0  0.104452  0.169105  0  1.020963  0
H  H3  1  0.41296869  0.93855083  0.59265867  1  0  0.15038  0  0.963058  0  0  0.170979  0  1.019985  0  0  0.173505  0  1.018594  0  0  0.104471  0.169124  0  1.020981  0
H  H4  1  0.66545022  0.91872400  0.46183964  1  0  0.131742  0  0.926669  0  0  0.154448  0  0.980855  0  0  0.156524  0  0.980039  0  0  0.101332  0.152988  0  0.981395  0
H  H5  1  0.33454316  0.08127577  0.53815927  1  0  0.131725  0  0.92673  0  0  0.154422  0  0.980928  0  0  0.156498  0  0.980113  0  0  0.10131  0.152962  0  0.981464  0
H  H6  1  0.52142077  0.92615174  0.37405076  1  0  0.12652  0  0.941165  0  0  0.147228  0  1.000901  0  0  0.149129  0  1.000637  0  0  0.099769  0.145928  0  1.00095  0
H  H7  1  0.47857943  0.07384886  0.62594281  1  0  0.126485  0  0.941114  0  0  0.14719  0  1.000857  0  0  0.14909  0  1.000595  0  0  0.099749  0.145889  0  1.000905  0
H  H8  1  0.90848582  0.05111221  0.09464596  1  0  0.106239  0  0.945709  0  0  0.118837  0  1.00002  0  0  0.121071  0  0.999392  0  0  0.118766  0.11712  0  1.000568  0
H  H9  1  0.09151494  0.94889204  0.90535531  1  0  0.10629  0  0.945684  0  0  0.118872  0  1.000015  0  0  0.121106  0  0.999387  0  0  0.118767  0.117159  0  1.000552  0
H  H10  1  0.84035634  0.82011292  0.05761864  1  0  0.113233  0  0.963965  0  0  0.123821  0  1.024743  0  0  0.125769  0  1.024705  0  0  0.119454  0.1223  0  1.025049  0
H  H11  1  0.15965470  0.17988858  0.94238342  1  0  0.113228  0  0.963914  0  0  0.12382  0  1.02469  0  0  0.125768  0  1.024651  0  0  0.119429  0.1223  0  1.024992  0
H  H12  1  0.65843185  0.70451802  0.14730538  1  0  0.089705  0  0.925668  0  0  0.105227  0  0.985598  0  0  0.105614  0  0.986239  0  0  0.114038  0.104911  0  0.985231  0
H  H13  1  0.34157323  0.29548350  0.85269417  1  0  0.089765  0  0.925531  0  0  0.105249  0  0.98554  0  0  0.105637  0  0.986184  0  0  0.114034  0.104925  0  0.98517  0
H  H14  1  0.56649951  0.76319766  0.26997224  1  0  0.080711  0  0.94365  0  0  0.091649  0  1.014018  0  0  0.092371  0  1.014333  0  0  0.111419  0.091043  0  1.014135  0
H  H15  1  0.43350899  0.23680023  0.73002649  1  0  0.08065  0  0.94369  0  0  0.09161  0  1.01406  0  0  0.092332  0  1.014375  0  0  0.111383  0.090997  0  1.014174  0
H  H16  1  0.64463134  0.70415751  0.46984614  1  0  0.094079  0  0.965905  0  0  0.104021  0  1.030726  0  0  0.106779  0  1.029992  0  0  0.09895  0.101832  0  1.031798  0
H  H17  1  0.35537142  0.29583858  0.53014840  1  0  0.094137  0  0.965897  0  0  0.104089  0  1.030701  0  0  0.106845  0  1.029967  0  0  0.098966  0.101874  0  1.031797  0
H  H18  1  0.80782818  0.59179730  0.59737860  1  0  0.081446  0  0.9985  0  0  0.091371  0  1.064856  0  0  0.093217  0  1.064941  0  0  0.095568  0.090052  0  1.064737  0
H  H19  1  0.19216998  0.40819614  0.40262218  1  0  0.081485  0  0.998585  0  0  0.091429  0  1.064906  0  0  0.093264  0  1.065004  0  0  0.095602  0.09011  0  1.064779  0
H  H20  1  0.05968668  0.49103761  0.30095455  1  0  0.082597  0  0.990013  0  0  0.094182  0  1.05244  0  0  0.096001  0  1.052889  0  0  0.096551  0.092913  0  1.051993  0
H  H21  1  0.94031655  0.50895490  0.69904531  1  0  0.082579  0  0.990079  0  0  0.094183  0  1.052476  0  0  0.096004  0  1.052924  0  0  0.096531  0.092914  0  1.05203  0
H  H22  1  0.89576964  0.60375233  0.17356300  1  0  0.082508  0  0.980681  0  0  0.094766  0  1.045725  0  0  0.096467  0  1.045763  0  0  0.096812  0.093477  0  1.045817  0
H  H23  1  0.10423523  0.39624287  0.82643501  1  0  0.082492  0  0.98069  0  0  0.094763  0  1.045718  0  0  0.096463  0  1.045756  0  0  0.096814  0.093486  0  1.045797  0
H  H24  1  0.99405922  0.15152686  0.47699261  1  0  0.154767  0  0.963617  0  0  0.17472  0  1.021316  0  0  0.177503  0  1.019364  0  0  0.104599  0.172731  0  1.022618  0
H  H25  1  0.00593750  0.84847020  0.52301068  1  0  0.154799  0  0.963702  0  0  0.174748  0  1.02138  0  0  0.177532  0  1.019428  0  0  0.104584  0.172759  0  1.022681  0
H  H26  1  0.94187745  0.06202767  0.59686406  1  0  0.132063  0  0.933426  0  0  0.153563  0  0.990766  0  0  0.155747  0  0.989652  0  0  0.09991  0.152138  0  0.991333  0
H  H27  1  0.05812113  0.93797029  0.40313831  1  0  0.132128  0  0.93333  0  0  0.153608  0  0.990679  0  0  0.155798  0  0.989559  0  0  0.099932  0.152185  0  0.991244  0
H  H28  1  0.03614996  0.18311329  0.62136117  1  0  0.129112  0  0.960533  0  0  0.145298  0  1.027067  0  0  0.146861  0  1.028233  0  0  0.096878  0.144177  0  1.026344  0
H  H29  1  0.96384598  0.81688196  0.37863959  1  0  0.12909  0  0.96061  0  0  0.145296  0  1.027082  0  0  0.146851  0  1.028287  0  0  0.096866  0.144182  0  1.02635  0
H  H30  1  0.57296649  0.40138805  0.47290293  1  0  0.104539  0  0.954573  0  0  0.116335  0  1.011663  0  0  0.118378  0  1.011002  0  0  0.118579  0.114796  0  1.012305  0
H  H31  1  0.42703354  0.59861445  0.52710797  1  0  0.104526  0  0.954654  0  0  0.116317  0  1.011745  0  0  0.118361  0  1.011083  0  0  0.118551  0.114779  0  1.012384  0
H  H32  1  0.60065350  0.40773367  0.71338549  1  0  0.118931  0  0.95655  0  0  0.130754  0  1.014483  0  0  0.13295  0  1.014283  0  0  0.122252  0.128979  0  1.01506  0
H  H33  1  0.39934734  0.59226251  0.28662646  1  0  0.118785  0  0.956573  0  0  0.130671  0  1.014444  0  0  0.132867  0  1.014243  0  0  0.122196  0.128894  0  1.015017  0
H  H34  1  0.82859090  0.33748070  0.83988113  1  0  0.084005  0  0.927662  0  0  0.099988  0  0.989124  0  0  0.100171  0  0.98962  0  0  0.111494  0.099721  0  0.988902  0
H  H35  1  0.17141236  0.66251185  0.16012568  1  0  0.084031  0  0.927602  0  0  0.100019  0  0.989068  0  0  0.100202  0  0.989563  0  0  0.111493  0.099751  0  0.988845  0
H  H36  1  0.92474640  0.20648982  0.78685983  1  0  0.079474  0  0.948029  0  0  0.092381  0  1.017517  0  0  0.092945  0  1.018055  0  0  0.111521  0.092018  0  1.017206  0
H  H37  1  0.07525433  0.79349911  0.21314453  1  0  0.079492  0  0.947965  0  0  0.09243  0  1.017444  0  0  0.092994  0  1.017982  0  0  0.111536  0.092068  0  1.017134  0
H  H38  1  0.75673296  0.03198975  0.73284532  1  0  0.093328  0  0.950536  0  0  0.107056  0  1.007134  0  0  0.109923  0  1.005672  0  0  0.100902  0.105087  0  1.007915  0
H  H39  1  0.24327561  0.96800008  0.26716497  1  0  0.093256  0  0.950603  0  0  0.107022  0  1.007153  0  0  0.109888  0  1.005693  0  0  0.100879  0.105053  0  1.007932  0
H  H40  1  0.59801051  0.91298070  0.82799579  1  0  0.091258  0  0.988864  0  0  0.10172  0  1.052492  0  0  0.103898  0  1.052156  0  0  0.098256  0.100097  0  1.052805  0
H  H41  1  0.40198997  0.08701818  0.17201261  1  0  0.091326  0  0.988772  0  0  0.101783  0  1.052397  0  0  0.103961  0  1.052062  0  0  0.098294  0.100158  0  1.05271  0
H  H42  1  0.52313390  0.18143140  0.09090539  1  0  0.079066  0  1.014466  0  0  0.089646  0  1.079009  0  0  0.091136  0  1.079398  0  0  0.095931  0.088546  0  1.078736  0
H  H43  1  0.47685262  0.81857561  0.90909514  1  0  0.079066  0  1.014555  0  0  0.089638  0  1.079095  0  0  0.09113  0  1.079482  0  0  0.095919  0.088538  0  1.078823  0
H  H44  1  0.68001379  0.30215766  0.99417108  1  0  0.099967  0  0.969765  0  0  0.110782  0  1.033491  0  0  0.113155  0  1.032895  0  0  0.101203  0.10897  0  1.034171  0
H  H45  1  0.31997871  0.69784120  0.00582701  1  0  0.100011  0  0.969624  0  0  0.110808  0  1.033365  0  0  0.113174  0  1.03278  0  0  0.101189  0.108998  0  1.034044  0
H  H46  1  0.44825302  0.48362666  0.07003215  1  0  0.093199  0  0.971715  0  0  0.103477  0  1.035609  0  0  0.10691  0  1.032735  0  0  0.101493  0.100922  0  1.037781  0
H  H47  1  0.55174396  0.51638390  0.92996550  1  0  0.093252  0  0.971706  0  0  0.103527  0  1.035594  0  0  0.106959  0  1.032721  0  0  0.101539  0.100972  0  1.037763  0
H  H48  1  0.23939619  0.52030213  0.95051150  1  0  0.114997  0  0.9549  0  0  0.122729  0  1.01828  0  0  0.126842  0  1.015468  0  0  0.105043  0.119798  0  1.020344  0
H  H49  1  0.76060158  0.47970212  0.04948633  1  0  0.114952  0  0.954944  0  0  0.122702  0  1.018314  0  0  0.126816  0  1.015502  0  0  0.105016  0.119771  0  1.020378  0
H  H50  1  0.04243505  0.41297256  0.00914258  1  0  0.092323  0  0.976838  0  0  0.101195  0  1.043775  0  0  0.104576  0  1.040877  0  0  0.100983  0.098688  0  1.046008  0
H  H51  1  0.95756580  0.58703075  0.99085176  1  0  0.09232  0  0.976818  0  0  0.101205  0  1.043734  0  0  0.104584  0  1.040838  0  0  0.100977  0.098698  0  1.045965  0
H  H52  1  0.26400254  0.23487718  0.29202663  1  0  0.11368  0  0.942341  0  0  0.120888  0  1.006986  0  0  0.12574  0  1.002171  0  0  0.1089  0.117469  0  1.010406  0
H  H53  1  0.73599743  0.76512522  0.70796602  1  0  0.113639  0  0.942457  0  0  0.120904  0  1.007051  0  0  0.125719  0  1.002282  0  0  0.10889  0.117484  0  1.01048  0
C  C54  1  0.61411842  0.96637721  0.38720167  1  0  -0.397362  0  3.708108  0  0  -0.478484  0  3.944145  0  0  -0.482653  0  3.949614  0  0  -0.23331  -0.475315  0  3.940089  0
C  C55  1  0.38587968  0.03362431  0.61279364  1  0  -0.397306  0  3.708138  0  0  -0.478409  0  3.944148  0  0  -0.482579  0  3.949619  0  0  -0.233276  -0.475241  0  3.940095  0
C  C56  1  0.69983896  0.95844885  0.28124102  1  0  0.378785  0  3.683828  0  0  0.354614  0  3.952344  0  0  0.370893  0  3.967621  0  0  0.220697  0.343783  0  3.94127  0
C  C57  1  0.30016458  0.04154907  0.71875867  1  0  0.378737  0  3.683886  0  0  0.354566  0  3.952397  0  0  0.370848  0  3.967673  0  0  0.220666  0.343727  0  3.941339  0
C  C58  1  0.84374291  0.99762235  0.14448553  1  0  0.011819  0  3.780238  0  0  -0.025318  0  4.05235  0  0  -0.022198  0  4.072298  0  0  -0.005487  -0.027642  0  4.038821  0
C  C59  1  0.15625774  0.00238282  0.85551745  1  0  0.011728  0  3.780287  0  0  -0.025397  0  4.052394  0  0  -0.022279  0  4.072346  0  0  -0.00553  -0.027719  0  4.038866  0
C  C60  1  0.81120340  0.88407545  0.12521562  1  0  -0.069808  0  3.694416  0  0  -0.111049  0  3.960131  0  0  -0.109594  0  3.978947  0  0  -0.004854  -0.112424  0  3.9482  0
C  C61  1  0.18880566  0.11592606  0.87478647  1  0  -0.069726  0  3.694432  0  0  -0.11097  0  3.960126  0  0  -0.109515  0  3.978945  0  0  -0.004781  -0.112345  0  3.948192  0
C  C62  1  0.66728218  0.74483074  0.23235870  1  0  -0.034814  0  3.649481  0  0  -0.099491  0  3.894333  0  0  -0.094551  0  3.904064  0  0  -0.0465  -0.103118  0  3.888437  0
C  C63  1  0.33272364  0.25517256  0.76763731  1  0  -0.034721  0  3.649284  0  0  -0.09945  0  3.894229  0  0  -0.094515  0  3.903961  0  0  -0.046471  -0.103045  0  3.888294  0
C  C64  1  0.75902067  0.66443486  0.31170127  1  0  0.061693  0  3.766736  0  0  0.081105  0  4.003699  0  0  0.080628  0  4.02752  0  0  -0.016683  0.081611  0  3.988026  0
C  C65  1  0.24098361  0.33556482  0.68829052  1  0  0.061771  0  3.766642  0  0  0.081205  0  4.003615  0  0  0.080732  0  4.027434  0  0  -0.016707  0.081703  0  3.987933  0
C  C66  1  0.73594253  0.65803298  0.43178639  1  0  -0.124458  0  3.758519  0  0  -0.141402  0  4.001349  0  0  -0.144664  0  4.023506  0  0  -0.093235  -0.139427  0  3.987195  0
C  C67  1  0.26405747  0.34196131  0.56820564  1  0  -0.124606  0  3.758657  0  0  -0.141548  0  4.001463  0  0  -0.144818  0  4.023635  0  0  -0.09326  -0.139552  0  3.987306  0
C  C68  1  0.82962208  0.59359437  0.50462809  1  0  -0.089576  0  3.732351  0  0  -0.109333  0  3.977961  0  0  -0.111515  0  4.000141  0  0  -0.087617  -0.107998  0  3.963135  0
C  C69  1  0.17037572  0.40640175  0.49536826  1  0  -0.089579  0  3.732511  0  0  -0.109349  0  3.978084  0  0  -0.111526  0  4.000268  0  0  -0.087679  -0.108011  0  3.963252  0
C  C70  1  0.94956765  0.53307554  0.46103138  1  0  0.054328  0  3.752606  0  0  0.068643  0  3.983653  0  0  0.068739  0  4.007134  0  0  -0.005865  0.068503  0  3.967967  0
C  C71  1  0.05043548  0.46691789  0.53897106  1  0  0.054199  0  3.752782  0  0  0.06854  0  3.983798  0  0  0.068636  0  4.007279  0  0  -0.00591  0.068396  0  3.968111  0
C  C72  1  0.96972835  0.53776023  0.33987920  1  0  -0.100512  0  3.740925  0  0  -0.121539  0  3.991217  0  0  -0.12396  0  4.012868  0  0  -0.091482  -0.119526  0  3.976414  0
C  C73  1  0.03027178  0.46223318  0.66011807  1  0  -0.100344  0  3.741027  0  0  -0.121384  0  3.991282  0  0  -0.123803  0  4.01293  0  0  -0.091398  -0.119372  0  3.976488  0
C  C74  1  0.87650426  0.60186635  0.26695560  1  0  -0.11623  0  3.763734  0  0  -0.136285  0  4.013786  0  0  -0.138622  0  4.035632  0  0  -0.096139  -0.13479  0  3.999157  0
C  C75  1  0.12350073  0.39812795  0.73304243  1  0  -0.116401  0  3.763766  0  0  -0.136471  0  4.013837  0  0  -0.138808  0  4.035683  0  0  -0.096209  -0.134988  0  3.999206  0
C  C76  1  0.95782591  0.15378520  0.56722293  1  0  -0.406191  0  3.697941  0  0  -0.485039  0  3.931102  0  0  -0.489767  0  3.936815  0  0  -0.235586  -0.481623  0  3.927094  0
C  C77  1  0.04216971  0.84621277  0.43278123  1  0  -0.406281  0  3.697991  0  0  -0.485136  0  3.931152  0  0  -0.489879  0  3.936841  0  0  -0.235569  -0.481717  0  3.927141  0
C  C78  1  0.83320217  0.23882837  0.57413158  1  0  0.379939  0  3.688939  0  0  0.356371  0  3.955702  0  0  0.373227  0  3.970715  0  0  0.221688  0.345126  0  3.945417  0
C  C79  1  0.16679567  0.76116779  0.42587346  1  0  0.379866  0  3.688926  0  0  0.356439  0  3.955621  0  0  0.373297  0  3.970632  0  0  0.221669  0.345193  0  3.945343  0
C  C80  1  0.64936613  0.35589388  0.52911622  1  0  0.015783  0  3.788723  0  0  -0.022098  0  4.061911  0  0  -0.018339  0  4.081605  0  0  -0.005704  -0.024635  0  4.04854  0
C  C81  1  0.35063676  0.64410949  0.47089200  1  0  0.015742  0  3.788852  0  0  -0.022128  0  4.06201  0  0  -0.018372  0  4.081705  0  0  -0.00571  -0.024664  0  4.048634  0
C  C82  1  0.66150377  0.35950888  0.64730581  1  0  -0.075391  0  3.691276  0  0  -0.117675  0  3.958263  0  0  -0.117113  0  3.977645  0  0  -0.006477  -0.118101  0  3.945588  0
C  C83  1  0.33849958  0.64049089  0.35270338  1  0  -0.075173  0  3.691121  0  0  -0.117427  0  3.958086  0  0  -0.116864  0  3.97747  0  0  -0.006322  -0.117847  0  3.945402  0
C  C84  1  0.82307036  0.25387006  0.79304351  1  0  -0.031816  0  3.651706  0  0  -0.098497  0  3.898508  0  0  -0.093394  0  3.908226  0  0  -0.046085  -0.101855  0  3.891974  0
C  C85  1  0.17693331  0.74612698  0.20696054  1  0  -0.031815  0  3.651465  0  0  -0.098491  0  3.898391  0  0  -0.093385  0  3.908105  0  0  -0.046077  -0.101846  0  3.891856  0
C  C86  1  0.72952734  0.17718784  0.85544245  1  0  0.057428  0  3.77262  0  0  0.079278  0  4.009513  0  0  0.078474  0  4.033728  0  0  -0.018257  0.079988  0  3.993087  0
C  C87  1  0.27047213  0.82281102  0.14456075  1  0  0.057309  0  3.772586  0  0  0.079152  0  4.009542  0  0  0.078352  0  4.033753  0  0  -0.018365  0.079859  0  3.99312  0
C  C88  1  0.70495686  0.06607415  0.81142134  1  0  -0.121068  0  3.763204  0  0  -0.141474  0  4.011023  0  0  -0.143612  0  4.032021  0  0  -0.096562  -0.139695  0  3.996073  0
C  C89  1  0.29504471  0.93392380  0.18858359  1  0  -0.120912  0  3.763054  0  0  -0.141335  0  4.010866  0  0  -0.143474  0  4.031865  0  0  -0.09649  -0.139558  0  3.995923  0
C  C90  1  0.61494475  0.99764522  0.86664169  1  0  -0.10349  0  3.735777  0  0  -0.122662  0  3.9857  0  0  -0.125395  0  4.007679  0  0  -0.091081  -0.120711  0  3.970417  0
C  C91  1  0.38505670  0.00235361  0.13335974  1  0  -0.103566  0  3.735931  0  0  -0.122763  0  3.985837  0  0  -0.125496  0  4.007816  0  0  -0.091093  -0.12081  0  3.970548  0
C  C92  1  0.54702252  0.03654174  0.96935591  1  0  0.047025  0  3.770943  0  0  0.05956  0  4.005572  0  0  0.060145  0  4.028388  0  0  -0.010797  0.059244  0  3.989985  0
C  C93  1  0.45296467  0.96345984  0.03064044  1  0  0.046943  0  3.771213  0  0  0.059588  0  4.005732  0  0  0.060175  0  4.028547  0  0  -0.010793  0.059275  0  3.990144  0
C  C94  1  0.57288354  0.14774879  0.01210163  1  0  -0.096937  0  3.744271  0  0  -0.117644  0  3.993793  0  0  -0.120142  0  4.016223  0  0  -0.092634  -0.115901  0  3.978502  0
C  C95  1  0.42711119  0.85224828  0.98790082  1  0  -0.096811  0  3.744418  0  0  -0.11753  0  3.993878  0  0  -0.120027  0  4.0163  0  0  -0.092553  -0.11579  0  3.97859  0
C  C96  1  0.66203581  0.21708826  0.95661474  1  0  -0.121053  0  3.75933  0  0  -0.140799  0  4.005793  0  0  -0.143672  0  4.028114  0  0  -0.095191  -0.138875  0  3.990862  0
C  C97  1  0.33795836  0.78291333  0.04338932  1  0  -0.12116  0  3.759337  0  0  -0.140885  0  4.005826  0  0  -0.143753  0  4.028149  0  0  -0.095202  -0.138959  0  3.990896  0
C  C98  1  0.49991950  0.32063329  0.24742119  1  0  0.603913  0  3.989647  0  0  0.559006  0  4.276746  0  0  0.592576  0  4.27125  0  0  0.181936  0.536148  0  4.279608  0
C  C99  1  0.50008246  0.67936911  0.75257230  1  0  0.603808  0  3.989679  0  0  0.558952  0  4.276698  0  0  0.592522  0  4.271198  0  0  0.181898  0.536097  0  4.279557  0
C  C100  1  0.37001065  0.35504013  0.18560165  1  0  -0.077114  0  3.77969  0  0  -0.051257  0  4.013818  0  0  -0.060154  0  4.036771  0  0  -0.023233  -0.045789  0  3.998991  0
C  C101  1  0.62999010  0.64496410  0.81439614  1  0  -0.077215  0  3.779874  0  0  -0.051371  0  4.014005  0  0  -0.060264  0  4.036943  0  0  -0.023264  -0.045902  0  3.999175  0
C  C102  1  0.36151615  0.43733635  0.09104504  1  0  -0.064495  0  3.726261  0  0  -0.093363  0  3.978894  0  0  -0.091104  0  3.996867  0  0  -0.083499  -0.094089  0  3.966368  0
C  C103  1  0.63848039  0.56266970  0.90895102  1  0  -0.064593  0  3.726098  0  0  -0.093459  0  3.978754  0  0  -0.091198  0  3.996723  0  0  -0.083571  -0.094183  0  3.966224  0
C  C104  1  0.24514872  0.45795548  0.02547923  1  0  -0.094751  0  3.766009  0  0  -0.105954  0  4.024134  0  0  -0.109432  0  4.042598  0  0  -0.09476  -0.103629  0  4.011235  0
C  C105  1  0.75485334  0.54204602  0.97451341  1  0  -0.094634  0  3.765774  0  0  -0.105854  0  4.023893  0  0  -0.109332  0  4.042359  0  0  -0.094684  -0.103527  0  4.010988  0
C  C106  1  0.13518018  0.39876390  0.05764907  1  0  -0.076949  0  3.739065  0  0  -0.104173  0  3.990811  0  0  -0.101937  0  4.008115  0  0  -0.086929  -0.105003  0  3.979015  0
C  C107  1  0.86482144  0.60124122  0.94234607  1  0  -0.077011  0  3.73925  0  0  -0.104227  0  3.991025  0  0  -0.101994  0  4.008333  0  0  -0.086922  -0.105054  0  3.979223  0
C  C108  1  0.13995958  0.32080029  0.15541302  1  0  -0.069045  0  3.773829  0  0  -0.041197  0  4.002575  0  0  -0.049636  0  4.024748  0  0  -0.021521  -0.036152  0  3.988441  0
C  C109  1  0.86003820  0.67920396  0.84458482  1  0  -0.068903  0  3.774037  0  0  -0.04111  0  4.00288  0  0  -0.049546  0  4.025045  0  0  -0.021523  -0.036069  0  3.98875  0
C  C110  1  0.25872768  0.29748846  0.21757463  1  0  -0.075488  0  3.713127  0  0  -0.109799  0  3.960098  0  0  -0.106788  0  3.976635  0  0  -0.076877  -0.111549  0  3.949773  0
C  C111  1  0.74126986  0.70251758  0.78242055  1  0  -0.0754  0  3.713339  0  0  -0.109745  0  3.960303  0  0  -0.106707  0  3.97686  0  0  -0.076839  -0.111491  0  3.949973  0
C  C112  1  0.01611190  0.27167815  0.20008467  1  0  0.613241  0  3.972997  0  0  0.56765  0  4.259022  0  0  0.60117  0  4.254635  0  0  0.183332  0.54492  0  4.260877  0
C  C113  1  0.98388488  0.72832609  0.79991232  1  0  0.613269  0  3.973052  0  0  0.56768  0  4.259085  0  0  0.6012  0  4.254699  0  0  0.183428  0.544952  0  4.260939  0
N  N114  1  0.77353643  0.04306103  0.24084029  1  0  -0.454329  0  3.226036  0  0  -0.37829  0  3.505635  0  0  -0.402034  0  3.522406  0  0  -0.361808  -0.361495  0  3.49345  0
N  N115  1  0.22646269  0.95694052  0.75916109  1  0  -0.454289  0  3.226059  0  0  -0.378236  0  3.505625  0  0  -0.401981  0  3.522401  0  0  -0.361782  -0.361442  0  3.493447  0
N  N116  1  0.71988098  0.86081750  0.21153465  1  0  -0.11559  0  3.520324  0  0  -0.024506  0  3.735884  0  0  -0.040618  0  3.761669  0  0  -0.239255  -0.013848  0  3.718622  0
N  N117  1  0.28012742  0.13918131  0.78846667  1  0  -0.115681  0  3.520352  0  0  -0.024553  0  3.735883  0  0  -0.040665  0  3.76167  0  0  -0.239216  -0.013899  0  3.718615  0
N  N118  1  0.75617626  0.28121742  0.48457304  1  0  -0.453888  0  3.228894  0  0  -0.37664  0  3.507075  0  0  -0.400771  0  3.52341  0  0  -0.361921  -0.359572  0  3.495199  0
N  N119  1  0.24382112  0.71878235  0.51543277  1  0  -0.453858  0  3.228963  0  0  -0.376651  0  3.507127  0  0  -0.400777  0  3.523454  0  0  -0.361911  -0.359582  0  3.495256  0
N  N120  1  0.77798676  0.28562360  0.67450954  1  0  -0.115422  0  3.527396  0  0  -0.025406  0  3.744609  0  0  -0.041483  0  3.770112  0  0  -0.242155  -0.014836  0  3.727416  0
N  N121  1  0.22201307  0.71437256  0.32549635  1  0  -0.115415  0  3.527103  0  0  -0.025621  0  3.744558  0  0  -0.041698  0  3.770059  0  0  -0.242217  -0.015046  0  3.727366  0
O  O122  1  0.60080450  0.37408958  0.21460326  1  0  -0.642639  0  1.932625  0  0  -0.576981  0  2.169031  0  0  -0.605299  0  2.159055  0  0  -0.342273  -0.555761  0  2.176375  0
O  O123  1  0.39919526  0.62591465  0.78539281  1  0  -0.642611  0  1.932682  0  0  -0.576955  0  2.169046  0  0  -0.605282  0  2.159097  0  0  -0.342281  -0.555732  0  2.176391  0
O  O124  1  0.50574150  0.23615312  0.32344037  1  0  -0.637705  0  1.939169  0  0  -0.585915  0  2.170543  0  0  -0.611353  0  2.162528  0  0  -0.332395  -0.567242  0  2.174849  0
O  O125  1  0.49425615  0.76385200  0.67655310  1  0  -0.637632  0  1.939176  0  0  -0.585872  0  2.17054  0  0  -0.611316  0  2.162539  0  0  -0.33237  -0.5672  0  2.174847  0
O  O126  1  0.02275630  0.20825711  0.29352042  1  0  -0.641338  0  1.935119  0  0  -0.587785  0  2.16666  0  0  -0.614238  0  2.158042  0  0  -0.336269  -0.568246  0  2.171161  0
O  O127  1  0.97724380  0.79174442  0.70647660  1  0  -0.641359  0  1.935174  0  0  -0.587806  0  2.166726  0  0  -0.614258  0  2.158104  0  0  -0.336299  -0.568266  0  2.171228  0
O  O128  1  0.90695611  0.30239609  0.14507605  1  0  -0.644576  0  1.940838  0  0  -0.581243  0  2.179771  0  0  -0.610131  0  2.171117  0  0  -0.339858  -0.559452  0  2.185938  0
O  O129  1  0.09303966  0.69761630  0.85492591  1  0  -0.644647  0  1.940889  0  0  -0.581322  0  2.179837  0  0  -0.610206  0  2.171182  0  0  -0.339936  -0.55953  0  2.186003  0
