# generated using pymatgen
data_NaB2H14C3NO
_symmetry_space_group_name_H-M   'P 1'
_cell_length_a   8.16893880
_cell_length_b   9.78576720
_cell_length_c   10.53017631
_cell_angle_alpha   91.47007167
_cell_angle_beta   97.95816077
_cell_angle_gamma   114.07755391
_symmetry_Int_Tables_number   1
_chemical_formula_structural   NaB2H14C3NO
_chemical_formula_sum   'Na4 B8 H56 C12 N4 O4'
_cell_volume   757.98742031
_cell_formula_units_Z   4
loop_
 _symmetry_equiv_pos_site_id
 _symmetry_equiv_pos_as_xyz
  1  'x, y, z'
loop_
 _atom_site_type_symbol
 _atom_site_label
 _atom_site_symmetry_multiplicity
 _atom_site_fract_x
 _atom_site_fract_y
 _atom_site_fract_z
 _atom_site_occupancy
 _atom_site_pbe_bader_spin_density
 _atom_site_pbe_cm5_charge
 _atom_site_pbe_ddec_charge
 _atom_site_pbe_ddec_spin_density
 _atom_site_pbe_ddec_sum_bond_order
 _atom_site_pbe_magmom
Na  Na0  1  0.45681214  0.30271548  0.02476028  1  0  0.661906  0.848398  0  0.53427  0
Na  Na1  1  0.54318924  0.69728500  0.97523985  1  0  0.661907  0.848394  0  0.534277  0
Na  Na2  1  0.41310070  0.00786583  0.65200268  1  0  0.659688  0.847418  0  0.537507  0
Na  Na3  1  0.58689888  0.99213352  0.34799723  1  0  0.659685  0.847418  0  0.5375  0
B  B4  1  0.62410166  0.23017979  0.83953889  1  0  -0.490714  -0.053289  0  3.784927  0
B  B5  1  0.37589971  0.76982069  0.16046124  1  0  -0.490724  -0.053278  0  3.784947  0
B  B6  1  0.63031473  0.50149779  0.84445789  1  0  -0.482133  -0.060586  0  3.803975  0
B  B7  1  0.36968417  0.49850269  0.15554199  1  0  -0.48212  -0.060556  0  3.803968  0
B  B8  1  0.64389259  0.26604010  0.25148004  1  0  -0.485257  -0.055033  0  3.782143  0
B  B9  1  0.35610575  0.73395926  0.74851975  1  0  -0.48525  -0.055039  0  3.782163  0
B  B10  1  0.51756837  0.21260736  0.47137796  1  0  -0.486233  -0.066995  0  3.810021  0
B  B11  1  0.48243054  0.78739312  0.52862191  1  0  -0.486223  -0.066972  0  3.809966  0
H  H12  1  0.45688802  0.17805788  0.82234954  1  0  0.024914  -0.18846  0  1.140804  0
H  H13  1  0.54311336  0.82194259  0.17765059  1  0  0.024904  -0.188444  0  1.140778  0
H  H14  1  0.68424363  0.24648042  0.95421062  1  0  0.036987  -0.130801  0  1.087153  0
H  H15  1  0.31575651  0.75352006  0.04578938  1  0  0.036983  -0.130812  0  1.087173  0
H  H16  1  0.67676126  0.14736251  0.78487970  1  0  0.022417  -0.16747  0  1.126858  0
H  H17  1  0.32323887  0.85263797  0.21511935  1  0  0.022434  -0.167477  0  1.126854  0
H  H18  1  0.46363756  0.44624125  0.82726040  1  0  0.033852  -0.163133  0  1.119268  0
H  H19  1  0.53636202  0.55375810  0.17274046  1  0  0.033856  -0.163133  0  1.119265  0
H  H20  1  0.69098823  0.52543352  0.96047941  1  0  0.031263  -0.176993  0  1.132217  0
H  H21  1  0.30901191  0.47456696  0.03952059  1  0  0.031262  -0.176995  0  1.132211  0
H  H22  1  0.68918767  0.62229892  0.79640327  1  0  0.031508  -0.144125  0  1.082414  0
H  H23  1  0.31081248  0.37770155  0.20359768  1  0  0.031509  -0.144132  0  1.082409  0
H  H24  1  0.64132341  0.36739087  0.68718362  1  0  0.310238  0.241181  0  0.943653  0
H  H25  1  0.35867796  0.63260961  0.31281651  1  0  0.310241  0.241189  0  0.943654  0
H  H26  1  0.94529814  0.56274404  0.74912451  1  0  0.101893  0.106323  0  1.005526  0
H  H27  1  0.05470200  0.43725644  0.25087549  1  0  0.101883  0.106317  0  1.005535  0
H  H28  1  0.93790278  0.37672564  0.74186670  1  0  0.100722  0.099501  0  1.00034  0
H  H29  1  0.06209859  0.62327484  0.25813247  1  0  0.100732  0.099527  0  1.000342  0
H  H30  1  0.95953483  0.47384936  0.89285899  1  0  0.109819  0.113159  0  0.997659  0
H  H31  1  0.04046408  0.52615112  0.10714184  1  0  0.109824  0.113165  0  0.997666  0
H  H32  1  0.92588966  0.11075313  0.86799232  1  0  0.099463  0.063142  0  1.014889  0
H  H33  1  0.07411228  0.88924848  0.13200600  1  0  0.09948  0.063169  0  1.014867  0
H  H34  1  0.03724370  0.25670331  0.99694384  1  0  0.115627  0.09412  0  0.986916  0
H  H35  1  0.96275644  0.74329717  0.00305521  1  0  0.115629  0.094128  0  0.986902  0
H  H36  1  0.25406846  0.95161693  0.95676451  1  0  0.123734  0.100605  0  0.96999  0
H  H37  1  0.74593224  0.04838468  0.04323273  1  0  0.123763  0.100689  0  0.969958  0
H  H38  1  0.05889939  0.92879881  0.84239918  1  0  0.103977  0.07101  0  0.999755  0
H  H39  1  0.94109951  0.07120168  0.15759974  1  0  0.104001  0.071043  0  0.999723  0
H  H40  1  0.76640994  0.22997819  0.29344320  1  0  0.02939  -0.148422  0  1.109661  0
H  H41  1  0.23359020  0.77002229  0.70655775  1  0  0.02939  -0.148408  0  1.109644  0
H  H42  1  0.51148374  0.15715581  0.19478462  1  0  0.030952  -0.170329  0  1.111494  0
H  H43  1  0.48851459  0.84284355  0.80521327  1  0  0.030943  -0.170327  0  1.111497  0
H  H44  1  0.70274562  0.36558070  0.18063832  1  0  0.026316  -0.154982  0  1.120356  0
H  H45  1  0.29725149  0.63441867  0.81936133  1  0  0.026324  -0.154964  0  1.12034  0
H  H46  1  0.47600372  0.35164179  0.32794474  1  0  0.312322  0.244814  0  0.930648  0
H  H47  1  0.52399642  0.64835869  0.67205431  1  0  0.312339  0.244808  0  0.930662  0
H  H48  1  0.68213284  0.52031180  0.50564930  1  0  0.101204  0.102707  0  0.999081  0
H  H49  1  0.31786607  0.47968867  0.49435248  1  0  0.101196  0.102708  0  0.999051  0
H  H50  1  0.76637904  0.55316927  0.35571519  1  0  0.103969  0.102898  0  1.020581  0
H  H51  1  0.23362120  0.44682896  0.64428476  1  0  0.103982  0.102961  0  1.020548  0
H  H52  1  0.84600997  0.45348574  0.47054057  1  0  0.106086  0.105984  0  1.007871  0
H  H53  1  0.15398781  0.54651249  0.52945912  1  0  0.106076  0.105988  0  1.00788  0
H  H54  1  0.39585237  0.09481062  0.41869196  1  0  0.030034  -0.177197  0  1.14297  0
H  H55  1  0.60414654  0.90518986  0.58130886  1  0  0.030043  -0.177199  0  1.142967  0
H  H56  1  0.64841245  0.19070618  0.52293338  1  0  0.032953  -0.166272  0  1.11518  0
H  H57  1  0.35158533  0.80929206  0.47706631  1  0  0.032938  -0.166285  0  1.115176  0
H  H58  1  0.45757470  0.26210089  0.55340047  1  0  0.036417  -0.137577  0  1.092963  0
H  H59  1  0.54242297  0.73789959  0.44659927  1  0  0.036415  -0.137574  0  1.09297  0
H  H60  1  0.02594700  0.76601002  0.53013685  1  0  0.111385  0.085384  0  0.997645  0
H  H61  1  0.97405381  0.23398933  0.46986414  1  0  0.111401  0.0854  0  0.997628  0
H  H62  1  0.84847717  0.81459963  0.57082278  1  0  0.105681  0.078947  0  0.996318  0
H  H63  1  0.15152431  0.18539859  0.42917824  1  0  0.10567  0.078924  0  0.996272  0
H  H64  1  0.93750775  0.07533373  0.65243712  1  0  0.104638  0.071619  0  0.998258  0
H  H65  1  0.06249250  0.92466450  0.34756378  1  0  0.104648  0.071615  0  0.99824  0
H  H66  1  0.17415553  0.19963166  0.66727826  1  0  0.115857  0.089812  0  0.987455  0
H  H67  1  0.82584529  0.80036769  0.33272368  1  0  0.115877  0.089861  0  0.987465  0
C  C68  1  0.89648810  0.45466651  0.79128349  1  0  -0.11724  -0.195582  0  3.820412  0
C  C69  1  0.10351205  0.54533397  0.20871651  1  0  -0.117246  -0.195606  0  3.820433  0
C  C70  1  0.99784373  0.13757769  0.96824254  1  0  -0.071981  -0.008206  0  3.91183  0
C  C71  1  0.00215697  0.86242392  0.03175565  1  0  -0.072017  -0.008247  0  3.911832  0
C  C72  1  0.12378941  0.96127901  0.94410368  1  0  -0.068624  -0.008997  0  3.90412  0
C  C73  1  0.87621129  0.03872260  0.05589451  1  0  -0.068664  -0.009089  0  3.904096  0
C  C74  1  0.72761989  0.47318681  0.42886957  1  0  -0.118123  -0.203273  0  3.831337  0
C  C75  1  0.27237846  0.52681254  0.57113211  1  0  -0.118093  -0.203309  0  3.831328  0
C  C76  1  0.97418541  0.85351262  0.52840056  1  0  -0.073724  -0.02103  0  3.916639  0
C  C77  1  0.02581541  0.14648673  0.47160138  1  0  -0.073718  -0.020999  0  3.916571  0
C  C78  1  0.06092275  0.10608089  0.60767398  1  0  -0.07012  -0.016333  0  3.912141  0
C  C79  1  0.93907750  0.89391733  0.39232691  1  0  -0.070154  -0.016375  0  3.912233  0
N  N80  1  0.69672356  0.38895426  0.78335415  1  0  -0.376735  -0.128212  0  3.590049  0
N  N81  1  0.30327659  0.61104622  0.21664680  1  0  -0.376742  -0.128235  0  3.590076  0
N  N82  1  0.58301785  0.32862419  0.36871188  1  0  -0.375041  -0.124758  0  3.581679  0
N  N83  1  0.41698049  0.67137517  0.63128790  1  0  -0.375093  -0.124825  0  3.581881  0
O  O84  1  0.16356003  0.11696293  0.97588268  1  0  -0.304731  -0.309374  0  2.513206  0
O  O85  1  0.83644190  0.88303868  0.02411469  1  0  -0.30473  -0.30937  0  2.513213  0
O  O86  1  0.11247926  0.98188869  0.60732485  1  0  -0.29457  -0.28962  0  2.520562  0
O  O87  1  0.88752279  0.01811066  0.39267627  1  0  -0.294549  -0.289629  0  2.520581  0
