# generated using pymatgen
data_ZnH26C34(N3O2)2
_symmetry_space_group_name_H-M   'P 1'
_cell_length_a   9.58270593
_cell_length_b   11.34631386
_cell_length_c   14.33477631
_cell_angle_alpha   82.31641026
_cell_angle_beta   89.80016695
_cell_angle_gamma   75.69690532
_symmetry_Int_Tables_number   1
_chemical_formula_structural   ZnH26C34(N3O2)2
_chemical_formula_sum   'Zn2 H52 C68 N12 O8'
_cell_volume   1496.01583625
_cell_formula_units_Z   2
loop_
 _symmetry_equiv_pos_site_id
 _symmetry_equiv_pos_as_xyz
  1  'x, y, z'
loop_
 _atom_site_type_symbol
 _atom_site_label
 _atom_site_symmetry_multiplicity
 _atom_site_fract_x
 _atom_site_fract_y
 _atom_site_fract_z
 _atom_site_occupancy
 _atom_site_hle17_bader_spin_density
 _atom_site_hle17_ddec_charge
 _atom_site_hle17_ddec_spin_density
 _atom_site_hle17_ddec_sum_bond_order
 _atom_site_hle17_magmom
 _atom_site_hse06_10hf_bader_spin_density
 _atom_site_hse06_10hf_ddec_charge
 _atom_site_hse06_10hf_ddec_spin_density
 _atom_site_hse06_10hf_ddec_sum_bond_order
 _atom_site_hse06_10hf_magmom
 _atom_site_hse06_bader_spin_density
 _atom_site_hse06_ddec_charge
 _atom_site_hse06_ddec_spin_density
 _atom_site_hse06_ddec_sum_bond_order
 _atom_site_hse06_magmom
 _atom_site_pbe_bader_spin_density
 _atom_site_pbe_cm5_charge
 _atom_site_pbe_ddec_charge
 _atom_site_pbe_ddec_spin_density
 _atom_site_pbe_ddec_sum_bond_order
 _atom_site_pbe_magmom
Zn  Zn0  1  0.47038337  0.11217861  0.32167094  1  0  1.019683  0  1.894325  0  0  0.833895  0  2.381439  0  0  0.879612  0  2.325688  0  0  0.7049  0.802321  0  2.418957  0
Zn  Zn1  1  0.52961758  0.88782178  0.67832863  1  0  1.019663  0  1.894333  0  0  0.833864  0  2.381466  0  0  0.87958  0  2.325716  0  0  0.704884  0.802288  0  2.418992  0
H  H2  1  0.63115032  0.39718180  0.64988916  1  0  0.09155  0  0.949832  0  0  0.101717  0  1.010662  0  0  0.106135  0  1.00702  0  0  0.098808  0.098812  0  1.013039  0
H  H3  1  0.36884881  0.60281767  0.35011051  1  0  0.091533  0  0.949873  0  0  0.101723  0  1.01068  0  0  0.10614  0  1.00704  0  0  0.098823  0.098817  0  1.01306  0
H  H4  1  0.60009318  0.27320409  0.52344389  1  0  0.113323  0  0.993361  0  0  0.118084  0  1.063197  0  0  0.122827  0  1.059066  0  0  0.099925  0.114643  0  1.066169  0
H  H5  1  0.39990830  0.72679447  0.47655588  1  0  0.113277  0  0.993318  0  0  0.118007  0  1.063195  0  0  0.122749  0  1.059066  0  0  0.099891  0.11457  0  1.066163  0
H  H6  1  0.60788053  0.84131808  0.44264694  1  0  0.11729  0  0.933737  0  0  0.126043  0  0.996142  0  0  0.128779  0  0.992385  0  0  0.145325  0.124049  0  0.99855  0
H  H7  1  0.39212041  0.15868232  0.55735333  1  0  0.117321  0  0.933702  0  0  0.126089  0  0.996081  0  0  0.128817  0  0.99234  0  0  0.145346  0.124098  0  0.998487  0
H  H8  1  0.72627648  0.16285059  0.20291648  1  0  0.105125  0  0.942094  0  0  0.116667  0  1.00135  0  0  0.119415  0  0.999925  0  0  0.107149  0.114756  0  1.00227  0
H  H9  1  0.27372369  0.83714889  0.79708319  1  0  0.10511  0  0.942121  0  0  0.116651  0  1.001383  0  0  0.119399  0  0.999957  0  0  0.107132  0.114742  0  1.002305  0
H  H10  1  0.97275225  0.12576060  0.13626639  1  0  0.083441  0  0.976232  0  0  0.093269  0  1.039848  0  0  0.095526  0  1.039962  0  0  0.093933  0.091673  0  1.039824  0
H  H11  1  0.02724792  0.87423888  0.86373328  1  0  0.08344  0  0.976247  0  0  0.093267  0  1.039861  0  0  0.095524  0  1.039975  0  0  0.093931  0.091671  0  1.039837  0
H  H12  1  0.15823351  0.93499303  0.18837653  1  0  0.08318  0  1.004412  0  0  0.094098  0  1.065707  0  0  0.095268  0  1.067985  0  0  0.092539  0.093468  0  1.063791  0
H  H13  1  0.84176770  0.06500645  0.81162383  1  0  0.083188  0  1.004403  0  0  0.094097  0  1.065715  0  0  0.095273  0  1.067981  0  0  0.092538  0.093459  0  1.0638  0
H  H14  1  0.10875197  0.77364137  0.30975957  1  0  0.10477  0  0.943921  0  0  0.119066  0  0.999162  0  0  0.121459  0  0.998455  0  0  0.107108  0.117352  0  0.999679  0
H  H15  1  0.89124925  0.22635810  0.69024150  1  0  0.10476  0  0.943955  0  0  0.119055  0  0.999191  0  0  0.121448  0  0.998486  0  0  0.107105  0.117345  0  0.999701  0
H  H16  1  0.82797905  0.67885782  0.50354878  1  0  0.101517  0  0.91644  0  0  0.117171  0  0.976733  0  0  0.11784  0  0.976815  0  0  0.123201  0.116389  0  0.977209  0
H  H17  1  0.17202007  0.32114165  0.49645090  1  0  0.101509  0  0.91647  0  0  0.117154  0  0.976776  0  0  0.117823  0  0.97686  0  0  0.123202  0.116369  0  0.977256  0
H  H18  1  0.99876803  0.69524203  0.46592097  1  0  0.094915  0  0.910447  0  0  0.109547  0  0.97094  0  0  0.110415  0  0.970955  0  0  0.118862  0.108843  0  0.971077  0
H  H19  1  0.00123214  0.30475744  0.53407870  1  0  0.094914  0  0.910458  0  0  0.10957  0  0.970921  0  0  0.110442  0  0.970932  0  0  0.118867  0.108862  0  0.971061  0
H  H20  1  0.67295328  0.61710321  0.36090668  1  0  0.103359  0  0.968448  0  0  0.114541  0  1.028796  0  0  0.116474  0  1.030064  0  0  0.102266  0.112838  0  1.028594  0
H  H21  1  0.32704740  0.38289810  0.63909209  1  0  0.103386  0  0.968421  0  0  0.114561  0  1.028778  0  0  0.116495  0  1.030042  0  0  0.10226  0.112865  0  1.028567  0
H  H22  1  0.69866094  0.44455468  0.26685093  1  0  0.071989  0  0.931613  0  0  0.083097  0  0.988585  0  0  0.085308  0  0.986978  0  0  0.110984  0.081315  0  0.990037  0
H  H23  1  0.30133792  0.55544571  0.73314934  1  0  0.071999  0  0.931603  0  0  0.083106  0  0.988574  0  0  0.085317  0  0.986968  0  0  0.110996  0.081326  0  0.990022  0
H  H24  1  0.14462936  0.35840364  0.29467162  1  0  0.085887  0  0.944332  0  0  0.091949  0  1.009552  0  0  0.094979  0  1.006707  0  0  0.111467  0.089641  0  1.011952  0
H  H25  1  0.85536977  0.64159584  0.70532875  1  0  0.085922  0  0.944292  0  0  0.091982  0  1.00952  0  0  0.095011  0  1.006675  0  0  0.111482  0.089683  0  1.011911  0
H  H26  1  0.13788136  0.52754127  0.38865475  1  0  0.104574  0  0.960821  0  0  0.112593  0  1.026847  0  0  0.115237  0  1.026929  0  0  0.104201  0.11001  0  1.027977  0
H  H27  1  0.86211749  0.47245912  0.61134623  1  0  0.104622  0  0.960766  0  0  0.112625  0  1.026808  0  0  0.115269  0  1.026891  0  0  0.104221  0.110047  0  1.02793  0
H  H28  1  0.36479071  0.32021351  0.14010635  1  0  0.11865  0  0.929076  0  0  0.124573  0  0.995068  0  0  0.128439  0  0.989433  0  0  0.143868  0.121666  0  0.999196  0
H  H29  1  0.63520788  0.67978780  0.85989383  1  0  0.11865  0  0.9291  0  0  0.124558  0  0.995114  0  0  0.128426  0  0.989477  0  0  0.143866  0.121654  0  0.999236  0
H  H30  1  0.23714668  0.04364302  0.92042725  1  0  0.105045  0  0.968896  0  0  0.114272  0  1.031922  0  0  0.116805  0  1.031927  0  0  0.102177  0.112477  0  1.031907  0
H  H31  1  0.76285244  0.95635646  0.07957381  1  0  0.105011  0  0.968946  0  0  0.114254  0  1.03196  0  0  0.116787  0  1.031964  0  0  0.102166  0.112459  0  1.031944  0
H  H32  1  0.29506801  0.81857650  0.97462197  1  0  0.087428  0  0.965468  0  0  0.097613  0  1.028748  0  0  0.099547  0  1.028984  0  0  0.097825  0.096129  0  1.028817  0
H  H33  1  0.70493085  0.18142390  0.02537830  1  0  0.087475  0  0.96544  0  0  0.097625  0  1.028755  0  0  0.09956  0  1.028992  0  0  0.097822  0.096137  0  1.028829  0
H  H34  1  0.41185033  0.73047707  0.12899440  1  0  0.093863  0  0.942555  0  0  0.107625  0  0.996409  0  0  0.110143  0  0.99554  0  0  0.102056  0.105474  0  0.997735  0
H  H35  1  0.58815061  0.26952332  0.87100586  1  0  0.093843  0  0.942565  0  0  0.107605  0  0.996421  0  0  0.110123  0  0.995553  0  0  0.102043  0.105451  0  0.997748  0
H  H36  1  0.47394505  0.86565695  0.23982084  1  0  0.114926  0  0.954848  0  0  0.123779  0  1.016234  0  0  0.12666  0  1.014794  0  0  0.105713  0.121725  0  1.017232  0
H  H37  1  0.52605617  0.13434253  0.76017953  1  0  0.114898  0  0.954911  0  0  0.123751  0  1.016294  0  0  0.126633  0  1.014855  0  0  0.105697  0.121695  0  1.017288  0
H  H38  1  0.28375743  0.26073471  0.89862853  1  0  0.089348  0  0.912777  0  0  0.104004  0  0.974685  0  0  0.105259  0  0.973929  0  0  0.116846  0.103139  0  0.975138  0
H  H39  1  0.71624274  0.73926477  0.10137114  1  0  0.08936  0  0.912791  0  0  0.104015  0  0.974692  0  0  0.105272  0  0.973934  0  0  0.11685  0.103144  0  0.975145  0
H  H40  1  0.28411040  0.37860235  0.96831325  1  0  0.098835  0  0.918432  0  0  0.113947  0  0.979209  0  0  0.11462  0  0.978986  0  0  0.122627  0.113068  0  0.98016  0
H  H41  1  0.71588950  0.62139805  0.03168702  1  0  0.098827  0  0.918441  0  0  0.113936  0  0.97922  0  0  0.114608  0  0.978997  0  0  0.122619  0.113051  0  0.980174  0
H  H42  1  0.06281943  0.31692655  0.11806485  1  0  0.108096  0  0.958819  0  0  0.115246  0  1.025713  0  0  0.118352  0  1.024562  0  0  0.106646  0.113069  0  1.026618  0
H  H43  1  0.93718047  0.68307384  0.88193542  1  0  0.108114  0  0.958802  0  0  0.115273  0  1.025686  0  0  0.118379  0  1.024531  0  0  0.106657  0.113093  0  1.026592  0
H  H44  1  0.79899208  0.38406642  0.10929352  1  0  0.066274  0  0.945696  0  0  0.074332  0  1.009598  0  0  0.076765  0  1.007445  0  0  0.108513  0.072649  0  1.011102  0
H  H45  1  0.20100755  0.61593489  0.89070665  1  0  0.066265  0  0.945703  0  0  0.07432  0  1.009605  0  0  0.076754  0  1.007453  0  0  0.108515  0.072638  0  1.01111  0
H  H46  1  0.78693680  0.42452955  0.81740095  1  0  0.078489  0  0.949464  0  0  0.084998  0  1.016111  0  0  0.08773  0  1.013478  0  0  0.108497  0.083118  0  1.017826  0
H  H47  1  0.21306414  0.57547084  0.18259932  1  0  0.078522  0  0.949469  0  0  0.08504  0  1.016106  0  0  0.087768  0  1.01347  0  0  0.108524  0.083164  0  1.017824  0
H  H48  1  0.05487691  0.35002668  0.81375336  1  0  0.092245  0  0.987291  0  0  0.098685  0  1.055746  0  0  0.1008  0  1.057334  0  0  0.096667  0.097247  0  1.054642  0
H  H49  1  0.94512222  0.64997280  0.18624632  1  0  0.092267  0  0.98734  0  0  0.098704  0  1.055803  0  0  0.100817  0  1.057392  0  0  0.096686  0.097263  0  1.054693  0
H  H50  1  0.22427866  0.83736624  0.54707634  1  0  0.105131  0  0.967541  0  0  0.11436  0  1.031452  0  0  0.117532  0  1.029673  0  0  0.101299  0.11179  0  1.033342  0
H  H51  1  0.77572020  0.16263415  0.45292394  1  0  0.105123  0  0.967527  0  0  0.114361  0  1.03144  0  0  0.117532  0  1.029664  0  0  0.101283  0.111792  0  1.033325  0
H  H52  1  0.00775772  0.17576407  0.37784103  1  0  0.09537  0  0.971595  0  0  0.101955  0  1.040267  0  0  0.105052  0  1.038909  0  0  0.097626  0.099693  0  1.041267  0
H  H53  1  0.99224191  0.82423724  0.62215984  1  0  0.095351  0  0.971561  0  0  0.101945  0  1.040229  0  0  0.105042  0  1.038871  0  0  0.097644  0.099685  0  1.041231  0
C  C54  1  0.57474644  0.44140632  0.58347755  1  0  -0.089805  0  3.774761  0  0  -0.108846  0  4.021583  0  0  -0.109852  0  4.040804  0  0  -0.092318  -0.108466  0  4.009344  0
C  C55  1  0.42525400  0.55859223  0.41652152  1  0  -0.089876  0  3.77474  0  0  -0.108973  0  4.021535  0  0  -0.109981  0  4.040755  0  0  -0.09239  -0.108588  0  4.009298  0
C  C56  1  0.55755188  0.37265330  0.51277430  1  0  -0.093061  0  3.735443  0  0  -0.116828  0  3.985558  0  0  -0.117716  0  4.004543  0  0  -0.095486  -0.115457  0  3.972547  0
C  C57  1  0.44244882  0.62734433  0.48722557  1  0  -0.092963  0  3.73532  0  0  -0.11667  0  3.985481  0  0  -0.117556  0  4.004466  0  0  -0.095459  -0.115302  0  3.97247  0
C  C58  1  0.48256564  0.43117181  0.42847312  1  0  -0.063425  0  3.765583  0  0  -0.041204  0  3.997228  0  0  -0.047949  0  4.020893  0  0  -0.02246  -0.03677  0  3.981675  0
C  C59  1  0.51743480  0.56882674  0.57152595  1  0  -0.063455  0  3.765664  0  0  -0.041342  0  3.997444  0  0  -0.048089  0  4.021112  0  0  -0.022484  -0.036913  0  3.981894  0
C  C60  1  0.46267052  0.35768026  0.35177193  1  0  0.628432  0  3.956076  0  0  0.581019  0  4.250814  0  0  0.614829  0  4.242689  0  0  0.195648  0.558038  0  4.255879  0
C  C61  1  0.53732965  0.64231921  0.64822774  1  0  0.62849  0  3.955989  0  0  0.5811  0  4.250755  0  0  0.614911  0  4.242628  0  0  0.19568  0.558129  0  4.255808  0
C  C62  1  0.68389429  0.87302995  0.39552132  1  0  0.219301  0  3.635046  0  0  0.15057  0  3.911164  0  0  0.168962  0  3.91948  0  0  0.169724  0.138568  0  3.905015  0
C  C63  1  0.31610588  0.12696953  0.60447904  1  0  0.219291  0  3.635023  0  0  0.150559  0  3.91113  0  0  0.168952  0  3.919455  0  0  0.169735  0.138556  0  3.90498  0
C  C64  1  0.77827229  0.98522900  0.29007136  1  0  0.142515  0  3.82934  0  0  0.14026  0  4.072769  0  0  0.143113  0  4.097302  0  0  0.087795  0.138244  0  4.056119  0
C  C65  1  0.22172683  0.01477048  0.70992832  1  0  0.14246  0  3.829401  0  0  0.140186  0  4.072879  0  0  0.143038  0  4.097413  0  0  0.087745  0.138169  0  4.05624  0
C  C66  1  0.88632545  0.87699393  0.32043283  1  0  0.095775  0  3.784627  0  0  0.085597  0  4.027942  0  0  0.088882  0  4.05132  0  0  0.092083  0.08329  0  4.012305  0
C  C67  1  0.11367576  0.12300554  0.67956683  1  0  0.095754  0  3.784593  0  0  0.08555  0  4.02795  0  0  0.088836  0  4.051328  0  0  0.092055  0.083239  0  4.012324  0
C  C68  1  0.80776424  0.07759701  0.22403560  1  0  -0.131918  0  3.738218  0  0  -0.151054  0  3.989488  0  0  -0.153471  0  4.009277  0  0  -0.088502  -0.149276  0  3.975853  0
C  C69  1  0.19223593  0.92240246  0.77596407  1  0  -0.131956  0  3.738352  0  0  -0.151086  0  3.989627  0  0  -0.153503  0  4.009418  0  0  -0.088517  -0.149318  0  3.976005  0
C  C70  1  0.94557819  0.05636561  0.18822870  1  0  -0.071705  0  3.771511  0  0  -0.085971  0  4.022745  0  0  -0.087747  0  4.043505  0  0  -0.094798  -0.08468  0  4.008531  0
C  C71  1  0.05442225  0.94363294  0.81177106  1  0  -0.071656  0  3.771544  0  0  -0.085915  0  4.02276  0  0  -0.087693  0  4.043521  0  0  -0.094787  -0.084625  0  4.008548  0
C  C72  1  0.05177789  0.94753059  0.21789725  1  0  -0.063481  0  3.76724  0  0  -0.079125  0  4.015956  0  0  -0.080652  0  4.038489  0  0  -0.095609  -0.07807  0  4.000263  0
C  C73  1  0.94822228  0.05246889  0.78210242  1  0  -0.063512  0  3.767267  0  0  -0.079161  0  4.015992  0  0  -0.080689  0  4.038517  0  0  -0.095602  -0.078098  0  4.000294  0
C  C74  1  0.02485404  0.85600752  0.28525077  1  0  -0.138213  0  3.763173  0  0  -0.15815  0  4.018613  0  0  -0.161131  0  4.039244  0  0  -0.093432  -0.156109  0  4.004639  0
C  C75  1  0.97514586  0.14399287  0.71475020  1  0  -0.138127  0  3.763065  0  0  -0.158041  0  4.018495  0  0  -0.161023  0  4.039128  0  0  -0.093374  -0.156006  0  4.004517  0
C  C76  1  0.89215774  0.69079616  0.44104801  1  0  -0.039007  0  3.649351  0  0  -0.10626  0  3.900966  0  0  -0.101743  0  3.910467  0  0  -0.040308  -0.10926  0  3.894588  0
C  C77  1  0.10784112  0.30920424  0.55895156  1  0  -0.039027  0  3.649413  0  0  -0.106288  0  3.901023  0  0  -0.101776  0  3.91053  0  0  -0.040341  -0.109287  0  3.89464  0
C  C78  1  0.90401152  0.58680231  0.38325544  1  0  0.102766  0  3.75483  0  0  0.117501  0  3.996272  0  0  0.120537  0  4.018858  0  0  -0.001805  0.115639  0  3.980685  0
C  C79  1  0.09598838  0.41319809  0.61674484  1  0  0.102803  0  3.754845  0  0  0.117536  0  3.996286  0  0  0.120574  0  4.018872  0  0  -0.001802  0.115692  0  3.980684  0
C  C80  1  0.77991706  0.56265467  0.34717271  1  0  -0.179415  0  3.733409  0  0  -0.197995  0  3.977703  0  0  -0.205345  0  4.001332  0  0  -0.095002  -0.193218  0  3.962255  0
C  C81  1  0.22008284  0.43734573  0.65282756  1  0  -0.179466  0  3.733451  0  0  -0.198043  0  3.977742  0  0  -0.205395  0  4.001371  0  0  -0.094987  -0.193279  0  3.962296  0
C  C82  1  0.79449953  0.46575709  0.29456960  1  0  0.113879  0  3.758761  0  0  0.092435  0  4.015033  0  0  0.097305  0  4.03363  0  0  0.041295  0.089576  0  4.002092  0
C  C83  1  0.20550064  0.53424238  0.70543007  1  0  0.113915  0  3.758698  0  0  0.092479  0  4.014966  0  0  0.097348  0  4.033564  0  0  0.041312  0.089621  0  4.002025  0
C  C84  1  0.04089044  0.41727788  0.31002104  1  0  0.123468  0  3.725093  0  0  0.099792  0  3.985414  0  0  0.105794  0  4.001324  0  0  0.046595  0.095986  0  3.974543  0
C  C85  1  0.95910973  0.58272160  0.68997864  1  0  0.123409  0  3.72511  0  0  0.099728  0  3.985429  0  0  0.10573  0  4.001339  0  0  0.046566  0.095912  0  3.974567  0
C  C86  1  0.03714601  0.51249845  0.36349829  1  0  -0.181203  0  3.725497  0  0  -0.196663  0  3.970371  0  0  -0.203836  0  3.992139  0  0  -0.089515  -0.19159  0  3.955805  0
C  C87  1  0.96285390  0.48750194  0.63650198  1  0  -0.181285  0  3.725513  0  0  -0.196732  0  3.970393  0  0  -0.203907  0  3.992158  0  0  -0.089545  -0.191665  0  3.955826  0
C  C88  1  0.36568363  0.22858909  0.12463134  1  0  0.208226  0  3.627195  0  0  0.144601  0  3.896878  0  0  0.162246  0  3.905189  0  0  0.168312  0.133194  0  3.890922  0
C  C89  1  0.63431654  0.77141039  0.87536903  1  0  0.208278  0  3.627204  0  0  0.144658  0  3.896897  0  0  0.162301  0  3.905206  0  0  0.168345  0.133238  0  3.890951  0
C  C90  1  0.32845389  0.07907015  0.05000739  1  0  0.102811  0  3.773145  0  0  0.093923  0  4.012503  0  0  0.097282  0  4.035407  0  0  0.095723  0.091651  0  3.997185  0
C  C91  1  0.67154601  0.92093024  0.94999358  1  0  0.102793  0  3.773169  0  0  0.093894  0  4.012536  0  0  0.097253  0  4.03544  0  0  0.09567  0.09162  0  3.997218  0
C  C92  1  0.29069818  0.00564827  0.98859615  1  0  -0.143  0  3.754655  0  0  -0.161431  0  4.007228  0  0  -0.164044  0  4.027448  0  0  -0.094587  -0.159489  0  3.993445  0
C  C93  1  0.70930303  0.99435121  0.01140422  1  0  -0.142912  0  3.754673  0  0  -0.161351  0  4.007228  0  0  -0.163962  0  4.027448  0  0  -0.094554  -0.159415  0  3.993452  0
C  C94  1  0.32371501  0.87986683  0.01936470  1  0  -0.062531  0  3.765194  0  0  -0.082349  0  4.026162  0  0  -0.084031  0  4.048615  0  0  -0.093886  -0.081205  0  4.011009  0
C  C95  1  0.67628516  0.12013264  0.98063636  1  0  -0.062674  0  3.765122  0  0  -0.082467  0  4.026095  0  0  -0.084152  0  4.048551  0  0  -0.093932  -0.081322  0  4.010944  0
C  C96  1  0.39133545  0.82939803  0.10800914  1  0  -0.080448  0  3.781468  0  0  -0.098276  0  4.040441  0  0  -0.100322  0  4.062052  0  0  -0.097506  -0.096869  0  4.026062  0
C  C97  1  0.60866523  0.17060328  0.89199034  1  0  -0.080376  0  3.78134  0  0  -0.098199  0  4.040295  0  0  -0.100244  0  4.061906  0  0  -0.097469  -0.096789  0  4.025913  0
C  C98  1  0.42774981  0.90307054  0.16956321  1  0  -0.144918  0  3.738951  0  0  -0.162858  0  3.990568  0  0  -0.16505  0  4.009603  0  0  -0.092538  -0.161396  0  3.977428  0
C  C99  1  0.57225140  0.09692894  0.83043785  1  0  -0.144869  0  3.739059  0  0  -0.162815  0  3.990672  0  0  -0.165006  0  4.009705  0  0  -0.092521  -0.16136  0  3.977531  0
C  C100  1  0.39515120  0.02973347  0.13938074  1  0  0.14703  0  3.818861  0  0  0.145282  0  4.062439  0  0  0.148283  0  4.086205  0  0  0.088459  0.143235  0  4.046247  0
C  C101  1  0.60484948  0.97026784  0.86061943  1  0  0.146979  0  3.81899  0  0  0.145247  0  4.062543  0  0  0.148248  0  4.086312  0  0  0.088459  0.143203  0  4.046347  0
C  C102  1  0.24538271  0.29575752  0.96439651  1  0  -0.036577  0  3.647622  0  0  -0.10205  0  3.895717  0  0  -0.097595  0  3.90535  0  0  -0.037451  -0.104858  0  3.889142  0
C  C103  1  0.75461642  0.70424196  0.03560387  1  0  -0.036564  0  3.647585  0  0  -0.10203  0  3.89567  0  0  -0.097579  0  3.905303  0  0  -0.037453  -0.104838  0  3.889092  0
C  C104  1  0.08254576  0.32845722  0.96540900  1  0  0.109971  0  3.7386  0  0  0.125543  0  3.975943  0  0  0.12804  0  3.999357  0  0  0.00095  0.124136  0  3.959767  0
C  C105  1  0.91745414  0.67154317  0.03459057  1  0  0.109904  0  3.738543  0  0  0.125481  0  3.975888  0  0  0.127977  0  3.999303  0  0  0.000916  0.124081  0  3.959697  0
C  C106  1  0.00793366  0.33775040  0.04913217  1  0  -0.171927  0  3.729716  0  0  -0.192774  0  3.980555  0  0  -0.199379  0  4.002917  0  0  -0.090889  -0.188509  0  3.965439  0
C  C107  1  0.99206520  0.66224999  0.95086810  1  0  -0.171956  0  3.729708  0  0  -0.192816  0  3.980555  0  0  -0.199421  0  4.002918  0  0  -0.090906  -0.188549  0  3.965436  0
C  C108  1  0.85798038  0.37652166  0.04409302  1  0  0.10914  0  3.773372  0  0  0.087287  0  4.036377  0  0  0.092458  0  4.053812  0  0  0.035737  0.08402  0  4.024365  0
C  C109  1  0.14201952  0.62347873  0.95590655  1  0  0.109153  0  3.773316  0  0  0.087308  0  4.036318  0  0  0.092476  0  4.053757  0  0  0.035737  0.084042  0  4.024309  0
C  C110  1  0.85197140  0.39738428  0.88288173  1  0  0.11866  0  3.737849  0  0  0.096668  0  3.995351  0  0  0.10144  0  4.014119  0  0  0.038526  0.093761  0  3.982119  0
C  C111  1  0.14802954  0.60261612  0.11711854  1  0  0.118677  0  3.737774  0  0  0.096676  0  3.9953  0  0  0.101454  0  4.014059  0  0  0.038542  0.093761  0  3.982084  0
C  C112  1  0.00178737  0.35726268  0.88089068  1  0  -0.171567  0  3.737443  0  0  -0.186851  0  3.978195  0  0  -0.194474  0  4.003065  0  0  -0.090085  -0.181651  0  3.961068  0
C  C113  1  0.99821176  0.64273680  0.11910969  1  0  -0.171578  0  3.737384  0  0  -0.186867  0  3.978155  0  0  -0.194487  0  4.00302  0  0  -0.090103  -0.181661  0  3.961015  0
C  C114  1  0.26908020  0.01334999  0.41241826  1  0  0.631823  0  3.932722  0  0  0.584781  0  4.223849  0  0  0.618929  0  4.216055  0  0  0.19489  0.562067  0  4.227428  0
C  C115  1  0.73091943  0.98665133  0.58758192  1  0  0.631727  0  3.932832  0  0  0.584692  0  4.223946  0  0  0.61884  0  4.216154  0  0  0.194869  0.561967  0  4.22754  0
C  C116  1  0.12994915  0.00702891  0.45763763  1  0  -0.055811  0  3.763045  0  0  -0.033869  0  3.995815  0  0  -0.0404  0  4.018218  0  0  -0.019808  -0.02995  0  3.980934  0
C  C117  1  0.87005048  0.99297240  0.54236324  1  0  -0.055748  0  3.762904  0  0  -0.033821  0  3.995701  0  0  -0.040348  0  4.018097  0  0  -0.019792  -0.029899  0  3.980819  0
C  C118  1  0.12513676  0.90717670  0.52567575  1  0  -0.085719  0  3.728297  0  0  -0.109447  0  3.979816  0  0  -0.110493  0  3.999744  0  0  -0.090697  -0.108817  0  3.966987  0
C  C119  1  0.87486183  0.09282461  0.47432373  1  0  -0.085744  0  3.728287  0  0  -0.109478  0  3.979818  0  0  -0.110525  0  3.999743  0  0  -0.090696  -0.108849  0  3.966981  0
C  C120  1  0.00419893  0.09978398  0.43225314  1  0  -0.078291  0  3.740115  0  0  -0.101062  0  3.992093  0  0  -0.101514  0  4.012165  0  0  -0.091094  -0.100568  0  3.978645  0
C  C121  1  0.99579992  0.90021641  0.56774713  1  0  -0.078284  0  3.739912  0  0  -0.101051  0  3.991891  0  0  -0.101505  0  4.01196  0  0  -0.091123  -0.100556  0  3.978445  0
N  N122  1  0.65323216  0.97863555  0.33809127  1  0  -0.429849  0  3.270452  0  0  -0.355042  0  3.574042  0  0  -0.376489  0  3.583622  0  0  -0.356499  -0.340623  0  3.566998  0
N  N123  1  0.34676801  0.02136392  0.66190840  1  0  -0.429803  0  3.270342  0  0  -0.354996  0  3.57395  0  0  -0.37644  0  3.583525  0  0  -0.356476  -0.34058  0  3.566916  0
N  N124  1  0.82247521  0.80907318  0.38789076  1  0  -0.115063  0  3.537746  0  0  -0.027068  0  3.76259  0  0  -0.043931  0  3.786823  0  0  -0.239257  -0.015723  0  3.745978  0
N  N125  1  0.17752469  0.19092721  0.61210951  1  0  -0.115063  0  3.537751  0  0  -0.027057  0  3.762601  0  0  -0.043919  0  3.786833  0  0  -0.239254  -0.015712  0  3.745989  0
N  N126  1  0.92226256  0.39324170  0.27574727  1  0  -0.315848  0  3.066815  0  0  -0.279214  0  3.335365  0  0  -0.28988  0  3.350127  0  0  -0.321875  -0.272273  0  3.325132  0
N  N127  1  0.07773657  0.60675778  0.72425310  1  0  -0.315848  0  3.066742  0  0  -0.279217  0  3.335297  0  0  -0.289882  0  3.350058  0  0  -0.321879  -0.272268  0  3.325064  0
N  N128  1  0.41562695  0.12622045  0.18399970  1  0  -0.426388  0  3.255018  0  0  -0.35524  0  3.558741  0  0  -0.376024  0  3.568043  0  0  -0.352449  -0.341233  0  3.551887  0
N  N129  1  0.58437399  0.87377994  0.81600056  1  0  -0.42638  0  3.255064  0  0  -0.355221  0  3.558755  0  0  -0.376008  0  3.568064  0  0  -0.352444  -0.341212  0  3.551904  0
N  N130  1  0.31291658  0.20512635  0.04294386  1  0  -0.114384  0  3.541545  0  0  -0.026012  0  3.763053  0  0  -0.042553  0  3.787553  0  0  -0.237602  -0.0151  0  3.746326  0
N  N131  1  0.68708333  0.79487405  0.95705641  1  0  -0.114376  0  3.541548  0  0  -0.026003  0  3.76306  0  0  -0.042543  0  3.787557  0  0  -0.237576  -0.015088  0  3.746335  0
N  N132  1  0.77936135  0.40768266  0.96304280  1  0  -0.336956  0  3.060444  0  0  -0.306143  0  3.331104  0  0  -0.316357  0  3.344455  0  0  -0.338475  -0.299307  0  3.32258  0
N  N133  1  0.22063751  0.59231773  0.03695747  1  0  -0.336968  0  3.060425  0  0  -0.306158  0  3.331095  0  0  -0.316372  0  3.344444  0  0  -0.338494  -0.299327  0  3.322584  0
O  O134  1  0.53890118  0.24489341  0.36497116  1  0  -0.656014  0  2.08149  0  0  -0.582854  0  2.362567  0  0  -0.610613  0  2.345979  0  0  -0.340678  -0.563192  0  2.373039  0
O  O135  1  0.46110003  0.75510607  0.63502851  1  0  -0.656049  0  2.0815  0  0  -0.582882  0  2.362563  0  0  -0.610642  0  2.345974  0  0  -0.340698  -0.563228  0  2.373038  0
O  O136  1  0.37784810  0.40592050  0.28308607  1  0  -0.627942  0  1.908957  0  0  -0.586086  0  2.133334  0  0  -0.607793  0  2.122876  0  0  -0.331839  -0.570806  0  2.140557  0
O  O137  1  0.62215284  0.59407989  0.71691420  1  0  -0.62797  0  1.90892  0  0  -0.586092  0  2.133277  0  0  -0.607801  0  2.122817  0  0  -0.331849  -0.570819  0  2.140496  0
O  O138  1  0.36265675  0.91718588  0.40244856  1  0  -0.622858  0  1.931147  0  0  -0.572805  0  2.156345  0  0  -0.596574  0  2.147286  0  0  -0.320505  -0.556248  0  2.161122  0
O  O139  1  0.63734316  0.08281452  0.59755171  1  0  -0.622821  0  1.931172  0  0  -0.57278  0  2.156374  0  0  -0.59655  0  2.147316  0  0  -0.320498  -0.556215  0  2.161145  0
O  O140  1  0.28542557  0.12336638  0.38551341  1  0  -0.660754  0  2.024118  0  0  -0.58879  0  2.295495  0  0  -0.618047  0  2.281317  0  0  -0.339748  -0.56796  0  2.303913  0
O  O141  1  0.71457510  0.87663493  0.61448607  1  0  -0.660702  0  2.024159  0  0  -0.588744  0  2.295538  0  0  -0.618  0  2.281362  0  0  -0.339735  -0.567914  0  2.303963  0
