# generated using pymatgen
data_CdH6C12(NO2)2
_symmetry_space_group_name_H-M   'P 1'
_cell_length_a   8.24699670
_cell_length_b   8.24700643
_cell_length_c   16.36843577
_cell_angle_alpha   90.00002300
_cell_angle_beta   89.99998630
_cell_angle_gamma   90.00006790
_symmetry_Int_Tables_number   1
_chemical_formula_structural   CdH6C12(NO2)2
_chemical_formula_sum   'Cd4 H24 C48 N8 O16'
_cell_volume   1113.26699213
_cell_formula_units_Z   4
loop_
 _symmetry_equiv_pos_site_id
 _symmetry_equiv_pos_as_xyz
  1  'x, y, z'
loop_
 _atom_site_type_symbol
 _atom_site_label
 _atom_site_symmetry_multiplicity
 _atom_site_fract_x
 _atom_site_fract_y
 _atom_site_fract_z
 _atom_site_occupancy
 _atom_site_hle17_bader_spin_density
 _atom_site_hle17_ddec_charge
 _atom_site_hle17_ddec_spin_density
 _atom_site_hle17_ddec_sum_bond_order
 _atom_site_hle17_magmom
 _atom_site_hse06_10hf_bader_spin_density
 _atom_site_hse06_10hf_ddec_charge
 _atom_site_hse06_10hf_ddec_spin_density
 _atom_site_hse06_10hf_ddec_sum_bond_order
 _atom_site_hse06_10hf_magmom
 _atom_site_hse06_bader_spin_density
 _atom_site_hse06_ddec_charge
 _atom_site_hse06_ddec_spin_density
 _atom_site_hse06_ddec_sum_bond_order
 _atom_site_hse06_magmom
 _atom_site_pbe_bader_spin_density
 _atom_site_pbe_cm5_charge
 _atom_site_pbe_ddec_charge
 _atom_site_pbe_ddec_spin_density
 _atom_site_pbe_ddec_sum_bond_order
 _atom_site_pbe_magmom
Cd  Cd0  1  0.71117191  0.78882756  0.75000023  1  0  1.076187  0  1.666608  0  0  0.876761  0  2.115589  0  0  0.936806  0  2.066906  0  0  0.768798  0.834425  0  2.148586  0
Cd  Cd1  1  0.28882752  0.21117285  0.75000020  1  0  1.076183  0  1.666643  0  0  0.876753  0  2.115625  0  0  0.936801  0  2.066936  0  0  0.768801  0.834417  0  2.148623  0
Cd  Cd2  1  0.78882788  0.28882658  0.25000005  1  0  1.076211  0  1.666591  0  0  0.876788  0  2.115573  0  0  0.936837  0  2.066884  0  0  0.768814  0.834454  0  2.148573  0
Cd  Cd3  1  0.21117178  0.71117222  0.24999951  1  0  1.076194  0  1.666599  0  0  0.876762  0  2.115582  0  0  0.936811  0  2.066895  0  0  0.768804  0.834427  0  2.148582  0
H  H4  1  0.10969473  0.81461240  0.97371132  1  0  0.108835  0  0.94229  0  0  0.117493  0  1.007795  0  0  0.120816  0  1.004537  0  0  0.113451  0.115057  0  1.010136  0
H  H5  1  0.89030580  0.18538697  0.97371121  1  0  0.108826  0  0.942285  0  0  0.117476  0  1.007812  0  0  0.120804  0  1.00454  0  0  0.113448  0.11504  0  1.010153  0
H  H6  1  0.81461222  0.89030536  0.02628966  1  0  0.108816  0  0.942325  0  0  0.117478  0  1.00782  0  0  0.120796  0  1.004573  0  0  0.113445  0.115041  0  1.01016  0
H  H7  1  0.18538755  0.10969447  0.02628962  1  0  0.108837  0  0.942297  0  0  0.117482  0  1.007827  0  0  0.12081  0  1.004554  0  0  0.113449  0.115046  0  1.010166  0
H  H8  1  0.60969376  0.68538743  0.47371054  1  0  0.108837  0  0.942281  0  0  0.117487  0  1.007806  0  0  0.120813  0  1.004538  0  0  0.113452  0.11505  0  1.010146  0
H  H9  1  0.39030458  0.31461276  0.47371051  1  0  0.108857  0  0.942267  0  0  0.117512  0  1.007781  0  0  0.120838  0  1.004515  0  0  0.113463  0.115075  0  1.010122  0
H  H10  1  0.31461295  0.60969557  0.52628918  1  0  0.108827  0  0.942299  0  0  0.117489  0  1.007799  0  0  0.12081  0  1.004544  0  0  0.113456  0.115053  0  1.010138  0
H  H11  1  0.68538779  0.39030466  0.52628975  1  0  0.10885  0  0.942306  0  0  0.117507  0  1.007807  0  0  0.120825  0  1.004562  0  0  0.113455  0.11507  0  1.010146  0
H  H12  1  0.39555295  0.81027123  0.02791537  1  0  0.122598  0  0.940598  0  0  0.132438  0  0.996122  0  0  0.136173  0  0.995118  0  0  0.113409  0.129735  0  0.997073  0
H  H13  1  0.60444681  0.18972861  0.02791591  1  0  0.122669  0  0.940513  0  0  0.132481  0  0.996071  0  0  0.136217  0  0.995067  0  0  0.113428  0.129779  0  0.997021  0
H  H14  1  0.81026964  0.60444686  0.97208435  1  0  0.122584  0  0.940603  0  0  0.132403  0  0.996158  0  0  0.136138  0  0.995159  0  0  0.113409  0.129701  0  0.997107  0
H  H15  1  0.18972968  0.39555373  0.97208314  1  0  0.122646  0  0.940539  0  0  0.132439  0  0.996129  0  0  0.136174  0  0.995128  0  0  0.11343  0.129738  0  0.997078  0
H  H16  1  0.89555296  0.68972859  0.52791668  1  0  0.122609  0  0.940579  0  0  0.132447  0  0.996102  0  0  0.136184  0  0.995099  0  0  0.113424  0.129744  0  0.997055  0
H  H17  1  0.10444657  0.31027043  0.52791730  1  0  0.122651  0  0.940528  0  0  0.132444  0  0.996118  0  0  0.13618  0  0.995117  0  0  0.113444  0.129741  0  0.997072  0
H  H18  1  0.31026973  0.89555321  0.47208428  1  0  0.122585  0  0.940606  0  0  0.132404  0  0.99616  0  0  0.136139  0  0.995161  0  0  0.113409  0.129702  0  0.997108  0
H  H19  1  0.68972982  0.10444577  0.47208417  1  0  0.122593  0  0.94059  0  0  0.132417  0  0.996142  0  0  0.136151  0  0.995142  0  0  0.113409  0.129714  0  0.997092  0
H  H20  1  0.62416081  0.80321704  0.92550632  1  0  0.079183  0  0.968862  0  0  0.088352  0  1.035323  0  0  0.090502  0  1.033235  0  0  0.11661  0.086778  0  1.036739  0
H  H21  1  0.37583975  0.19678230  0.92550688  1  0  0.079203  0  0.968851  0  0  0.088364  0  1.03532  0  0  0.090485  0  1.03327  0  0  0.116609  0.08679  0  1.036736  0
H  H22  1  0.80321624  0.37583870  0.07449275  1  0  0.079163  0  0.968884  0  0  0.088345  0  1.035331  0  0  0.090468  0  1.033284  0  0  0.116605  0.086771  0  1.036747  0
H  H23  1  0.19678350  0.62416117  0.07449342  1  0  0.079169  0  0.968883  0  0  0.088347  0  1.035336  0  0  0.090472  0  1.033284  0  0  0.116601  0.086773  0  1.036751  0
H  H24  1  0.12416066  0.69678398  0.42550682  1  0  0.079169  0  0.968889  0  0  0.08835  0  1.035335  0  0  0.090476  0  1.033282  0  0  0.116607  0.086775  0  1.036755  0
H  H25  1  0.87583892  0.30321617  0.42550673  1  0  0.079163  0  0.968896  0  0  0.088341  0  1.035349  0  0  0.090469  0  1.033291  0  0  0.116602  0.086768  0  1.036765  0
H  H26  1  0.30321699  0.12416061  0.57449350  1  0  0.079185  0  0.96886  0  0  0.088343  0  1.035335  0  0  0.090466  0  1.03328  0  0  0.116602  0.086769  0  1.03675  0
H  H27  1  0.69678373  0.87583845  0.57449355  1  0  0.079151  0  0.968885  0  0  0.088324  0  1.03534  0  0  0.090473  0  1.033252  0  0  0.116603  0.086749  0  1.036761  0
C  C28  1  0.32018109  0.80658894  0.79569857  1  0  0.205839  0  3.689919  0  0  0.189683  0  3.940561  0  0  0.200576  0  3.955875  0  0  0.140497  0.182354  0  3.930476  0
C  C29  1  0.67981831  0.19341151  0.79569849  1  0  0.20582  0  3.68985  0  0  0.189675  0  3.940485  0  0  0.200565  0  3.955799  0  0  0.140493  0.182355  0  3.930402  0
C  C30  1  0.80658731  0.67981936  0.20430054  1  0  0.205827  0  3.689941  0  0  0.189684  0  3.940548  0  0  0.200576  0  3.955862  0  0  0.140497  0.182361  0  3.930457  0
C  C31  1  0.19341237  0.32018062  0.20430054  1  0  0.205843  0  3.689874  0  0  0.189701  0  3.940539  0  0  0.200578  0  3.955843  0  0  0.140485  0.182379  0  3.930461  0
C  C32  1  0.82017892  0.69341221  0.29569902  1  0  0.205845  0  3.689827  0  0  0.189683  0  3.940486  0  0  0.200576  0  3.955798  0  0  0.140487  0.182365  0  3.930373  0
C  C33  1  0.17981951  0.30658905  0.29569963  1  0  0.205921  0  3.689824  0  0  0.189657  0  3.9406  0  0  0.200613  0  3.955825  0  0  0.140496  0.182308  0  3.930549  0
C  C34  1  0.30658708  0.82018049  0.70430072  1  0  0.205816  0  3.68994  0  0  0.18966  0  3.940586  0  0  0.200553  0  3.955898  0  0  0.140484  0.182338  0  3.930493  0
C  C35  1  0.69341115  0.17981988  0.70430063  1  0  0.205906  0  3.689869  0  0  0.189707  0  3.940568  0  0  0.200609  0  3.955868  0  0  0.140483  0.182357  0  3.930514  0
C  C36  1  0.18549932  0.80827434  0.84839635  1  0  -0.107905  0  3.672774  0  0  -0.09014  0  3.907655  0  0  -0.101281  0  3.92647  0  0  -0.000254  -0.083371  0  3.895535  0
C  C37  1  0.81450248  0.19172493  0.84839564  1  0  -0.107912  0  3.672719  0  0  -0.090143  0  3.907599  0  0  -0.101285  0  3.926416  0  0  -0.000246  -0.083373  0  3.895475  0
C  C38  1  0.80827529  0.81450093  0.15160401  1  0  -0.107934  0  3.67276  0  0  -0.090167  0  3.907636  0  0  -0.101307  0  3.92645  0  0  -0.000274  -0.0834  0  3.895515  0
C  C39  1  0.19172563  0.18549900  0.15160399  1  0  -0.10802  0  3.672797  0  0  -0.090247  0  3.907672  0  0  -0.101389  0  3.92649  0  0  -0.000277  -0.083477  0  3.895552  0
C  C40  1  0.68549836  0.69172548  0.34839618  1  0  -0.107933  0  3.672683  0  0  -0.090164  0  3.90757  0  0  -0.101306  0  3.926385  0  0  -0.000267  -0.083397  0  3.895449  0
C  C41  1  0.31450004  0.30827582  0.34839616  1  0  -0.107972  0  3.672777  0  0  -0.090156  0  3.907662  0  0  -0.101316  0  3.92646  0  0  -0.000268  -0.08338  0  3.895545  0
C  C42  1  0.30827490  0.68549888  0.65160416  1  0  -0.107905  0  3.67273  0  0  -0.090136  0  3.907615  0  0  -0.101276  0  3.92643  0  0  -0.000265  -0.083368  0  3.895491  0
C  C43  1  0.69172457  0.31450146  0.65160471  1  0  -0.107964  0  3.672797  0  0  -0.090166  0  3.907662  0  0  -0.101308  0  3.926473  0  0  -0.000249  -0.08339  0  3.895546  0
C  C44  1  0.21340643  0.80983253  0.93257116  1  0  0.01249  0  3.660295  0  0  -0.018316  0  3.911901  0  0  -0.011406  0  3.926458  0  0  -0.053451  -0.022574  0  3.902155  0
C  C45  1  0.78659291  0.19016802  0.93257167  1  0  0.012582  0  3.660337  0  0  -0.018229  0  3.911938  0  0  -0.011315  0  3.926495  0  0  -0.053405  -0.022488  0  3.902192  0
C  C46  1  0.80983223  0.78659381  0.06742859  1  0  0.012555  0  3.660316  0  0  -0.018259  0  3.911924  0  0  -0.011348  0  3.92648  0  0  -0.053434  -0.022516  0  3.902177  0
C  C47  1  0.19016752  0.21340849  0.06742796  1  0  0.012582  0  3.660279  0  0  -0.018217  0  3.91186  0  0  -0.011304  0  3.926418  0  0  -0.05341  -0.022475  0  3.902114  0
C  C48  1  0.71340789  0.69016739  0.43257160  1  0  0.01255  0  3.660298  0  0  -0.018261  0  3.911901  0  0  -0.01135  0  3.926461  0  0  -0.053419  -0.022519  0  3.902153  0
C  C49  1  0.28659168  0.30983155  0.43257159  1  0  0.012514  0  3.660319  0  0  -0.018301  0  3.911906  0  0  -0.011388  0  3.926462  0  0  -0.053438  -0.022557  0  3.902157  0
C  C50  1  0.30983308  0.71340594  0.56742874  1  0  0.012556  0  3.660286  0  0  -0.018256  0  3.911888  0  0  -0.011345  0  3.926444  0  0  -0.053427  -0.022514  0  3.90214  0
C  C51  1  0.69016886  0.28659069  0.56742867  1  0  0.01252  0  3.66035  0  0  -0.018278  0  3.911932  0  0  -0.011369  0  3.926486  0  0  -0.053431  -0.022535  0  3.902182  0
C  C52  1  0.37132694  0.80693098  0.96250070  1  0  -0.125939  0  3.727526  0  0  -0.138085  0  3.981937  0  0  -0.14638  0  4.002216  0  0  -0.08166  -0.132963  0  3.968488  0
C  C53  1  0.62867359  0.19307203  0.96250063  1  0  -0.126056  0  3.727604  0  0  -0.138181  0  3.982029  0  0  -0.146475  0  4.002297  0  0  -0.081709  -0.133059  0  3.968581  0
C  C54  1  0.80693048  0.62867346  0.03749963  1  0  -0.125973  0  3.727586  0  0  -0.138107  0  3.982022  0  0  -0.146401  0  4.002293  0  0  -0.081687  -0.132985  0  3.968574  0
C  C55  1  0.19307050  0.37132760  0.03749903  1  0  -0.126023  0  3.727597  0  0  -0.138146  0  3.982039  0  0  -0.14644  0  4.002312  0  0  -0.081718  -0.133023  0  3.96859  0
C  C56  1  0.87132598  0.69306915  0.46250053  1  0  -0.125987  0  3.727613  0  0  -0.138129  0  3.982022  0  0  -0.146426  0  4.002297  0  0  -0.081695  -0.133007  0  3.968572  0
C  C57  1  0.12867237  0.30692981  0.46250054  1  0  -0.126001  0  3.727591  0  0  -0.138116  0  3.982027  0  0  -0.146411  0  4.002301  0  0  -0.081706  -0.132994  0  3.968575  0
C  C58  1  0.30693030  0.87132747  0.53749981  1  0  -0.125979  0  3.727612  0  0  -0.138112  0  3.982041  0  0  -0.146407  0  4.002313  0  0  -0.081692  -0.132989  0  3.968591  0
C  C59  1  0.69307286  0.12867277  0.53749971  1  0  -0.125963  0  3.727596  0  0  -0.138113  0  3.982043  0  0  -0.146407  0  4.00232  0  0  -0.08168  -0.13299  0  3.968592  0
C  C60  1  0.49772691  0.80388993  0.90650940  1  0  0.139232  0  3.710318  0  0  0.107106  0  3.959533  0  0  0.115885  0  3.977595  0  0  0.047712  0.101563  0  3.947167  0
C  C61  1  0.50227244  0.19610939  0.90651056  1  0  0.139253  0  3.710138  0  0  0.107136  0  3.959335  0  0  0.115931  0  3.977402  0  0  0.047749  0.101592  0  3.94697  0
C  C62  1  0.80389050  0.50227246  0.09349030  1  0  0.139282  0  3.710256  0  0  0.107156  0  3.959455  0  0  0.115948  0  3.977519  0  0  0.047739  0.101612  0  3.947091  0
C  C63  1  0.19610924  0.49772742  0.09348973  1  0  0.139246  0  3.710293  0  0  0.10712  0  3.959477  0  0  0.115912  0  3.977541  0  0  0.047728  0.101577  0  3.947112  0
C  C64  1  0.99772716  0.69611031  0.40650984  1  0  0.139267  0  3.710241  0  0  0.107135  0  3.959443  0  0  0.115928  0  3.977508  0  0  0.047722  0.10159  0  3.94708  0
C  C65  1  0.00227243  0.30388983  0.40650986  1  0  0.139264  0  3.710287  0  0  0.107138  0  3.959459  0  0  0.115929  0  3.977529  0  0  0.047733  0.101596  0  3.947092  0
C  C66  1  0.30389047  0.99772851  0.59349051  1  0  0.139239  0  3.710313  0  0  0.107126  0  3.959511  0  0  0.115923  0  3.977579  0  0  0.047725  0.101583  0  3.947146  0
C  C67  1  0.69611145  0.00227178  0.59349039  1  0  0.1393  0  3.710224  0  0  0.107177  0  3.959427  0  0  0.115957  0  3.97749  0  0  0.047726  0.101633  0  3.947058  0
C  C68  1  0.01519612  0.80475538  0.81625218  1  0  0.643164  0  3.922173  0  0  0.594343  0  4.20992  0  0  0.629577  0  4.204678  0  0  0.193017  0.570533  0  4.212525  0
C  C69  1  0.98480449  0.19524388  0.81625206  1  0  0.643097  0  3.922108  0  0  0.59427  0  4.209869  0  0  0.629503  0  4.204628  0  0  0.192993  0.57046  0  4.212472  0
C  C70  1  0.80475653  0.98480395  0.18374760  1  0  0.643142  0  3.922135  0  0  0.594333  0  4.209875  0  0  0.629567  0  4.204633  0  0  0.19308  0.570523  0  4.21248  0
C  C71  1  0.19524437  0.01519479  0.18374815  1  0  0.643119  0  3.922119  0  0  0.594303  0  4.209855  0  0  0.629534  0  4.204616  0  0  0.193009  0.570493  0  4.212458  0
C  C72  1  0.51519516  0.69524301  0.31625201  1  0  0.643107  0  3.922078  0  0  0.594285  0  4.209833  0  0  0.629518  0  4.204592  0  0  0.193031  0.570475  0  4.212437  0
C  C73  1  0.48480447  0.30475584  0.31625197  1  0  0.643117  0  3.922103  0  0  0.594282  0  4.209864  0  0  0.629515  0  4.204625  0  0  0.193007  0.570473  0  4.212466  0
C  C74  1  0.30475593  0.51519588  0.68374771  1  0  0.643072  0  3.922152  0  0  0.594245  0  4.20991  0  0  0.629478  0  4.20467  0  0  0.192983  0.570435  0  4.212513  0
C  C75  1  0.69524473  0.48480448  0.68374769  1  0  0.643084  0  3.922224  0  0  0.594238  0  4.209997  0  0  0.629471  0  4.204756  0  0  0.192958  0.570428  0  4.212599  0
N  N76  1  0.47295791  0.80607492  0.82527500  1  0  -0.366141  0  3.24743  0  0  -0.295187  0  3.519508  0  0  -0.316663  0  3.536673  0  0  -0.326488  -0.28066  0  3.507553  0
N  N77  1  0.52704269  0.19392434  0.82527555  1  0  -0.366194  0  3.247243  0  0  -0.295246  0  3.519337  0  0  -0.31672  0  3.536494  0  0  -0.326526  -0.280717  0  3.507378  0
N  N78  1  0.80607553  0.52704148  0.17472470  1  0  -0.36617  0  3.247372  0  0  -0.295227  0  3.519465  0  0  -0.316702  0  3.536624  0  0  -0.326509  -0.280702  0  3.50751  0
N  N79  1  0.19392417  0.47295725  0.17472473  1  0  -0.366148  0  3.247323  0  0  -0.295193  0  3.519414  0  0  -0.316668  0  3.536576  0  0  -0.326493  -0.280665  0  3.507457  0
N  N80  1  0.97295695  0.69392523  0.32527544  1  0  -0.366157  0  3.247282  0  0  -0.295206  0  3.519372  0  0  -0.31668  0  3.536529  0  0  -0.326488  -0.280681  0  3.507417  0
N  N81  1  0.02704268  0.30607606  0.32527485  1  0  -0.366188  0  3.247304  0  0  -0.295203  0  3.519428  0  0  -0.316697  0  3.536565  0  0  -0.326501  -0.280669  0  3.50748  0
N  N82  1  0.30607548  0.97295834  0.67472491  1  0  -0.366157  0  3.247456  0  0  -0.295203  0  3.519533  0  0  -0.316678  0  3.536689  0  0  -0.32649  -0.280677  0  3.507574  0
N  N83  1  0.69392398  0.02704322  0.67472540  1  0  -0.366188  0  3.247307  0  0  -0.295228  0  3.519415  0  0  -0.316707  0  3.536578  0  0  -0.326493  -0.280693  0  3.507467  0
O  O84  1  0.89778892  0.81046344  0.86694298  1  0  -0.648864  0  1.930719  0  0  -0.587983  0  2.168632  0  0  -0.61812  0  2.161476  0  0  -0.329841  -0.566729  0  2.172662  0
O  O85  1  0.10221166  0.18953706  0.86694296  1  0  -0.64886  0  1.93073  0  0  -0.587968  0  2.168639  0  0  -0.618104  0  2.161479  0  0  -0.329847  -0.566714  0  2.172669  0
O  O86  1  0.81046476  0.10220974  0.13305666  1  0  -0.648843  0  1.930709  0  0  -0.587972  0  2.168632  0  0  -0.618108  0  2.161473  0  0  -0.329874  -0.566719  0  2.172661  0
O  O87  1  0.18953617  0.89779018  0.13305678  1  0  -0.648834  0  1.93071  0  0  -0.587965  0  2.16864  0  0  -0.618101  0  2.161482  0  0  -0.32985  -0.566711  0  2.17267  0
O  O88  1  0.39778877  0.68953665  0.36694287  1  0  -0.648822  0  1.930686  0  0  -0.587946  0  2.168607  0  0  -0.618081  0  2.161448  0  0  -0.32985  -0.566692  0  2.172637  0
O  O89  1  0.60220963  0.31046346  0.36694282  1  0  -0.648829  0  1.930724  0  0  -0.58795  0  2.168653  0  0  -0.618085  0  2.161495  0  0  -0.329833  -0.566696  0  2.172682  0
O  O90  1  0.31046341  0.39779084  0.63305685  1  0  -0.64883  0  1.930756  0  0  -0.587953  0  2.168691  0  0  -0.618089  0  2.161532  0  0  -0.329825  -0.566699  0  2.17272  0
O  O91  1  0.68953728  0.60220948  0.63305685  1  0  -0.648837  0  1.930748  0  0  -0.587952  0  2.168683  0  0  -0.61809  0  2.161529  0  0  -0.329828  -0.566697  0  2.172713  0
O  O92  1  0.99545844  0.79616614  0.73926675  1  0  -0.600566  0  1.951287  0  0  -0.538055  0  2.178755  0  0  -0.568048  0  2.172835  0  0  -0.317387  -0.516909  0  2.181928  0
O  O93  1  0.00454220  0.20383305  0.73926614  1  0  -0.600549  0  1.951191  0  0  -0.538024  0  2.178644  0  0  -0.568021  0  2.172734  0  0  -0.317386  -0.516878  0  2.181814  0
O  O94  1  0.79616614  0.00454162  0.26073348  1  0  -0.600578  0  1.951254  0  0  -0.538079  0  2.178732  0  0  -0.568073  0  2.172811  0  0  -0.317421  -0.516934  0  2.181905  0
O  O95  1  0.20383352  0.99545840  0.26073362  1  0  -0.600542  0  1.951231  0  0  -0.538014  0  2.178669  0  0  -0.568013  0  2.172763  0  0  -0.31737  -0.516868  0  2.181839  0
O  O96  1  0.49545709  0.70383275  0.23926603  1  0  -0.600555  0  1.951199  0  0  -0.538039  0  2.178662  0  0  -0.568034  0  2.172746  0  0  -0.317394  -0.516894  0  2.181835  0
O  O97  1  0.50454258  0.29616604  0.23926599  1  0  -0.600565  0  1.951196  0  0  -0.538038  0  2.178655  0  0  -0.568033  0  2.172739  0  0  -0.317391  -0.516892  0  2.181827  0
O  O98  1  0.29616611  0.49545783  0.76073369  1  0  -0.600535  0  1.951213  0  0  -0.538015  0  2.178675  0  0  -0.568009  0  2.172757  0  0  -0.317375  -0.516869  0  2.181846  0
O  O99  1  0.70383452  0.50454258  0.76073367  1  0  -0.600514  0  1.951243  0  0  -0.537998  0  2.178721  0  0  -0.567993  0  2.172806  0  0  -0.317348  -0.516852  0  2.181892  0
