# generated using pymatgen
data_AgH8C13N2(OF)3
_symmetry_space_group_name_H-M   'P 1'
_cell_length_a   8.27137861
_cell_length_b   19.99625317
_cell_length_c   19.99726962
_cell_angle_alpha   118.13486952
_cell_angle_beta   97.95905359
_cell_angle_gamma   97.91469674
_symmetry_Int_Tables_number   1
_chemical_formula_structural   AgH8C13N2(OF)3
_chemical_formula_sum   'Ag6 H48 C78 N12 O18 F18'
_cell_volume   2809.46385008
_cell_formula_units_Z   6
loop_
 _symmetry_equiv_pos_site_id
 _symmetry_equiv_pos_as_xyz
  1  'x, y, z'
loop_
 _atom_site_type_symbol
 _atom_site_label
 _atom_site_symmetry_multiplicity
 _atom_site_fract_x
 _atom_site_fract_y
 _atom_site_fract_z
 _atom_site_occupancy
 _atom_site_pbe_bader_charge
 _atom_site_pbe_bader_spin_density
 _atom_site_pbe_cm5_charge
 _atom_site_pbe_ddec_charge
 _atom_site_pbe_ddec_spin_density
 _atom_site_pbe_ddec_sum_bond_order
 _atom_site_pbe_magmom
Ag  Ag0  1  0.34838091  0.53497461  0.02397604  1  0.572736  0  0.461982  0.330591  0  1.93443  0
Ag  Ag1  1  0.81347000  0.48914951  0.46519606  1  0.569635  0  0.46195  0.33051  0  1.935107  0
Ag  Ag2  1  0.32469160  0.97602232  0.51098647  1  0.568071  0  0.462236  0.330358  0  1.937356  0
Ag  Ag3  1  0.65161698  0.46502357  0.97602373  1  0.572747  0  0.461993  0.330564  0  1.934504  0
Ag  Ag4  1  0.18653393  0.51085099  0.53480516  1  0.569988  0  0.461952  0.330496  0  1.935189  0
Ag  Ag5  1  0.67530018  0.02397585  0.48901294  1  0.568057  0  0.462263  0.330416  0  1.93732  0
H  H6  1  0.04948493  0.41066426  0.99295341  1  0.161947  0  0.116336  0.102729  0  1.022745  0
H  H7  1  0.63939931  0.58255141  0.58952988  1  0.155304  0  0.11641  0.102806  0  1.022241  0
H  H8  1  0.05703684  0.00681906  0.41744934  1  0.186627  0  0.116529  0.10281  0  1.02413  0
H  H9  1  0.95050563  0.58933391  0.00704542  1  0.162002  0  0.116345  0.102771  0  1.02269  0
H  H10  1  0.36060735  0.41744967  0.41047327  1  0.1553  0  0.116401  0.102762  0  1.022273  0
H  H11  1  0.94295854  0.99318145  0.58255238  1  0.186611  0  0.116505  0.102774  0  1.024163  0
H  H12  1  0.80494836  0.31323958  0.88417120  1  0.106892  0  0.103765  0.112025  0  1.019816  0
H  H13  1  0.49214215  0.57132299  0.68689374  1  0.120854  0  0.104224  0.112867  0  1.019935  0
H  H14  1  0.92044462  0.11531381  0.42871642  1  0.114273  0  0.10373  0.112084  0  1.019744  0
H  H15  1  0.19503727  0.68676092  0.11582795  1  0.106883  0  0.103786  0.112036  0  1.019759  0
H  H16  1  0.50786851  0.42867635  0.31310982  1  0.120389  0  0.104268  0.112856  0  1.019942  0
H  H17  1  0.07955351  0.88468728  0.57128424  1  0.114295  0  0.103724  0.112098  0  1.019768  0
H  H18  1  0.76847535  0.30852573  0.75412659  1  0.154193  0  0.113231  0.121999  0  1.00313  0
H  H19  1  0.45971218  0.44586572  0.69143419  1  0.138631  0  0.113345  0.122006  0  1.002962  0
H  H20  1  0.01359394  0.24538017  0.55409494  1  0.139117  0  0.113172  0.121874  0  1.003116  0
H  H21  1  0.23151791  0.69147536  0.24587177  1  0.154181  0  0.113275  0.122045  0  1.003109  0
H  H22  1  0.54029210  0.55413304  0.30856723  1  0.138671  0  0.113331  0.122011  0  1.002965  0
H  H23  1  0.98640907  0.75462092  0.44590550  1  0.139135  0  0.113157  0.121877  0  1.003128  0
H  H24  1  0.21645661  0.49429041  0.85487131  1  0.145796  0  0.11763  0.09996  0  1.02039  0
H  H25  1  0.72176124  0.36062195  0.50573233  1  0.139394  0  0.117747  0.100393  0  1.019792  0
H  H26  1  0.36169235  0.14511700  0.63938004  1  0.155721  0  0.117529  0.100132  0  1.020097  0
H  H27  1  0.78354866  0.50570543  0.14512779  1  0.145769  0  0.117626  0.099934  0  1.020334  0
H  H28  1  0.27824026  0.63937855  0.49426775  1  0.139232  0  0.117729  0.100359  0  1.019787  0
H  H29  1  0.63830518  0.85488292  0.36062203  1  0.155856  0  0.117531  0.100139  0  1.020122  0
H  H30  1  0.94553448  0.54989633  0.82031555  1  0.165634  0  0.107803  0.122077  0  1.040582  0
H  H31  1  0.39488725  0.27040996  0.44992645  1  0.149902  0  0.107546  0.121772  0  1.041438  0
H  H32  1  0.12435250  0.17952047  0.72943423  1  0.159762  0  0.107603  0.121907  0  1.040896  0
H  H33  1  0.05446912  0.45010592  0.17968497  1  0.165564  0  0.1078  0.122082  0  1.040543  0
H  H34  1  0.60510972  0.72958879  0.55007104  1  0.149842  0  0.107551  0.121778  0  1.041467  0
H  H35  1  0.87564167  0.82048004  0.27056642  1  0.159723  0  0.107608  0.121919  0  1.040863  0
H  H36  1  0.01940213  0.66396946  0.79991915  1  0.092506  0  0.116634  0.126649  0  0.971118  0
H  H37  1  0.35502317  0.13595982  0.33583963  1  0.10865  0  0.116309  0.126792  0  0.971168  0
H  H38  1  0.21880119  0.19992415  0.86390836  1  0.094906  0  0.116353  0.126783  0  0.971097  0
H  H39  1  0.98059753  0.33603221  0.20007937  1  0.092439  0  0.116635  0.126675  0  0.97108  0
H  H40  1  0.64497567  0.86403777  0.66415692  1  0.108736  0  0.116322  0.126836  0  0.971167  0
H  H41  1  0.78118990  0.80007753  0.13609216  1  0.094883  0  0.116406  0.126836  0  0.971069  0
H  H42  1  0.12645571  0.64412476  0.68241575  1  0.128596  0  0.112345  0.088584  0  1.024893  0
H  H43  1  0.48227594  0.03835751  0.35570116  1  0.122164  0  0.112409  0.089287  0  1.024898  0
H  H44  1  0.44382729  0.31731161  0.96157393  1  0.127521  0  0.112414  0.088751  0  1.024672  0
H  H45  1  0.87354550  0.35587516  0.31758303  1  0.128625  0  0.112358  0.088605  0  1.024859  0
H  H46  1  0.51772772  0.96164242  0.64429727  1  0.12212  0  0.112411  0.089289  0  1.02486  0
H  H47  1  0.55616602  0.68268715  0.03842484  1  0.127525  0  0.112414  0.088767  0  1.024656  0
H  H48  1  0.09471232  0.40972005  0.60703211  1  0.148944  0  0.123  0.104348  0  1.000423  0
H  H49  1  0.68474062  0.19739387  0.59016683  1  0.147869  0  0.122895  0.103476  0  1.000647  0
H  H50  1  0.48738228  0.39272552  0.80260223  1  0.148775  0  0.122967  0.103972  0  0.999466  0
H  H51  1  0.90528918  0.59028045  0.39296846  1  0.148933  0  0.122993  0.104331  0  1.000465  0
H  H52  1  0.31526002  0.80260489  0.40983037  1  0.147812  0  0.122874  0.103431  0  1.000627  0
H  H53  1  0.51262136  0.60727440  0.19739820  1  0.14877  0  0.122984  0.103976  0  0.999476  0
C  C54  1  0.02685633  0.40620335  0.93573834  1  0.442429  0  0.047556  0.083161  0  3.91213  0
C  C55  1  0.62102008  0.52979072  0.59396364  1  0.444274  0  0.048768  0.085372  0  3.91422  0
C  C56  1  0.09136329  0.06402589  0.47021790  1  0.388992  0  0.04825  0.084894  0  3.913529  0
C  C57  1  0.97313789  0.59379482  0.06426171  1  0.443074  0  0.047516  0.083058  0  3.911971  0
C  C58  1  0.37898600  0.47020921  0.40603843  1  0.444215  0  0.048815  0.085418  0  3.914241  0
C  C59  1  0.90863304  0.93597403  0.52978210  1  0.389035  0  0.048237  0.084918  0  3.913567  0
C  C60  1  0.89158933  0.35259157  0.87507945  1  -0.028992  0  -0.085878  -0.135097  0  4.016785  0
C  C61  1  0.53921682  0.52279561  0.64751936  1  -0.054201  0  -0.0873  -0.138149  0  4.021047  0
C  C62  1  0.01625644  0.12451661  0.47723158  1  -0.026324  0  -0.087282  -0.136705  0  4.020397  0
C  C63  1  0.10840397  0.64740719  0.12492033  1  -0.029129  0  -0.085912  -0.13507  0  4.016612  0
C  C64  1  0.46079262  0.47720373  0.35248363  1  -0.053511  0  -0.087385  -0.138155  0  4.021119  0
C  C65  1  0.98374110  0.87548332  0.52276899  1  -0.026361  0  -0.087226  -0.136675  0  4.020385  0
C  C66  1  0.87176261  0.34959193  0.80348599  1  -0.006393  0  -0.053365  -0.031319  0  3.880148  0
C  C67  1  0.52199279  0.45413965  0.65041489  1  0.012817  0  -0.053321  -0.03004  0  3.880806  0
C  C68  1  0.06777663  0.19612074  0.54584849  1  -0.006269  0  -0.052926  -0.031045  0  3.881627  0
C  C69  1  0.12823924  0.65040682  0.19651278  1  -0.006459  0  -0.05339  -0.031359  0  3.880054  0
C  C70  1  0.47801392  0.54585911  0.34958766  1  0.012532  0  -0.053279  -0.029995  0  3.880757  0
C  C71  1  0.93222487  0.80387976  0.45415208  1  -0.006266  0  -0.052967  -0.031147  0  3.881731  0
C  C72  1  0.98618694  0.40233180  0.79536684  1  -0.017862  0  -0.00743  -0.042087  0  3.947189  0
C  C73  1  0.58352648  0.39319034  0.59766101  1  -0.00082  0  -0.007753  -0.043496  0  3.950805  0
C  C74  1  0.19058259  0.20441211  0.60676629  1  0.004879  0  -0.008103  -0.043428  0  3.948812  0
C  C75  1  0.01381398  0.59766754  0.20463315  1  -0.017663  0  -0.007416  -0.042093  0  3.947078  0
C  C76  1  0.41647781  0.60680842  0.40233941  1  0.001177  0  -0.007768  -0.043609  0  3.950866  0
C  C77  1  0.80941676  0.79558898  0.39323493  1  0.00485  0  -0.008072  -0.043337  0  3.948753  0
C  C78  1  0.11915366  0.45442388  0.85885729  1  0.479376  0  0.058391  0.071237  0  3.858959  0
C  C79  1  0.66453895  0.40456531  0.54564535  1  0.464288  0  0.058173  0.071138  0  3.861328  0
C  C80  1  0.26041788  0.14105050  0.59542745  1  0.451636  0  0.058378  0.071365  0  3.85939  0
C  C81  1  0.88084789  0.54557430  0.14114270  1  0.479372  0  0.058407  0.071343  0  3.858804  0
C  C82  1  0.33546197  0.59543403  0.45435414  1  0.462434  0  0.058189  0.071224  0  3.861204  0
C  C83  1  0.73957722  0.85894942  0.40457348  1  0.451482  0  0.058396  0.071379  0  3.859303  0
C  C84  1  0.96832421  0.39854512  0.71847283  1  0.953392  0  0.169455  0.370855  0  3.981346  0
C  C85  1  0.56934377  0.32002308  0.60132339  1  0.956357  0  0.170567  0.371972  0  3.980929  0
C  C86  1  0.24945711  0.28130622  0.67990046  1  0.955403  0  0.170748  0.37143  0  3.982965  0
C  C87  1  0.03167421  0.60145655  0.28152762  1  0.953397  0  0.16938  0.370755  0  3.981134  0
C  C88  1  0.43065751  0.67997451  0.39867380  1  0.956121  0  0.17053  0.371843  0  3.980899  0
C  C89  1  0.75054317  0.71869428  0.32010005  1  0.955425  0  0.1708  0.371456  0  3.982873  0
C  C90  1  0.01887967  0.47130082  0.71554486  1  -0.066588  0  -0.009711  -0.054117  0  3.960592  0
C  C91  1  0.54712782  0.24432183  0.52858027  1  -0.09809  0  -0.010295  -0.055027  0  3.962806  0
C  C92  1  0.30276469  0.28426652  0.75561275  1  -0.038695  0  -0.009439  -0.052722  0  3.962143  0
C  C93  1  0.98112363  0.52870085  0.28445637  1  -0.0666  0  -0.009722  -0.054089  0  3.960534  0
C  C94  1  0.45287282  0.75567692  0.47141793  1  -0.098258  0  -0.010318  -0.054951  0  3.962862  0
C  C95  1  0.69723314  0.71573398  0.24438811  1  -0.038755  0  -0.009423  -0.052751  0  3.962144  0
C  C96  1  0.99812052  0.54369999  0.77097318  1  -0.039429  0  -0.055704  -0.047895  0  3.890678  0
C  C97  1  0.45384960  0.22730794  0.45616565  1  0.036306  0  -0.055126  -0.046373  0  3.888158  0
C  C98  1  0.22640271  0.22888069  0.77258582  1  -0.057608  0  -0.056092  -0.047889  0  3.888915  0
C  C99  1  0.00188430  0.45630226  0.22902791  1  -0.039397  0  -0.055762  -0.047975  0  3.890634  0
C  C100  1  0.54615075  0.77269023  0.54383076  1  0.036358  0  -0.055159  -0.046388  0  3.888322  0
C  C101  1  0.77359146  0.77111982  0.22741483  1  -0.057838  0  -0.056082  -0.047844  0  3.888903  0
C  C102  1  0.03687007  0.60694339  0.75925294  1  -0.000216  0  -0.077964  -0.109958  0  3.958303  0
C  C103  1  0.42955014  0.15234174  0.39289422  1  -0.01729  0  -0.077894  -0.110638  0  3.958255  0
C  C104  1  0.27700563  0.24057869  0.84756022  1  0.002304  0  -0.077023  -0.109866  0  3.956989  0
C  C105  1  0.96313325  0.39305829  0.24074679  1  -0.000515  0  -0.077914  -0.109953  0  3.95826  0
C  C106  1  0.57045113  0.84765585  0.60710247  1  -0.017338  0  -0.077945  -0.110795  0  3.958554  0
C  C107  1  0.72298605  0.75942415  0.15244138  1  0.00266  0  -0.077019  -0.109881  0  3.957049  0
C  C108  1  0.09586952  0.59646310  0.69402708  1  0.467303  0  0.048704  0.088374  0  3.915491  0
C  C109  1  0.49924086  0.09762075  0.40337650  1  0.461144  0  0.048558  0.086957  0  3.91768  0
C  C110  1  0.40150802  0.30574274  0.90231342  1  0.484595  0  0.048029  0.087194  0  3.916867  0
C  C111  1  0.90413198  0.40353741  0.30597199  1  0.467687  0  0.048715  0.088393  0  3.91548  0
C  C112  1  0.50076344  0.90237801  0.59662142  1  0.461252  0  0.048599  0.087038  0  3.917776  0
C  C113  1  0.59848766  0.69425835  0.09768809  1  0.484664  0  0.04804  0.087195  0  3.916934  0
C  C114  1  0.07813437  0.46535427  0.65113151  1  0.530729  0  0.0625  0.087286  0  3.865825  0
C  C115  1  0.61246284  0.18585132  0.53451270  1  0.508639  0  0.062397  0.088119  0  3.868136  0
C  C116  1  0.42658376  0.34864389  0.81413019  1  0.503136  0  0.062276  0.086472  0  3.867421  0
C  C117  1  0.92186771  0.53464740  0.34886915  1  0.530788  0  0.062448  0.087198  0  3.86587  0
C  C118  1  0.38753751  0.81414685  0.46548421  1  0.508982  0  0.062403  0.088098  0  3.868047  0
C  C119  1  0.57341838  0.65135544  0.18586987  1  0.503159  0  0.06221  0.086421  0  3.867485  0
C  C120  1  0.36628368  0.43466386  0.10687215  1  1.693863  0  0.176989  0.417736  0  4.376378  0
C  C121  1  0.93173905  0.67255568  0.56545694  1  1.679947  0  0.177811  0.419373  0  4.378453  0
C  C122  1  0.25934935  0.89308761  0.32761460  1  1.697189  0  0.176431  0.416272  0  4.377699  0
C  C123  1  0.63371789  0.56533432  0.89312483  1  1.693977  0  0.177085  0.417841  0  4.37649  0
C  C124  1  0.06826218  0.32744424  0.43453985  1  1.679948  0  0.177889  0.419337  0  4.378628  0
C  C125  1  0.74064573  0.10691231  0.67238883  1  1.697552  0  0.17648  0.416171  0  4.377688  0
C  C126  1  0.40160272  0.37450919  0.13310416  1  1.643362  0  0.287146  0.577689  0  3.993031  0
C  C127  1  0.02765478  0.75890271  0.62551031  1  1.656671  0  0.28631  0.576907  0  3.992198  0
C  C128  1  0.26836240  0.86677184  0.24120898  1  1.650795  0  0.287139  0.57829  0  3.98877  0
C  C129  1  0.59840757  0.62549423  0.86689781  1  1.643586  0  0.287125  0.577982  0  3.992722  0
C  C130  1  0.97234123  0.24109896  0.37448649  1  1.656741  0  0.28635  0.577177  0  3.991876  0
C  C131  1  0.73163053  0.13322867  0.75879459  1  1.650411  0  0.287153  0.57857  0  3.988824  0
N  N132  1  0.13993034  0.45560998  0.92747350  1  -1.212643  0  -0.344339  -0.178876  0  3.601109  0
N  N133  1  0.68444751  0.47203101  0.54452351  1  -1.200795  0  -0.34442  -0.179837  0  3.602914  0
N  N134  1  0.21278974  0.07243289  0.52797911  1  -1.196503  0  -0.344397  -0.179455  0  3.602945  0
N  N135  1  0.86006515  0.54438586  0.07252602  1  -1.213289  0  -0.344316  -0.178885  0  3.601076  0
N  N136  1  0.31555764  0.52796950  0.45547828  1  -1.200783  0  -0.344445  -0.179851  0  3.602788  0
N  N137  1  0.78720780  0.92756704  0.47202196  1  -1.196495  0  -0.344439  -0.179531  0  3.602912  0
N  N138  1  0.11655887  0.52661080  0.64071918  1  -1.212616  0  -0.345866  -0.191235  0  3.618654  0
N  N139  1  0.58974307  0.11417542  0.47325541  1  -1.212846  0  -0.345665  -0.190755  0  3.621193  0
N  N140  1  0.47555333  0.35905181  0.88580334  1  -1.208724  0  -0.346004  -0.190686  0  3.620792  0
N  N141  1  0.88344415  0.47339029  0.35928025  1  -1.212645  0  -0.345824  -0.191172  0  3.618564  0
N  N142  1  0.41025757  0.88582333  0.52674179  1  -1.212998  0  -0.345627  -0.190698  0  3.621092  0
N  N143  1  0.52444729  0.64094695  0.11419686  1  -1.208757  0  -0.34601  -0.190707  0  3.620792  0
O  O144  1  0.90864636  0.33580190  0.65748368  1  -1.08778  0  -0.241743  -0.400817  0  2.209266  0
O  O145  1  0.57252613  0.32178635  0.66406825  1  -1.076514  0  -0.241957  -0.400811  0  2.207992  0
O  O146  1  0.25093648  0.34226934  0.67810107  1  -1.077595  0  -0.24244  -0.401192  0  2.20992  0
O  O147  1  0.09135631  0.66420094  0.34251806  1  -1.087866  0  -0.24166  -0.400718  0  2.208981  0
O  O148  1  0.42747118  0.67821066  0.33592944  1  -1.076274  0  -0.241892  -0.400671  0  2.207967  0
O  O149  1  0.74906350  0.65773058  0.32190014  1  -1.077607  0  -0.242481  -0.401213  0  2.209868  0
O  O150  1  0.49105843  0.46198354  0.08986904  1  -1.166239  0  -0.336537  -0.551105  0  2.336357  0
O  O151  1  0.02886008  0.62804012  0.53812682  1  -1.169548  0  -0.336674  -0.552244  0  2.336886  0
O  O152  1  0.40111151  0.90996862  0.37194839  1  -1.16862  0  -0.336125  -0.550342  0  2.335956  0
O  O153  1  0.50893927  0.53801171  0.91012234  1  -1.166407  0  -0.336597  -0.551186  0  2.336425  0
O  O154  1  0.97114416  0.37196096  0.46187319  1  -1.169502  0  -0.33672  -0.552299  0  2.337071  0
O  O155  1  0.59888335  0.09002839  0.62805165  1  -1.168644  0  -0.336185  -0.550375  0  2.335963  0
O  O156  1  0.22184859  0.44712141  0.10404565  1  -1.166891  0  -0.326907  -0.522737  0  2.206875  0
O  O157  1  0.77485495  0.65743741  0.55308519  1  -1.150153  0  -0.327571  -0.523134  0  2.208464  0
O  O158  1  0.11779792  0.89609232  0.34289719  1  -1.170454  0  -0.326415  -0.521731  0  2.209003  0
O  O159  1  0.77815384  0.55287851  0.89595421  1  -1.166887  0  -0.326926  -0.522787  0  2.207001  0
O  O160  1  0.22514756  0.34256018  0.44691007  1  -1.1502  0  -0.327606  -0.523108  0  2.208503  0
O  O161  1  0.88219809  0.10390702  0.65710552  1  -1.170808  0  -0.326387  -0.521653  0  2.208918  0
F  F162  1  0.28505677  0.35782859  0.16829638  1  -0.631065  0  -0.108571  -0.211012  0  1.345029  0
F  F163  1  0.92822692  0.81099754  0.64222251  1  -0.642591  0  -0.108444  -0.21102  0  1.344048  0
F  F164  1  0.11652620  0.83149743  0.18925553  1  -0.635791  0  -0.108726  -0.211499  0  1.343284  0
F  F165  1  0.71496286  0.64217891  0.83171105  1  -0.631287  0  -0.108571  -0.211139  0  1.345026  0
F  F166  1  0.07176640  0.18900122  0.35777376  1  -0.642509  0  -0.108497  -0.211119  0  1.343896  0
F  F167  1  0.88346677  0.16850074  0.81074845  1  -0.635613  0  -0.108747  -0.211574  0  1.343311  0
F  F168  1  0.40407123  0.30489194  0.06999518  1  -0.622006  0  -0.118502  -0.218384  0  1.279778  0
F  F169  1  0.09981386  0.76540421  0.69513465  1  -0.620945  0  -0.117976  -0.217923  0  1.279225  0
F  F170  1  0.33399833  0.92982944  0.23467019  1  -0.622278  0  -0.11846  -0.218456  0  1.279433  0
F  F171  1  0.59593205  0.69510973  0.93000955  1  -0.622083  0  -0.11849  -0.218406  0  1.279629  0
F  F172  1  0.90018919  0.23459688  0.30486179  1  -0.621038  0  -0.117977  -0.217954  0  1.279268  0
F  F173  1  0.66599646  0.07016990  0.76533344  1  -0.621924  0  -0.118515  -0.218569  0  1.279384  0
F  F174  1  0.55462410  0.39976709  0.18417144  1  -0.62696  0  -0.110996  -0.210397  0  1.332233  0
F  F175  1  0.15541698  0.78446254  0.60014051  1  -0.628559  0  -0.110657  -0.210045  0  1.331333  0
F  F176  1  0.37027653  0.81570682  0.21546273  1  -0.627483  0  -0.110701  -0.210095  0  1.330411  0
F  F177  1  0.44539379  0.60023924  0.81582634  1  -0.626909  0  -0.111002  -0.21052  0  1.332122  0
F  F178  1  0.84457898  0.21554146  0.39985689  1  -0.62862  0  -0.110654  -0.210133  0  1.33128  0
F  F179  1  0.62971739  0.18429077  0.78453853  1  -0.6276  0  -0.110657  -0.210143  0  1.330525  0
