# generated using pymatgen
data_NiH12C10(N2O3)2
_symmetry_space_group_name_H-M   'P 1'
_cell_length_a   7.38234130
_cell_length_b   8.47469094
_cell_length_c   11.05929884
_cell_angle_alpha   90.00000977
_cell_angle_beta   90.00013231
_cell_angle_gamma   110.45466525
_symmetry_Int_Tables_number   1
_chemical_formula_structural   NiH12C10(N2O3)2
_chemical_formula_sum   'Ni2 H24 C20 N8 O12'
_cell_volume   648.27836972
_cell_formula_units_Z   2
loop_
 _symmetry_equiv_pos_site_id
 _symmetry_equiv_pos_as_xyz
  1  'x, y, z'
loop_
 _atom_site_type_symbol
 _atom_site_label
 _atom_site_symmetry_multiplicity
 _atom_site_fract_x
 _atom_site_fract_y
 _atom_site_fract_z
 _atom_site_occupancy
 _atom_site_hle17_ddec_charge
 _atom_site_hle17_ddec_spin_density
 _atom_site_hle17_ddec_sum_bond_order
 _atom_site_hle17_magmom
 _atom_site_hse06_10hf_ddec_charge
 _atom_site_hse06_10hf_ddec_spin_density
 _atom_site_hse06_10hf_ddec_sum_bond_order
 _atom_site_hse06_10hf_magmom
 _atom_site_hse06_ddec_charge
 _atom_site_hse06_ddec_spin_density
 _atom_site_hse06_ddec_sum_bond_order
 _atom_site_hse06_magmom
 _atom_site_pbe_cm5_charge
 _atom_site_pbe_ddec_charge
 _atom_site_pbe_ddec_spin_density
 _atom_site_pbe_ddec_sum_bond_order
 _atom_site_pbe_magmom
Ni  Ni0  1  0.00000056  0.50000176  0.00000101  1  0.800989  -0.045551  2.030029  -0.042  0.793617  -0.030771  2.441384  -0.034  0.90004  -0.018237  2.353532  -0.023  0.608776  0.717332  -0.043742  2.504956  -0.045
Ni  Ni1  1  0.00000018  0.00000149  0.50000005  1  0.800938  -0.045562  2.030071  -0.042  0.793554  -0.030779  2.441443  -0.034  0.89999  -0.018241  2.353605  -0.023  0.608775  0.717302  -0.043749  2.505002  -0.045
H  H2  1  0.51478046  0.45215348  0.30034317  1  0.106747  0.000172  0.981784  0.0  0.110961  0.000161  1.049752  0.0  0.113819  0.000123  1.0481  0.0  0.115277  0.108701  0.000189  1.051275  0.0
H  H3  1  0.48521918  0.04783580  0.80034855  1  0.106787  0.000162  0.981791  0.0  0.11104  0.000161  1.0497  0.0  0.113881  0.000123  1.048064  0.0  0.115307  0.108783  0.000189  1.051221  0.0
H  H4  1  0.48521781  0.54784373  0.69965782  1  0.106725  0.000172  0.98185  0.0  0.110935  0.000161  1.049812  0.0  0.113814  0.000123  1.048137  0.0  0.115251  0.108676  0.000189  1.051338  0.0
H  H5  1  0.51478422  0.95216775  0.19964973  1  0.106761  0.000163  0.981779  0.0  0.110992  0.000161  1.049716  0.0  0.113852  0.000123  1.048058  0.0  0.115297  0.108733  0.000189  1.051244  0.0
H  H6  1  0.12654737  0.35379420  0.24198657  1  0.106802  0.000155  0.998215  0.0  0.111446  0.000244  1.064689  0.0  0.113634  0.000179  1.064239  0.0  0.113896  0.109648  0.000303  1.065412  0.0
H  H7  1  0.87345120  0.14620000  0.74198980  1  0.106796  0.000148  0.998218  0.0  0.111478  0.000244  1.064649  0.0  0.113676  0.00018  1.064196  0.0  0.113897  0.109678  0.000303  1.065374  0.0
H  H8  1  0.87345227  0.64620303  0.75801352  1  0.106813  0.000147  0.998215  0.0  0.111457  0.000244  1.064686  0.0  0.113646  0.000179  1.064235  0.0  0.113907  0.109659  0.000303  1.065409  0.0
H  H9  1  0.12655172  0.85380230  0.25801119  1  0.106823  0.000149  0.998244  0.0  0.111488  0.000244  1.064697  0.0  0.113675  0.000179  1.064245  0.0  0.113909  0.109689  0.000302  1.065421  0.0
H  H10  1  0.45079328  0.71524357  0.98782619  1  0.095952  0.000171  0.939614  0.0  0.107014  0.000146  0.997273  0.0  0.109352  0.000133  0.994313  0.0  0.136167  0.105022  0.000153  0.999788  0.0
H  H11  1  0.54920480  0.78475811  0.48782079  1  0.09588  0.000172  0.939627  0.0  0.107014  0.000146  0.997221  0.0  0.109364  0.000133  0.994245  0.0  0.136155  0.10501  0.000153  0.999747  0.0
H  H12  1  0.54920738  0.28475993  0.01217752  1  0.095916  0.000169  0.939677  0.0  0.107004  0.000146  0.997309  0.0  0.109352  0.000133  0.994335  0.0  0.136159  0.104999  0.000153  0.999837  0.0
H  H13  1  0.45079539  0.21524413  0.51218020  1  0.095909  0.000168  0.939689  0.0  0.10705  0.000146  0.997272  0.0  0.109389  0.000133  0.994307  0.0  0.136172  0.105047  0.000153  0.999796  0.0
H  H14  1  0.69039512  0.66275518  0.13588174  1  0.303556  0.000162  0.92685  0.0  0.284634  0.000136  0.986956  0.0  0.29287  6.3e-05  0.980792  0.0  0.312319  0.278686  0.000233  0.991572  0.0
H  H15  1  0.30960999  0.83724005  0.63588156  1  0.303571  0.000158  0.926817  0.0  0.284646  0.000136  0.986915  0.0  0.292899  6.3e-05  0.980742  0.0  0.31231  0.278701  0.000233  0.991529  0.0
H  H16  1  0.30960732  0.33724586  0.86412016  1  0.303573  0.000162  0.926846  0.0  0.28464  0.000136  0.98695  0.0  0.292893  6.3e-05  0.980781  0.0  0.312318  0.278695  0.000233  0.991565  0.0
H  H17  1  0.69039019  0.16276219  0.36411762  1  0.303593  0.000157  0.926846  0.0  0.284656  0.000136  0.986958  0.0  0.292907  6.3e-05  0.980787  0.0  0.31232  0.278705  0.000233  0.99157  0.0
H  H18  1  0.15463415  0.55600775  0.78977814  1  0.415724  7.5e-05  0.876637  0.0  0.384927  -0.00025  0.952496  0.0  0.397485  -0.000191  0.934667  0.0  0.29606  0.375793  -0.000234  0.965418  0.0
H  H19  1  0.84536847  0.94399008  0.28977592  1  0.415701  7.7e-05  0.876671  0.0  0.384935  -0.000251  0.952476  0.0  0.397495  -0.000191  0.934645  0.0  0.296068  0.3758  -0.000234  0.965399  0.0
H  H20  1  0.84536965  0.44399331  0.21022557  1  0.415708  7.8e-05  0.8767  0.0  0.384927  -0.00025  0.952499  0.0  0.397486  -0.000191  0.93467  0.0  0.296069  0.375793  -0.000234  0.965421  0.0
H  H21  1  0.15463390  0.05600721  0.71022326  1  0.415674  7.5e-05  0.876671  0.0  0.384924  -0.00025  0.952491  0.0  0.397484  -0.000191  0.93466  0.0  0.296064  0.37579  -0.000234  0.965412  0.0
H  H22  1  0.15576011  0.73630323  0.84491458  1  0.408835  -0.000198  0.895309  0.0  0.376742  -0.000445  0.968934  0.0  0.389286  -0.000297  0.951141  0.0  0.291564  0.367672  -0.000532  0.981735  0.0
H  H23  1  0.84424282  0.76369841  0.34491591  1  0.40881  -0.000198  0.895343  0.0  0.376724  -0.000445  0.968957  0.0  0.389268  -0.000297  0.951165  0.0  0.291571  0.367652  -0.000533  0.981762  0.0
H  H24  1  0.84424144  0.26369904  0.15508551  1  0.40884  -0.000198  0.89532  0.0  0.376748  -0.000445  0.968929  0.0  0.38929  -0.000297  0.951139  0.0  0.291572  0.367677  -0.000533  0.981732  0.0
H  H25  1  0.15575730  0.23630008  0.65508599  1  0.408831  -0.0002  0.895353  0.0  0.376755  -0.000445  0.968919  0.0  0.389302  -0.000297  0.951126  0.0  0.291582  0.367685  -0.000533  0.981721  0.0
C  C26  1  0.44131108  0.49304050  0.22898418  1  -0.010698  0.001814  3.703518  0.002  -0.047983  0.000919  3.964989  0.001  -0.046201  0.000827  3.983109  0.001  -0.005456  -0.049198  0.000958  3.953532  0.001
C  C27  1  0.55869515  0.00695259  0.72898692  1  -0.010957  0.001829  3.70333  0.002  -0.048306  0.000918  3.964825  0.001  -0.046483  0.000827  3.982968  0.001  -0.005576  -0.049526  0.000958  3.953371  0.001
C  C28  1  0.55868863  0.50696049  0.77101862  1  -0.010861  0.001821  3.703474  0.002  -0.048177  0.000918  3.964959  0.001  -0.04639  0.000827  3.983079  0.001  -0.005539  -0.049391  0.000958  3.953511  0.001
C  C29  1  0.44130961  0.99305099  0.27101497  1  -0.010788  0.00183  3.70341  0.002  -0.048112  0.000918  3.96489  0.001  -0.046304  0.000827  3.983018  0.001  -0.005492  -0.049339  0.000958  3.953438  0.001
C  C30  1  0.24944196  0.44624694  0.19844051  1  -0.028963  2e-06  3.736757  0.0  -0.056568  0.000782  4.002565  0.001  -0.055048  0.000396  4.028087  0.0  -0.012779  -0.058068  0.001065  3.98611  0.001
C  C31  1  0.75055922  0.05375102  0.69843992  1  -0.028878  1.7e-05  3.736715  0.0  -0.056511  0.000783  4.002488  0.001  -0.054998  0.000396  4.028005  0.0  -0.012796  -0.058018  0.001065  3.98604  0.001
C  C32  1  0.75055953  0.55375158  0.80155958  1  -0.028894  1e-05  3.736723  0.0  -0.056505  0.000782  4.002535  0.001  -0.054982  0.000396  4.028052  0.0  -0.012772  -0.058007  0.001065  3.986081  0.001
C  C33  1  0.24944008  0.94625246  0.30155565  1  -0.029066  1e-05  3.736783  0.0  -0.056695  0.000783  4.002598  0.001  -0.05517  0.000396  4.028109  0.0  -0.012864  -0.058198  0.001065  3.986152  0.001
C  C34  1  0.41237092  0.63430617  0.06651457  1  0.210288  -0.002107  3.645972  -0.002  0.154746  0.000202  3.917955  0.0  0.17131  -0.000281  3.931876  0.0  0.137485  0.143515  0.000529  3.908852  0.0
C  C35  1  0.58762440  0.86569256  0.56651570  1  0.210308  -0.00211  3.645969  -0.002  0.154672  0.000202  3.917963  0.0  0.171256  -0.000281  3.931894  0.0  0.137459  0.143452  0.00053  3.908861  0.0
C  C36  1  0.58762605  0.36569476  0.93348732  1  0.210364  -0.002108  3.645994  -0.002  0.154766  0.000201  3.917962  0.0  0.17135  -0.000282  3.931895  0.0  0.137484  0.143549  0.00053  3.908861  0.0
C  C37  1  0.41237264  0.13431213  0.43348891  1  0.210232  -0.002102  3.646002  -0.002  0.154598  0.000202  3.917981  0.0  0.171189  -0.000281  3.931912  0.0  0.137426  0.143366  0.000529  3.908872  0.0
C  C38  1  0.93545088  0.03424083  0.07424405  1  0.186909  0.005167  3.862298  0.005  0.159146  0.001801  4.143195  0.002  0.17054  0.000968  4.156856  0.001  0.095119  0.151891  0.003014  4.132853  0.003
C  C39  1  0.06454834  0.46575322  0.57424812  1  0.186755  0.005152  3.86262  0.005  0.158986  0.0018  4.143526  0.002  0.170381  0.000968  4.157191  0.001  0.0951  0.151746  0.003014  4.133173  0.003
C  C40  1  0.06454734  0.96575263  0.92574971  1  0.186778  0.005158  3.862771  0.005  0.159007  0.0018  4.143686  0.002  0.170403  0.000968  4.157348  0.001  0.095109  0.151756  0.003014  4.133338  0.003
C  C41  1  0.93545089  0.53424650  0.42575288  1  0.186776  0.005159  3.862491  0.005  0.159003  0.0018  4.143403  0.002  0.170398  0.000968  4.157065  0.001  0.095094  0.151751  0.003014  4.133054  0.003
C  C42  1  0.97120114  0.88041246  0.03752583  1  0.180358  -2.2e-05  3.892394  -0.001  0.160115  0.000509  4.182042  0.0  0.17333  0.000102  4.194388  0.0  0.093079  0.151215  0.00114  4.172867  0.0
C  C43  1  0.02880273  0.61958765  0.53752970  1  0.18038  -2.8e-05  3.892438  -0.001  0.16013  0.000509  4.182111  0.0  0.173346  0.000102  4.194456  0.0  0.093071  0.151225  0.00114  4.172937  0.0
C  C44  1  0.02879529  0.11958346  0.96246793  1  0.180313  -2.8e-05  3.892424  -0.001  0.16005  0.000509  4.182105  0.0  0.173266  0.000102  4.194458  0.0  0.093065  0.151148  0.00114  4.172931  0.0
C  C45  1  0.97120244  0.38041344  0.46247039  1  0.18036  -3.2e-05  3.892404  -0.001  0.160121  0.00051  4.182066  0.0  0.173335  0.000102  4.194416  0.0  0.093077  0.151215  0.00114  4.172891  0.0
N  N46  1  0.23279102  0.53545248  0.09645666  1  -0.334584  0.025306  3.330144  0.022  -0.29736  0.022601  3.642816  0.019  -0.33579  0.019814  3.667133  0.016  -0.363935  -0.271238  0.023384  3.626908  0.019
N  N47  1  0.76721037  0.96454764  0.59645445  1  -0.334576  0.025301  3.330142  0.022  -0.297352  0.022599  3.642844  0.019  -0.335786  0.019814  3.66716  0.016  -0.363926  -0.271237  0.023383  3.626936  0.019
N  N48  1  0.76720917  0.46454976  0.90354524  1  -0.334565  0.025315  3.330103  0.022  -0.297337  0.022602  3.642786  0.019  -0.335763  0.019815  3.66709  0.016  -0.363926  -0.271214  0.023386  3.626869  0.019
N  N49  1  0.23279070  0.03545337  0.40354564  1  -0.334463  0.025307  3.330089  0.022  -0.297236  0.022601  3.642782  0.019  -0.33567  0.019815  3.667092  0.016  -0.363883  -0.271121  0.023384  3.626873  0.019
N  N50  1  0.54108566  0.61172134  0.14531893  1  -0.281552  0.000349  3.475246  0.001  -0.213609  0.000506  3.708816  0.001  -0.229027  0.000294  3.722363  0.0  -0.38125  -0.203645  0.000687  3.700231  0.001
N  N51  1  0.45891267  0.88827377  0.64531627  1  -0.28137  0.000355  3.474998  0.001  -0.213322  0.000506  3.708435  0.001  -0.228824  0.000294  3.722068  0.0  -0.381099  -0.203369  0.000687  3.699852  0.001
N  N52  1  0.45891085  0.38827833  0.85468387  1  -0.281478  0.000343  3.475117  0.001  -0.213458  0.000507  3.708616  0.001  -0.228956  0.000294  3.72224  0.0  -0.381136  -0.203509  0.000687  3.700036  0.001
N  N53  1  0.54108526  0.11172968  0.35468111  1  -0.281435  0.000355  3.475132  0.001  -0.213411  0.000506  3.708645  0.001  -0.22891  0.000294  3.722273  0.0  -0.381127  -0.203424  0.000687  3.700028  0.001
O  O54  1  0.85645733  0.07222609  0.16594783  1  -0.499295  0.003272  2.12869  0.003  -0.437431  0.000667  2.344097  0.001  -0.459758  0.000305  2.340273  0.0  -0.285871  -0.42085  0.00134  2.345908  0.001
O  O55  1  0.14354460  0.42777061  0.66595380  1  -0.499257  0.003286  2.12898  0.003  -0.437383  0.000667  2.344386  0.001  -0.45972  0.000305  2.340574  0.0  -0.285841  -0.420805  0.00134  2.346175  0.001
O  O56  1  0.14354456  0.92776994  0.83404774  1  -0.499226  0.003278  2.129062  0.003  -0.43737  0.000667  2.344481  0.001  -0.4597  0.000304  2.340655  0.0  -0.285828  -0.420789  0.00134  2.34628  0.001
O  O57  1  0.85645784  0.57223043  0.33404991  1  -0.499207  0.003275  2.12886  0.003  -0.437331  0.000667  2.344263  0.001  -0.459658  0.000305  2.340442  0.0  -0.285842  -0.420753  0.00134  2.346071  0.001
O  O58  1  0.93290085  0.73773655  0.08548360  1  -0.481657  0.029708  2.142494  0.03  -0.449194  0.014687  2.389828  0.015  -0.474493  0.011064  2.383604  0.011  -0.287523  -0.43023  0.018746  2.393782  0.019
O  O59  1  0.06710267  0.76225860  0.58548850  1  -0.481674  0.029712  2.142614  0.03  -0.4492  0.014685  2.38992  0.015  -0.474493  0.011062  2.38368  0.011  -0.287534  -0.43024  0.018743  2.393867  0.019
O  O60  1  0.06709415  0.26225559  0.91451106  1  -0.481649  0.029707  2.142559  0.03  -0.449162  0.014685  2.389854  0.015  -0.474447  0.011062  2.383601  0.011  -0.287516  -0.43019  0.018743  2.393784  0.019
O  O61  1  0.93289929  0.23774118  0.41451069  1  -0.481631  0.029716  2.14252  0.03  -0.44918  0.014685  2.38985  0.015  -0.474479  0.011062  2.383628  0.011  -0.287525  -0.430224  0.018743  2.393808  0.019
O  O62  1  0.17037245  0.62539742  0.86488961  1  -0.778891  -0.041252  2.026727  -0.046  -0.74437  -0.027277  2.26845  -0.029  -0.781315  -0.02438  2.231443  -0.026  -0.558568  -0.717548  -0.029101  2.294869  -0.031
O  O63  1  0.82962913  0.87460046  0.36489006  1  -0.778814  -0.04125  2.026775  -0.046  -0.744351  -0.027275  2.268516  -0.029  -0.781287  -0.024377  2.231483  -0.026  -0.55858  -0.717532  -0.029098  2.294941  -0.031
O  O64  1  0.82962951  0.37460236  0.13511228  1  -0.778861  -0.041254  2.026786  -0.046  -0.744371  -0.027277  2.268481  -0.029  -0.781307  -0.024379  2.231463  -0.026  -0.558566  -0.717547  -0.029101  2.294904  -0.031
O  O65  1  0.17037105  0.12540178  0.63510822  1  -0.778783  -0.041247  2.026759  -0.046  -0.744364  -0.027275  2.268503  -0.029  -0.781294  -0.024378  2.231436  -0.026  -0.558578  -0.717549  -0.029099  2.294922  -0.031
