# generated using pymatgen
data_Na2H14C14N2O5
_symmetry_space_group_name_H-M   'P 1'
_cell_length_a   5.64719981
_cell_length_b   8.02018942
_cell_length_c   15.45474852
_cell_angle_alpha   103.49520962
_cell_angle_beta   89.99927964
_cell_angle_gamma   90.00201531
_symmetry_Int_Tables_number   1
_chemical_formula_structural   Na2H14C14N2O5
_chemical_formula_sum   'Na4 H28 C28 N4 O10'
_cell_volume   680.64389495
_cell_formula_units_Z   2
loop_
 _symmetry_equiv_pos_site_id
 _symmetry_equiv_pos_as_xyz
  1  'x, y, z'
loop_
 _atom_site_type_symbol
 _atom_site_label
 _atom_site_symmetry_multiplicity
 _atom_site_fract_x
 _atom_site_fract_y
 _atom_site_fract_z
 _atom_site_occupancy
 _atom_site_hle17_bader_spin_density
 _atom_site_hle17_ddec_charge
 _atom_site_hle17_ddec_spin_density
 _atom_site_hle17_ddec_sum_bond_order
 _atom_site_hle17_magmom
 _atom_site_hse06_10hf_bader_spin_density
 _atom_site_hse06_10hf_ddec_charge
 _atom_site_hse06_10hf_ddec_spin_density
 _atom_site_hse06_10hf_ddec_sum_bond_order
 _atom_site_hse06_10hf_magmom
 _atom_site_hse06_bader_spin_density
 _atom_site_hse06_ddec_charge
 _atom_site_hse06_ddec_spin_density
 _atom_site_hse06_ddec_sum_bond_order
 _atom_site_hse06_magmom
 _atom_site_pbe_bader_spin_density
 _atom_site_pbe_cm5_charge
 _atom_site_pbe_ddec_charge
 _atom_site_pbe_ddec_spin_density
 _atom_site_pbe_ddec_sum_bond_order
 _atom_site_pbe_magmom
Na  Na0  1  0.90379222  0.66637801  0.57391102  1  0  0.90505  0  0.385816  0  0  0.858743  0  0.541841  0  0  0.868896  0  0.521121  0  0  0.686318  0.851251  0  0.556786  0
Na  Na1  1  0.09622138  0.16638107  0.57391026  1  0  0.905036  0  0.385824  0  0  0.858755  0  0.541831  0  0  0.868909  0  0.521109  0  0  0.686316  0.851266  0  0.556774  0
Na  Na2  1  0.64424154  0.06316899  0.69470792  1  0  0.914372  0  0.361661  0  0  0.870559  0  0.511281  0  0  0.881258  0  0.490368  0  0  0.674673  0.862702  0  0.526297  0
Na  Na3  1  0.35575235  0.56316597  0.69470722  1  0  0.914372  0  0.361641  0  0  0.870573  0  0.51127  0  0  0.881267  0  0.490356  0  0  0.674669  0.862714  0  0.526285  0
H  H4  1  0.12075882  0.71822858  0.91688582  1  0  0.095582  0  0.976238  0  0  0.103341  0  1.04257  0  0  0.106234  0  1.040967  0  0  0.100645  0.101186  0  1.043834  0
H  H5  1  0.87921189  0.21819371  0.91686935  1  0  0.095481  0  0.976063  0  0  0.103162  0  1.042508  0  0  0.106054  0  1.040903  0  0  0.100552  0.101007  0  1.043775  0
H  H6  1  0.43677567  0.87279352  0.78002397  1  0  0.296412  0  0.983273  0  0  0.277524  0  1.054713  0  0  0.285797  0  1.047027  0  0  0.288393  0.271692  0  1.060096  0
H  H7  1  0.56323588  0.37279598  0.78002163  1  0  0.296373  0  0.9834  0  0  0.277491  0  1.054827  0  0  0.28576  0  1.047152  0  0  0.288381  0.271658  0  1.06021  0
H  H8  1  0.72089760  0.05694927  0.12267876  1  0  0.074473  0  0.977625  0  0  0.085846  0  1.04262  0  0  0.087972  0  1.041603  0  0  0.093745  0.084362  0  1.043257  0
H  H9  1  0.27905807  0.55690851  0.12267617  1  0  0.074338  0  0.977726  0  0  0.085826  0  1.042594  0  0  0.087955  0  1.041578  0  0  0.093769  0.084339  0  1.043236  0
H  H10  1  0.07534683  0.86796372  0.07597847  1  0  0.082566  0  0.969287  0  0  0.093911  0  1.032611  0  0  0.09655  0  1.032583  0  0  0.091816  0.092157  0  1.032548  0
H  H11  1  0.92462192  0.36791441  0.07596651  1  0  0.082486  0  0.969123  0  0  0.093993  0  1.032257  0  0  0.096619  0  1.032246  0  0  0.091832  0.092227  0  1.032199  0
H  H12  1  0.42548215  0.09510091  0.01036071  1  0  0.097703  0  0.969271  0  0  0.10909  0  1.030992  0  0  0.111447  0  1.031942  0  0  0.098017  0.107479  0  1.0304  0
H  H13  1  0.57450538  0.59506434  0.01036804  1  0  0.097622  0  0.969376  0  0  0.109045  0  1.031047  0  0  0.111403  0  1.031996  0  0  0.098033  0.107445  0  1.030452  0
H  H14  1  0.86512550  0.43635588  0.68914803  1  0  0.403679  0  0.915224  0  0  0.374155  0  0.979523  0  0  0.385217  0  0.96312  0  0  0.291372  0.366311  0  0.991148  0
H  H15  1  0.13488995  0.93636189  0.68914337  1  0  0.40367  0  0.915236  0  0  0.374179  0  0.979466  0  0  0.385232  0  0.963082  0  0  0.291414  0.366335  0  0.99109  0
H  H16  1  0.05194412  0.61285798  0.24911029  1  0  0.097432  0  0.964006  0  0  0.109876  0  1.02361  0  0  0.112271  0  1.024314  0  0  0.100161  0.108212  0  1.023248  0
H  H17  1  0.94806897  0.11288110  0.24910281  1  0  0.097558  0  0.964051  0  0  0.110053  0  1.023561  0  0  0.112453  0  1.02426  0  0  0.100216  0.108384  0  1.02321  0
H  H18  1  0.76131564  0.67305247  0.14068596  1  0  0.081578  0  0.972523  0  0  0.092854  0  1.036148  0  0  0.095085  0  1.035172  0  0  0.098754  0.091317  0  1.036748  0
H  H19  1  0.23872320  0.17307304  0.14068241  1  0  0.081544  0  0.972578  0  0  0.092841  0  1.03617  0  0  0.09507  0  1.035198  0  0  0.098794  0.091303  0  1.036773  0
H  H20  1  0.10929182  0.82668710  0.46616685  1  0  0.305187  0  0.949687  0  0  0.288737  0  1.019571  0  0  0.296649  0  1.011683  0  0  0.292714  0.282994  0  1.025323  0
H  H21  1  0.89072620  0.32669211  0.46616311  1  0  0.305196  0  0.949737  0  0  0.288768  0  1.019572  0  0  0.29668  0  1.011683  0  0  0.292753  0.283025  0  1.025323  0
H  H22  1  0.27424154  0.99637242  0.86613151  1  0  0.313224  0  0.910808  0  0  0.302213  0  0.967591  0  0  0.306968  0  0.965772  0  0  0.302062  0.299011  0  0.968558  0
H  H23  1  0.72576197  0.49636436  0.86614025  1  0  0.313191  0  0.910797  0  0  0.30227  0  0.96743  0  0  0.307025  0  0.965609  0  0  0.302101  0.299067  0  0.968398  0
H  H24  1  0.69903316  0.38567638  0.60402331  1  0  0.392023  0  0.928771  0  0  0.362874  0  0.993022  0  0  0.373969  0  0.976253  0  0  0.288034  0.355013  0  1.004913  0
H  H25  1  0.30098171  0.88566829  0.60401827  1  0  0.391969  0  0.928874  0  0  0.362824  0  0.99313  0  0  0.373922  0  0.976355  0  0  0.287989  0.354963  0  1.005023  0
H  H26  1  0.40802384  0.85877944  0.19432907  1  0  0.087137  0  0.965825  0  0  0.098794  0  1.028086  0  0  0.101419  0  1.027938  0  0  0.09565  0.097039  0  1.028103  0
H  H27  1  0.59200814  0.35880051  0.19432961  1  0  0.087154  0  0.965699  0  0  0.098705  0  1.028072  0  0  0.101332  0  1.027919  0  0  0.095579  0.096949  0  1.028091  0
H  H28  1  0.18203494  0.65583826  0.38636780  1  0  0.290664  0  0.924944  0  0  0.283432  0  0.982076  0  0  0.287341  0  0.981133  0  0  0.291947  0.2807  0  0.982635  0
H  H29  1  0.81796711  0.15585057  0.38636327  1  0  0.290615  0  0.924992  0  0  0.28337  0  0.982145  0  0  0.287278  0  0.981202  0  0  0.291925  0.280638  0  0.982704  0
H  H30  1  0.34885215  0.96972241  0.35703842  1  0  0.09394  0  0.979392  0  0  0.101617  0  1.04587  0  0  0.104229  0  1.044745  0  0  0.100655  0.099683  0  1.046758  0
H  H31  1  0.65115881  0.46972688  0.35703862  1  0  0.093859  0  0.979504  0  0  0.101527  0  1.045998  0  0  0.104124  0  1.044912  0  0  0.100626  0.099595  0  1.046881  0
C  C32  1  0.60460984  0.92948118  0.89993629  1  0  0.32915  0  3.793465  0  0  0.31792  0  4.037209  0  0  0.331758  0  4.054815  0  0  0.112764  0.308979  0  4.025182  0
C  C33  1  0.39535853  0.42947594  0.89992834  1  0  0.329521  0  3.793123  0  0  0.318201  0  4.037076  0  0  0.33204  0  4.054677  0  0  0.112802  0.309259  0  4.025052  0
C  C34  1  0.87263180  0.76189890  0.36430645  1  0  0.311321  0  3.776216  0  0  0.302964  0  4.021706  0  0  0.315161  0  4.039999  0  0  0.105048  0.29495  0  4.009358  0
C  C35  1  0.12737503  0.26191177  0.36430036  1  0  0.311235  0  3.776052  0  0  0.302921  0  4.021527  0  0  0.315114  0  4.039823  0  0  0.10508  0.294931  0  4.009182  0
C  C36  1  0.66751258  0.86138627  0.39535650  1  0  -0.2027  0  3.708355  0  0  -0.180289  0  3.941019  0  0  -0.192207  0  3.961199  0  0  -0.031284  -0.172482  0  3.927112  0
C  C37  1  0.33248212  0.36139871  0.39535615  1  0  -0.202631  0  3.708538  0  0  -0.180282  0  3.941227  0  0  -0.192201  0  3.961406  0  0  -0.03136  -0.172545  0  3.927402  0
C  C38  1  0.80576398  0.82270246  0.87309736  1  0  -0.206429  0  3.715612  0  0  -0.184617  0  3.950126  0  0  -0.197474  0  3.97015  0  0  -0.033304  -0.17602  0  3.936203  0
C  C39  1  0.19422480  0.32267707  0.87309077  1  0  -0.206717  0  3.715783  0  0  -0.185005  0  3.950512  0  0  -0.197866  0  3.970534  0  0  -0.033378  -0.176406  0  3.93659  0
C  C40  1  0.50323692  0.89192007  0.33237610  1  0  -0.062504  0  3.783078  0  0  -0.087639  0  4.036156  0  0  -0.083509  0  4.055367  0  0  -0.091211  -0.089761  0  4.022733  0
C  C41  1  0.49677285  0.39193889  0.33237796  1  0  -0.062376  0  3.783196  0  0  -0.087466  0  4.036175  0  0  -0.083347  0  4.055402  0  0  -0.09113  -0.089567  0  4.022768  0
C  C42  1  0.89655364  0.69182997  0.27216474  1  0  -0.195563  0  3.724365  0  0  -0.206708  0  3.966003  0  0  -0.21492  0  3.98737  0  0  -0.102667  -0.201594  0  3.9519  0
C  C43  1  0.10345191  0.19183973  0.27215704  1  0  -0.195918  0  3.723917  0  0  -0.207129  0  3.965603  0  0  -0.215342  0  3.986963  0  0  -0.102825  -0.202014  0  3.951497  0
C  C44  1  0.57985118  0.01307174  0.99072816  1  0  -0.19872  0  3.718333  0  0  -0.208798  0  3.95962  0  0  -0.217567  0  3.981124  0  0  -0.105481  -0.203537  0  3.945537  0
C  C45  1  0.42012139  0.51306772  0.99072390  1  0  -0.198821  0  3.718285  0  0  -0.208904  0  3.959683  0  0  -0.217673  0  3.981191  0  0  -0.10553  -0.203658  0  3.945614  0
C  C46  1  0.73215404  0.72489415  0.21159300  1  0  -0.03735  0  3.796664  0  0  -0.051697  0  4.043798  0  0  -0.048729  0  4.063655  0  0  -0.088042  -0.053347  0  4.030075  0
C  C47  1  0.26787369  0.22491676  0.21158573  1  0  -0.037043  0  3.796153  0  0  -0.051376  0  4.043248  0  0  -0.048408  0  4.063107  0  0  -0.08806  -0.053026  0  4.029523  0
C  C48  1  0.83874619  0.72257646  0.77966788  1  0  0.679091  0  3.911017  0  0  0.632006  0  4.20232  0  0  0.667056  0  4.191249  0  0  0.199287  0.608257  0  4.209171  0
C  C49  1  0.16124689  0.22257861  0.77965904  1  0  0.679186  0  3.911113  0  0  0.632093  0  4.202462  0  0  0.667148  0  4.191391  0  0  0.199319  0.608344  0  4.20931  0
C  C50  1  0.97086684  0.80327868  0.93817501  1  0  -0.057892  0  3.779341  0  0  -0.082501  0  4.030652  0  0  -0.077344  0  4.048809  0  0  -0.09167  -0.085358  0  4.017905  0
C  C51  1  0.02909674  0.30326368  0.93816121  1  0  -0.057816  0  3.779077  0  0  -0.082339  0  4.030484  0  0  -0.077178  0  4.048641  0  0  -0.091636  -0.0852  0  4.017733  0
C  C52  1  0.53465641  0.82793811  0.24143966  1  0  -0.120797  0  3.809645  0  0  -0.136836  0  4.068976  0  0  -0.143445  0  4.091702  0  0  -0.111867  -0.132651  0  4.053453  0
C  C53  1  0.46536120  0.32795880  0.24143926  1  0  -0.120914  0  3.809622  0  0  -0.136857  0  4.068906  0  0  -0.143466  0  4.091626  0  0  -0.111786  -0.132671  0  4.053378  0
C  C54  1  0.94492807  0.88667090  0.02715888  1  0  -0.134821  0  3.82894  0  0  -0.149187  0  4.088041  0  0  -0.156972  0  4.111521  0  0  -0.118803  -0.144408  0  4.072166  0
C  C55  1  0.05505095  0.38664621  0.02714637  1  0  -0.134564  0  3.828678  0  0  -0.149027  0  4.087782  0  0  -0.156805  0  4.111273  0  0  -0.11864  -0.14423  0  4.071888  0
C  C56  1  0.74680019  0.99205744  0.05304803  1  0  -0.043711  0  3.818791  0  0  -0.058098  0  4.065631  0  0  -0.054804  0  4.086106  0  0  -0.093711  -0.060014  0  4.051741  0
C  C57  1  0.25316901  0.49201797  0.05304402  1  0  -0.043569  0  3.818843  0  0  -0.058057  0  4.065747  0  0  -0.054767  0  4.086221  0  0  -0.093803  -0.059971  0  4.051857  0
C  C58  1  0.61700399  0.93071096  0.49220298  1  0  0.695551  0  3.889612  0  0  0.649925  0  4.178155  0  0  0.684395  0  4.167573  0  0  0.207543  0.626513  0  4.184656  0
C  C59  1  0.38299705  0.43072332  0.49220116  1  0  0.695461  0  3.889554  0  0  0.649885  0  4.178032  0  0  0.684358  0  4.16745  0  0  0.207498  0.626492  0  4.184535  0
N  N60  1  0.43573703  0.95613957  0.84082795  1  0  -0.682205  0  3.175272  0  0  -0.648247  0  3.408785  0  0  -0.669048  0  3.409511  0  0  -0.619587  -0.633972  0  3.407808  0
N  N61  1  0.56427437  0.45612659  0.84082819  1  0  -0.682226  0  3.175276  0  0  -0.64828  0  3.408767  0  0  -0.669081  0  3.409493  0  0  -0.619599  -0.634005  0  3.407792  0
N  N62  1  0.04490954  0.72270577  0.42091596  1  0  -0.692107  0  3.116899  0  0  -0.666039  0  3.353919  0  0  -0.684331  0  3.353081  0  0  -0.64334  -0.653396  0  3.354467  0
N  N63  1  0.95508914  0.22271100  0.42091268  1  0  -0.692005  0  3.116839  0  0  -0.665944  0  3.353869  0  0  -0.684235  0  3.353032  0  0  -0.643305  -0.6533  0  3.354409  0
O  O64  1  0.70280662  0.75103769  0.71776891  1  0  -0.787671  0  1.982325  0  0  -0.737868  0  2.233245  0  0  -0.758223  0  2.216895  0  0  -0.451121  -0.723643  0  2.244207  0
O  O65  1  0.29720845  0.25105590  0.71775776  1  0  -0.78779  0  1.981891  0  0  -0.738072  0  2.233039  0  0  -0.758431  0  2.216691  0  0  -0.451247  -0.723844  0  2.244  0
O  O66  1  0.78684118  0.94241379  0.54807172  1  0  -0.781952  0  1.97468  0  0  -0.734639  0  2.228387  0  0  -0.755219  0  2.212617  0  0  -0.472972  -0.720302  0  2.239014  0
O  O67  1  0.21313492  0.44242349  0.54806753  1  0  -0.781985  0  1.974382  0  0  -0.734747  0  2.228221  0  0  -0.755308  0  2.212403  0  0  -0.473015  -0.720416  0  2.238863  0
O  O68  1  0.99732651  0.60549143  0.76357408  1  0  -0.716856  0  1.978145  0  0  -0.661953  0  2.217106  0  0  -0.685556  0  2.205084  0  0  -0.40814  -0.6455  0  2.224991  0
O  O69  1  0.00268242  0.10548989  0.76356399  1  0  -0.716783  0  1.978646  0  0  -0.661784  0  2.217471  0  0  -0.68538  0  2.205452  0  0  -0.408064  -0.645337  0  2.225357  0
O  O70  1  0.40356780  0.97307760  0.51628400  1  0  -0.72348  0  1.967984  0  0  -0.663911  0  2.198128  0  0  -0.687062  0  2.184113  0  0  -0.387556  -0.647658  0  2.207389  0
O  O71  1  0.59642551  0.47307169  0.51629084  1  0  -0.723371  0  1.968102  0  0  -0.663815  0  2.198235  0  0  -0.686959  0  2.184215  0  0  -0.387464  -0.647558  0  2.207486  0
O  O72  1  0.77598227  0.33831715  0.65087825  1  0  -0.901383  0  1.848402  0  0  -0.85739  0  2.027506  0  0  -0.873293  0  1.993613  0  0  -0.668836  -0.846196  0  2.051362  0
O  O73  1  0.22403685  0.83832258  0.65087905  1  0  -0.901334  0  1.848472  0  0  -0.857359  0  2.027529  0  0  -0.873264  0  1.993642  0  0  -0.668813  -0.846162  0  2.051372  0
