# generated using pymatgen
data_AlH3C8Cl2O5
_symmetry_space_group_name_H-M   'P 1'
_cell_length_a   6.66232644
_cell_length_b   12.37292057
_cell_length_c   17.30824677
_cell_angle_alpha   89.86239942
_cell_angle_beta   90.74816449
_cell_angle_gamma   91.09651053
_symmetry_Int_Tables_number   1
_chemical_formula_structural   AlH3C8Cl2O5
_chemical_formula_sum   'Al4 H12 C32 Cl8 O20'
_cell_volume   1426.37475458
_cell_formula_units_Z   4
loop_
 _symmetry_equiv_pos_site_id
 _symmetry_equiv_pos_as_xyz
  1  'x, y, z'
loop_
 _atom_site_type_symbol
 _atom_site_label
 _atom_site_symmetry_multiplicity
 _atom_site_fract_x
 _atom_site_fract_y
 _atom_site_fract_z
 _atom_site_occupancy
 _atom_site_pbe_bader_charge
 _atom_site_pbe_bader_spin_density
 _atom_site_pbe_cm5_charge
 _atom_site_pbe_ddec_charge
 _atom_site_pbe_ddec_spin_density
 _atom_site_pbe_ddec_sum_bond_order
 _atom_site_pbe_magmom
Al  Al0  1  0.00205931  0.99666305  0.50238681  1  2.503117  0  0.396539  1.647079  0  2.56672  0
Al  Al1  1  0.50247990  0.00216127  0.50065413  1  2.503614  0  0.394627  1.650752  0  2.567401  0
Al  Al2  1  0.99751943  0.49783409  0.99934548  1  2.503479  0  0.394586  1.650962  0  2.567366  0
Al  Al3  1  0.49793875  0.50333656  0.99760985  1  2.502963  0  0.396567  1.647174  0  2.566357  0
H  H4  1  0.25337610  0.86470349  0.47161359  1  0.628183  0  0.353424  0.435325  0  0.8457  0
H  H5  1  0.76447047  0.13019531  0.46630828  1  0.6247  0  0.350943  0.430346  0  0.85486  0
H  H6  1  0.24664281  0.63529019  0.02839582  1  0.628192  0  0.353429  0.435362  0  0.845679  0
H  H7  1  0.73555077  0.36979741  0.03367807  1  0.624542  0  0.350934  0.430431  0  0.854687  0
H  H8  1  0.46473647  0.63251349  0.78971989  1  0.138608  0  0.112454  0.130618  0  0.999305  0
H  H9  1  0.03529956  0.86750326  0.71028377  1  0.138782  0  0.11255  0.130889  0  0.999588  0
H  H10  1  0.96297123  0.24530709  0.15839052  1  0.117665  0  0.10891  0.124441  0  1.006188  0
H  H11  1  0.53701853  0.25468223  0.34160155  1  0.117807  0  0.108852  0.124409  0  1.006315  0
H  H12  1  0.52978076  0.25471675  0.84520610  1  0.125997  0  0.112408  0.130457  0  0.999785  0
H  H13  1  0.97017663  0.24528325  0.65479400  1  0.125633  0  0.112525  0.1307  0  0.999783  0
H  H14  1  0.47203800  0.75290814  0.15438366  1  0.123855  0  0.109646  0.126197  0  1.002501  0
H  H15  1  0.02792102  0.74708199  0.34563717  1  0.123856  0  0.109667  0.126188  0  1.002384  0
C  C16  1  0.74592798  0.87640259  0.39172052  1  1.609326  0  0.263031  0.651171  0  4.09872  0
C  C17  1  0.74440577  0.87307425  0.60676533  1  1.588537  0  0.269589  0.654867  0  4.08861  0
C  C18  1  0.25755491  0.11810744  0.61106210  1  1.60437  0  0.273418  0.660236  0  4.072581  0
C  C19  1  0.25118218  0.12542271  0.39323010  1  1.607554  0  0.26621  0.65641  0  4.087075  0
C  C20  1  0.75406126  0.62357842  0.10829008  1  1.610079  0  0.263237  0.651632  0  4.098187  0
C  C21  1  0.75562750  0.62692754  0.89323554  1  1.588628  0  0.269743  0.654996  0  4.08909  0
C  C22  1  0.24244983  0.38189483  0.88892875  1  1.603141  0  0.27327  0.660201  0  4.072988  0
C  C23  1  0.24881454  0.37456706  0.10676189  1  1.607787  0  0.266251  0.656549  0  4.087233  0
C  C24  1  0.74219356  0.80605670  0.67879128  1  0.052534  0  -0.010599  -0.078124  0  3.936084  0
C  C25  1  0.75783723  0.69395799  0.82122460  1  0.051163  0  -0.010543  -0.077885  0  3.936226  0
C  C26  1  0.58015234  0.73897762  0.70164979  1  0.060225  0  0.021229  0.129565  0  4.024253  0
C  C27  1  0.91986371  0.76106045  0.79835795  1  0.060267  0  0.021238  0.129356  0  4.024546  0
C  C28  1  0.58977381  0.68452958  0.77208723  1  0.002454  0  -0.084966  -0.15454  0  3.971171  0
C  C29  1  0.91026942  0.81550213  0.72793502  1  0.001132  0  -0.085029  -0.154779  0  3.971647  0
C  C30  1  0.24337052  0.18768741  0.31889464  1  0.000868  0  -0.011079  -0.075237  0  3.928987  0
C  C31  1  0.25663730  0.31233393  0.18109850  1  0.000522  0  -0.010955  -0.075126  0  3.928528  0
C  C32  1  0.08055519  0.18523264  0.26599961  1  0.050006  0  0.019673  0.126095  0  4.020454  0
C  C33  1  0.41940754  0.31477472  0.23400326  1  0.050205  0  0.019626  0.126132  0  4.019782  0
C  C34  1  0.08945048  0.24712637  0.19880627  1  0.07204  0  -0.086404  -0.152481  0  3.978694  0
C  C35  1  0.41054827  0.25287874  0.30119842  1  0.071493  0  -0.086238  -0.152249  0  3.978925  0
C  C36  1  0.26066674  0.18395588  0.68357662  1  0.002857  0  -0.009171  -0.073932  0  3.925066  0
C  C37  1  0.23928134  0.31606712  0.81641467  1  0.002624  0  -0.009252  -0.074139  0  3.92587  0
C  C38  1  0.41904269  0.18622856  0.73837936  1  0.054144  0  0.020968  0.126998  0  4.032645  0
C  C39  1  0.08097388  0.31376731  0.76160864  1  0.053922  0  0.0209  0.12704  0  4.032279  0
C  C40  1  0.40667960  0.25217938  0.80321497  1  0.05991  0  -0.085224  -0.158109  0  3.976533  0
C  C41  1  0.09325921  0.24783226  0.69677342  1  0.059676  0  -0.08532  -0.158299  0  3.976993  0
C  C42  1  0.74071914  0.81310206  0.31804499  1  -0.015861  0  -0.012268  -0.074533  0  3.930404  0
C  C43  1  0.75927769  0.68687736  0.18197198  1  -0.006457  0  -0.012416  -0.075153  0  3.931205  0
C  C44  1  0.58303194  0.81469913  0.26298743  1  0.098996  0  0.018763  0.124746  0  4.024558  0
C  C45  1  0.91689731  0.68527752  0.23702998  1  0.088866  0  0.018985  0.125522  0  4.0245  0
C  C46  1  0.59439782  0.75192065  0.19661073  1  0.018208  0  -0.085772  -0.151976  0  3.975225  0
C  C47  1  0.90557507  0.74805783  0.30341024  1  0.019204  0  -0.085727  -0.152194  0  3.975126  0
Cl  Cl48  1  0.36842801  0.71692452  0.64481099  1  -0.181565  0  0.008916  -0.048956  0  1.526266  0
Cl  Cl49  1  0.13161867  0.78309147  0.85520078  1  -0.182078  0  0.008818  -0.04899  0  1.526188  0
Cl  Cl50  1  0.86738452  0.10539886  0.27774013  1  -0.192028  0  0.019353  -0.044022  0  1.589485  0
Cl  Cl51  1  0.63261598  0.39460183  0.22225311  1  -0.192056  0  0.019256  -0.044192  0  1.589181  0
Cl  Cl52  1  0.62802876  0.10673173  0.73132694  1  -0.183575  0  0.018947  -0.040329  0  1.558391  0
Cl  Cl53  1  0.87193636  0.39329823  0.76865639  1  -0.183721  0  0.018822  -0.040602  0  1.557032  0
Cl  Cl54  1  0.37450601  0.89465049  0.27127516  1  -0.185764  0  0.014408  -0.046059  0  1.572486  0
Cl  Cl55  1  0.12545122  0.60531537  0.22875321  1  -0.185796  0  0.014221  -0.046388  0  1.571824  0
O  O56  1  0.91982871  0.90179951  0.41811925  1  -1.257498  0  -0.238427  -0.601589  0  2.364511  0
O  O57  1  0.57792446  0.90785151  0.58212273  1  -1.253085  0  -0.228673  -0.589653  0  2.428694  0
O  O58  1  0.42265226  0.10197008  0.57768671  1  -1.248415  0  -0.23097  -0.583874  0  2.370734  0
O  O59  1  0.08628636  0.10453738  0.42654787  1  -1.252598  0  -0.237796  -0.603255  0  2.388006  0
O  O60  1  0.08529083  0.08574266  0.58714789  1  -1.2592  0  -0.229892  -0.576496  0  2.334122  0
O  O61  1  0.42511970  0.09999379  0.41790453  1  -1.259974  0  -0.236856  -0.597962  0  2.347912  0
O  O62  1  0.57973791  0.89810088  0.42265013  1  -1.253288  0  -0.237479  -0.601829  0  2.389376  0
O  O63  1  0.91487729  0.89263638  0.57673543  1  -1.248057  0  -0.232974  -0.583595  0  2.33264  0
O  O64  1  0.25163007  0.93388771  0.49769237  1  -1.428584  0  -0.447939  -0.988322  0  2.199204  0
O  O65  1  0.75641024  0.06616219  0.49865954  1  -1.42634  0  -0.446871  -0.980252  0  2.175554  0
O  O66  1  0.92026339  0.60187695  0.07736628  1  -1.253394  0  -0.237589  -0.602068  0  2.389374  0
O  O67  1  0.58515878  0.60735977  0.92326083  1  -1.247842  0  -0.233116  -0.583727  0  2.333048  0
O  O68  1  0.41472116  0.41424591  0.91284299  1  -1.258123  0  -0.229876  -0.57637  0  2.334048  0
O  O69  1  0.07489645  0.40000093  0.08207883  1  -1.260238  0  -0.236852  -0.598052  0  2.348173  0
O  O70  1  0.07736315  0.39804438  0.92230126  1  -1.248187  0  -0.230784  -0.583828  0  2.370798  0
O  O71  1  0.41371649  0.39545483  0.07344817  1  -1.25269  0  -0.237898  -0.603413  0  2.387921  0
O  O72  1  0.58015911  0.59819767  0.08188036  1  -1.257618  0  -0.238438  -0.601629  0  2.364198  0
O  O73  1  0.92209825  0.59214295  0.91788274  1  -1.252987  0  -0.22879  -0.589826  0  2.428657  0
O  O74  1  0.24836922  0.56611641  0.00230197  1  -1.428562  0  -0.447886  -0.98837  0  2.199064  0
O  O75  1  0.74359333  0.43383932  0.00133602  1  -1.426152  0  -0.446863  -0.980442  0  2.175473  0
