# generated using pymatgen
data_MgH2(C2O)3
_symmetry_space_group_name_H-M   'P 1'
_cell_length_a   6.87257040
_cell_length_b   19.47449943
_cell_length_c   19.47411253
_cell_angle_alpha   118.67466258
_cell_angle_beta   96.77454734
_cell_angle_gamma   96.74568880
_symmetry_Int_Tables_number   1
_chemical_formula_structural   MgH2(C2O)3
_chemical_formula_sum   'Mg6 H12 C36 O18'
_cell_volume   2225.00901096
_cell_formula_units_Z   6
loop_
 _symmetry_equiv_pos_site_id
 _symmetry_equiv_pos_as_xyz
  1  'x, y, z'
loop_
 _atom_site_type_symbol
 _atom_site_label
 _atom_site_symmetry_multiplicity
 _atom_site_fract_x
 _atom_site_fract_y
 _atom_site_fract_z
 _atom_site_occupancy
 _atom_site_pbe_bader_charge
 _atom_site_pbe_bader_spin_density
 _atom_site_pbe_cm5_charge
 _atom_site_pbe_ddec_charge
 _atom_site_pbe_ddec_spin_density
 _atom_site_pbe_ddec_sum_bond_order
 _atom_site_pbe_magmom
Mg  Mg0  1  0.62618475  0.60843719  0.32466670  1  1.683526  0  0.907325  1.409828  0  1.330516  0
Mg  Mg1  1  0.30146159  0.67527452  0.28390139  1  1.683356  0  0.907392  1.410541  0  1.328937  0
Mg  Mg2  1  0.01786944  0.71613917  0.39166425  1  1.681019  0  0.907448  1.410454  0  1.329173  0
Mg  Mg3  1  0.37381500  0.39156256  0.67533276  1  1.683527  0  0.907348  1.409831  0  1.33053  0
Mg  Mg4  1  0.69853613  0.32472702  0.71609936  1  1.683381  0  0.907358  1.410465  0  1.329023  0
Mg  Mg5  1  0.98213091  0.28386177  0.60833632  1  1.68102  0  0.907458  1.410473  0  1.329136  0
H  H6  1  0.20285034  0.51082348  0.08926557  1  0.086634  0  0.105611  0.126538  0  1.004736  0
H  H7  1  0.11364535  0.91047551  0.42163596  1  0.066554  0  0.105781  0.126897  0  1.004947  0
H  H8  1  0.69198484  0.57837843  0.48893767  1  0.074201  0  0.105774  0.126813  0  1.005238  0
H  H9  1  0.90582644  0.56513248  0.06032758  1  0.104972  0  0.106629  0.113776  0  1.00883  0
H  H10  1  0.84588681  0.93993209  0.50491008  1  0.102181  0  0.106464  0.112991  0  1.009255  0
H  H11  1  0.34102431  0.49514569  0.43513269  1  0.091763  0  0.106315  0.112711  0  1.009331  0
H  H12  1  0.79715556  0.48917388  0.91073043  1  0.086557  0  0.105601  0.1265  0  1.004751  0
H  H13  1  0.88635734  0.08952424  0.57836414  1  0.066517  0  0.105802  0.126936  0  1.00494  0
H  H14  1  0.30800907  0.42162132  0.51106000  1  0.074004  0  0.105759  0.126793  0  1.005186  0
H  H15  1  0.09418149  0.43486608  0.93967576  1  0.104985  0  0.106615  0.113715  0  1.008856  0
H  H16  1  0.15411324  0.06006825  0.49509173  1  0.102246  0  0.106453  0.112983  0  1.009196  0
H  H17  1  0.65896225  0.50485406  0.56486775  1  0.091741  0  0.106349  0.112743  0  1.009223  0
C  C18  1  0.50475086  0.56512576  0.15081165  1  0.559765  0  0.081531  0.347436  0  4.111205  0
C  C19  1  0.35425123  0.84914920  0.41440371  1  0.594161  0  0.081974  0.347446  0  4.111335  0
C  C20  1  0.93983308  0.58560364  0.43485180  1  0.575052  0  0.080887  0.345741  0  4.11332  0
C  C21  1  0.35649707  0.52205242  0.08218585  1  -0.003113  0  -0.109533  -0.270269  0  3.942289  0
C  C22  1  0.27445008  0.91769196  0.43994127  1  0.047185  0  -0.110025  -0.272051  0  3.943836  0
C  C23  1  0.83451621  0.56008936  0.47784833  1  0.005928  0  -0.109314  -0.270375  0  3.943744  0
C  C24  1  0.39890306  0.49258516  0.00474596  1  -0.070781  0  -0.011688  0.084516  0  4.050322  0
C  C25  1  0.39412393  0.99519372  0.48785615  1  -0.068626  0  -0.011954  0.085155  0  4.050044  0
C  C26  1  0.90628476  0.51215836  0.50735721  1  0.017516  0  -0.012245  0.083945  0  4.050326  0
C  C27  1  0.60111051  0.50741877  0.99525505  1  -0.021194  0  -0.011741  0.084365  0  4.050193  0
C  C28  1  0.60587464  0.00480663  0.51214766  1  -0.014196  0  -0.01193  0.08524  0  4.049826  0
C  C29  1  0.09370650  0.48784198  0.49264372  1  -0.026064  0  -0.012235  0.084023  0  4.05031  0
C  C30  1  0.75089729  0.55186609  0.06504839  1  0.060704  0  -0.079168  -0.116841  0  3.948011  0
C  C31  1  0.68616643  0.93508536  0.48684441  1  0.008686  0  -0.078434  -0.116092  0  3.947427  0
C  C32  1  0.19928270  0.51315679  0.44827565  1  -0.061608  0  -0.078654  -0.115521  0  3.946449  0
C  C33  1  0.70896205  0.58036949  0.14110844  1  -0.124292  0  -0.03244  -0.18143  0  3.951193  0
C  C34  1  0.56826938  0.85897759  0.43932528  1  -0.121883  0  -0.032993  -0.18088  0  3.950956  0
C  C35  1  0.12893339  0.56068990  0.41973670  1  -0.045579  0  -0.032382  -0.180832  0  3.950181  0
C  C36  1  0.88022537  0.62549639  0.20951725  1  1.521156  0  0.241345  0.677736  0  4.114944  0
C  C37  1  0.67118467  0.79056841  0.41613849  1  1.519141  0  0.241516  0.67805  0  4.113924  0
C  C38  1  0.25503928  0.58395721  0.37463403  1  1.533704  0  0.240994  0.678011  0  4.115245  0
C  C39  1  0.64351002  0.47794733  0.91781134  1  -0.003032  0  -0.109552  -0.270275  0  3.94214  0
C  C40  1  0.72555379  0.08231017  0.56006208  1  0.047456  0  -0.11005  -0.272129  0  3.943825  0
C  C41  1  0.16547036  0.43991039  0.52215006  1  0.006496  0  -0.109301  -0.270392  0  3.94381  0
C  C42  1  0.49524714  0.43487339  0.84918642  1  0.559662  0  0.081598  0.347548  0  4.111122  0
C  C43  1  0.64574792  0.15084936  0.58559720  1  0.593816  0  0.081935  0.347481  0  4.111289  0
C  C44  1  0.06015670  0.41439371  0.56514507  1  0.574729  0  0.080799  0.345702  0  4.113548  0
C  C45  1  0.29104503  0.41963026  0.85889184  1  -0.124229  0  -0.032452  -0.181356  0  3.951086  0
C  C46  1  0.43173300  0.14102156  0.56067554  1  -0.122284  0  -0.03299  -0.180901  0  3.950875  0
C  C47  1  0.87105609  0.43930686  0.58025679  1  -0.046149  0  -0.032345  -0.18083  0  3.950168  0
C  C48  1  0.24911714  0.44813664  0.93495415  1  0.06045  0  -0.079193  -0.116898  0  3.948045  0
C  C49  1  0.31383361  0.06491499  0.51315843  1  0.008947  0  -0.078413  -0.116029  0  3.947436  0
C  C50  1  0.80070796  0.48684236  0.55172211  1  -0.060867  0  -0.078611  -0.115464  0  3.946467  0
C  C51  1  0.11977466  0.37450097  0.79048108  1  1.520812  0  0.241326  0.677603  0  4.115051  0
C  C52  1  0.32881245  0.20943194  0.58386320  1  1.519306  0  0.241488  0.678019  0  4.114042  0
C  C53  1  0.74495752  0.41603955  0.62536336  1  1.53378  0  0.240973  0.678035  0  4.115124  0
O  O54  1  0.05472573  0.64178050  0.19872327  1  -1.239371  0  -0.352924  -0.641142  0  2.152551  0
O  O55  1  0.85650784  0.80138378  0.44325831  1  -1.239811  0  -0.352343  -0.641023  0  2.152079  0
O  O56  1  0.41326622  0.55687410  0.35832610  1  -1.240946  0  -0.35237  -0.640885  0  2.151823  0
O  O57  1  0.84783213  0.64661329  0.28033549  1  -1.290235  0  -0.396874  -0.757488  0  2.413899  0
O  O58  1  0.56775234  0.71974353  0.36650927  1  -1.297314  0  -0.397874  -0.758682  0  2.414232  0
O  O59  1  0.20129437  0.63361599  0.35353219  1  -1.29245  0  -0.397313  -0.758514  0  2.415374  0
O  O60  1  0.45506639  0.59086368  0.22299579  1  -1.313783  0  -0.459684  -0.792974  0  2.316604  0
O  O61  1  0.23236218  0.77694513  0.36804597  1  -1.321199  0  -0.459656  -0.792345  0  2.316946  0
O  O62  1  0.86435629  0.63196512  0.40906082  1  -1.316376  0  -0.459117  -0.791245  0  2.317743  0
O  O63  1  0.94527723  0.35821686  0.80127621  1  -1.238989  0  -0.352918  -0.641063  0  2.152572  0
O  O64  1  0.14349074  0.19861657  0.55674292  1  -1.239863  0  -0.352341  -0.641036  0  2.152152  0
O  O65  1  0.58673323  0.44312506  0.64167511  1  -1.240921  0  -0.35235  -0.640866  0  2.151773  0
O  O66  1  0.15216792  0.35338705  0.71966426  1  -1.290306  0  -0.396874  -0.757442  0  2.413997  0
O  O67  1  0.43224419  0.28025562  0.63348874  1  -1.297319  0  -0.397844  -0.758619  0  2.414351  0
O  O68  1  0.79871065  0.36638257  0.64646794  1  -1.292505  0  -0.397328  -0.758532  0  2.415345  0
O  O69  1  0.54493513  0.40913666  0.77700352  1  -1.313847  0  -0.459683  -0.792993  0  2.316622  0
O  O70  1  0.76764081  0.22305522  0.63195545  1  -1.321199  0  -0.459647  -0.792419  0  2.316814  0
O  O71  1  0.13563940  0.36803821  0.59093967  1  -1.316301  0  -0.459064  -0.791202  0  2.31785  0
