# generated using pymatgen
data_Hf3H13C13NO16
_symmetry_space_group_name_H-M   'P 1'
_cell_length_a   14.48201339
_cell_length_b   20.02121330
_cell_length_c   19.43538135
_cell_angle_alpha   87.52036022
_cell_angle_beta   71.31890665
_cell_angle_gamma   84.20914225
_symmetry_Int_Tables_number   1
_chemical_formula_structural   Hf3H13C13NO16
_chemical_formula_sum   'Hf12 H52 C52 N4 O64'
_cell_volume   5310.75214848
_cell_formula_units_Z   4
loop_
 _symmetry_equiv_pos_site_id
 _symmetry_equiv_pos_as_xyz
  1  'x, y, z'
loop_
 _atom_site_type_symbol
 _atom_site_label
 _atom_site_symmetry_multiplicity
 _atom_site_fract_x
 _atom_site_fract_y
 _atom_site_fract_z
 _atom_site_occupancy
 _atom_site_pbe_bader_charge
 _atom_site_pbe_bader_spin_density
 _atom_site_pbe_cm5_charge
 _atom_site_pbe_ddec_charge
 _atom_site_pbe_ddec_spin_density
 _atom_site_pbe_ddec_sum_bond_order
 _atom_site_pbe_magmom
Hf  Hf0  1  0.61971710  0.56456683  0.54511881  1  2.616931  0  1.451665  2.14382  0  3.321454  0
Hf  Hf1  1  0.30807340  0.45163115  0.62838210  1  2.619545  0  1.471424  2.100497  0  3.382113  0
Hf  Hf2  1  0.48997433  0.48190448  0.70303165  1  2.586032  0  1.448655  2.141746  0  3.4604  0
Hf  Hf3  1  0.43572151  0.53696714  0.47113318  1  2.607464  0  1.468959  2.139756  0  3.33023  0
Hf  Hf4  1  0.55702035  0.40068855  0.53548415  1  2.59986  0  1.422341  2.130513  0  3.338592  0
Hf  Hf5  1  0.36768786  0.61830808  0.63926888  1  2.609935  0  1.433619  2.149794  0  3.334821  0
Hf  Hf6  1  0.17187163  0.07087338  0.11213019  1  2.617503  0  1.460373  2.131549  0  3.363166  0
Hf  Hf7  1  0.52082359  0.99120370  0.01731664  1  2.600321  0  1.452505  2.097376  0  3.37793  0
Hf  Hf8  1  0.39142832  0.13856606  0.09573818  1  2.593394  0  1.424626  2.116669  0  3.38961  0
Hf  Hf9  1  0.30261455  0.92210475  0.02953392  1  2.61437  0  1.439785  2.143677  0  3.358611  0
Hf  Hf10  1  0.35449620  0.07917577  0.93875650  1  2.607444  0  1.427063  2.145648  0  3.354884  0
Hf  Hf11  1  0.34500243  0.98049279  0.18684685  1  2.599372  0  1.416328  2.14922  0  3.344149  0
H  H12  1  0.89399025  0.67800945  0.27808964  1  0.129988  0  0.125199  0.149346  0  0.970257  0
H  H13  1  0.01841244  0.76276573  0.18914185  1  0.130096  0  0.12359  0.148004  0  0.974506  0
H  H14  1  0.87885580  0.38079041  0.81144698  1  0.128112  0  0.123882  0.149718  0  0.974756  0
H  H15  1  0.72014971  0.32119634  0.89703336  1  0.08554  0  0.11713  0.140077  0  0.985036  0
H  H16  1  0.63630899  0.49032756  0.42081250  1  0.612596  0  0.331784  0.407012  0  0.878248  0
H  H17  1  0.42487361  0.35935303  0.68407504  1  0.654739  0  0.317481  0.424563  0  0.875987  0
H  H18  1  0.25056164  0.57481136  0.56329980  1  0.617841  0  0.338766  0.417787  0  0.855288  0
H  H19  1  0.52483423  0.62253415  0.68733492  1  0.620353  0  0.339431  0.42486  0  0.845089  0
H  H20  1  0.59659491  0.28688699  0.59125755  1  0.642418  0  0.324013  0.411799  0  0.891352  0
H  H21  1  0.44751682  0.55646737  0.83083003  1  0.609375  0  0.334473  0.411825  0  0.86651  0
H  H22  1  0.27412937  0.65776181  0.77314444  1  0.621637  0  0.307604  0.39543  0  0.903084  0
H  H23  1  0.65001061  0.36153969  0.39548538  1  0.596206  0  0.297027  0.379426  0  0.925977  0
H  H24  1  0.53245809  0.42194047  0.39145930  1  0.641875  0  0.281635  0.404817  0  0.937225  0
H  H25  1  0.39298957  0.66400606  0.41875340  1  0.602385  0  0.328038  0.410593  0  0.871595  0
H  H26  1  0.23584799  0.70423132  0.59968910  1  0.572277  0  0.305012  0.393432  0  0.904957  0
H  H27  1  0.51298925  0.29021560  0.49594438  1  0.615077  0  0.293287  0.381183  0  0.931451  0
H  H28  1  0.28672224  0.34286073  0.55473998  1  0.607661  0  0.330796  0.408676  0  0.870988  0
H  H29  1  0.67940561  0.67636399  0.58058227  1  0.592407  0  0.305093  0.395807  0  0.903345  0
H  H30  1  0.42610389  0.73953861  0.58734860  1  0.644706  0  0.322551  0.409915  0  0.880545  0
H  H31  1  0.53224557  0.48384933  0.33116579  1  0.620351  0  0.327501  0.402067  0  0.878901  0
H  H32  1  0.38778969  0.32244536  0.57383660  1  0.646745  0  0.289952  0.408936  0  0.928696  0
H  H33  1  0.51635453  0.40250230  0.81394193  1  0.600125  0  0.3073  0.409354  0  0.880168  0
H  H34  1  0.70215670  0.31378421  0.57181168  1  0.659247  0  0.342722  0.420622  0  0.852665  0
H  H35  1  0.33066528  0.66525713  0.50584045  1  0.637026  0  0.284528  0.400481  0  0.943822  0
H  H36  1  0.37838077  0.59142301  0.78252793  1  0.64332  0  0.285436  0.403551  0  0.941052  0
H  H37  1  0.53006571  0.69915518  0.58829842  1  0.656472  0  0.289773  0.40481  0  0.932002  0
H  H38  1  0.23539464  0.42000264  0.17478222  1  0.094641  0  0.125064  0.150675  0  0.970075  0
H  H39  1  0.25025355  0.50752513  0.27365846  1  0.117205  0  0.127149  0.150747  0  0.96437  0
H  H40  1  0.79857680  0.80511508  0.89804571  1  0.094913  0  0.119941  0.144399  0  0.979286  0
H  H41  1  0.97713542  0.73584890  0.83453192  1  0.100017  0  0.123421  0.148134  0  0.973126  0
H  H42  1  0.18236457  0.01359135  0.97783846  1  0.605927  0  0.33695  0.417191  0  0.858423  0
H  H43  1  0.53041561  0.12043846  0.94823832  1  0.60226  0  0.335275  0.419698  0  0.859474  0
H  H44  1  0.44848976  0.87455238  0.08974959  1  0.606168  0  0.338938  0.420354  0  0.853772  0
H  H45  1  0.24928868  0.10808190  0.23013274  1  0.620582  0  0.331359  0.417791  0  0.865142  0
H  H46  1  0.34128140  0.22024085  0.90296577  1  0.633505  0  0.33737  0.425237  0  0.84963  0
H  H47  1  0.47584807  0.20161773  0.17931640  1  0.626233  0  0.342254  0.428136  0  0.851833  0
H  H48  1  0.41773875  0.00459484  0.29021780  1  0.598621  0  0.293991  0.399504  0  0.898701  0
H  H49  1  0.37573116  0.01216692  0.82062325  1  0.641569  0  0.324888  0.420176  0  0.86581  0
H  H50  1  0.21855423  0.88664397  0.93328198  1  0.611654  0  0.301233  0.387846  0  0.913265  0
H  H51  1  0.21464106  0.82626716  0.11543487  1  0.619477  0  0.302069  0.38762  0  0.917324  0
H  H52  1  0.36890236  0.84497950  0.22206721  1  0.60307  0  0.324667  0.400009  0  0.882659  0
H  H53  1  0.49216678  0.12050701  0.82281472  1  0.590257  0  0.292688  0.395808  0  0.904727  0
H  H54  1  0.70196030  0.01647711  0.92952555  1  0.652015  0  0.33473  0.42026  0  0.874525  0
H  H55  1  0.04061306  0.09498057  0.24391177  1  0.606928  0  0.303884  0.392525  0  0.906734  0
H  H56  1  0.20410204  0.99855895  0.31420801  1  0.621362  0  0.320325  0.404172  0  0.883675  0
H  H57  1  0.30613890  0.96271679  0.88368507  1  0.660129  0  0.287908  0.40448  0  0.93522  0
H  H58  1  0.67237801  0.95199826  0.89700282  1  0.639499  0  0.340463  0.426771  0  0.857628  0
H  H59  1  0.48766297  0.23846997  0.02158086  1  0.598451  0  0.292842  0.378347  0  0.932647  0
H  H60  1  0.39566744  0.21324430  0.96545628  1  0.637421  0  0.287745  0.40506  0  0.933134  0
H  H61  1  0.29743066  0.85363872  0.16768477  1  0.639001  0  0.280972  0.401497  0  0.94432  0
H  H62  1  0.36300399  0.22898789  0.20023033  1  0.646051  0  0.335644  0.417849  0  0.875317  0
H  H63  1  0.14046424  0.01332416  0.25702154  1  0.654506  0  0.287665  0.407834  0  0.93294  0
C  C64  1  0.78080805  0.74262040  0.24846490  1  0.373435  0  0.097296  0.16  0  4.088059  0
C  C65  1  0.87606432  0.72110098  0.24742974  1  -0.005303  0  -0.08375  -0.167379  0  3.972987  0
C  C66  1  0.93978057  0.76401386  0.20129891  1  -0.048362  0  -0.086484  -0.175809  0  3.978779  0
C  C67  1  0.88396491  0.81318088  0.17484660  1  0.405029  0  0.10186  0.170753  0  4.081288  0
C  C68  1  0.96284956  0.30014869  0.85206809  1  0.400608  0  0.101946  0.179247  0  4.056918  0
C  C69  1  0.87859601  0.33652504  0.84569366  1  -0.029886  0  -0.089023  -0.180161  0  3.974505  0
C  C70  1  0.79648132  0.30596644  0.89048448  1  0.006856  0  -0.093284  -0.185218  0  3.992407  0
C  C71  1  0.82875908  0.25003507  0.92502310  1  0.49468  0  0.091809  0.152769  0  4.081726  0
C  C72  1  0.78287454  0.44351065  0.46805936  1  1.677884  0  0.24507  0.711502  0  4.16301  0
C  C73  1  0.61057532  0.62221998  0.38491354  1  1.652181  0  0.23681  0.683863  0  4.203672  0
C  C74  1  0.68192918  0.55484080  0.69297397  1  1.674086  0  0.243291  0.71211  0  4.174346  0
C  C75  1  0.24414388  0.34315283  0.75541481  1  1.725149  0  0.231704  0.67727  0  4.236774  0
C  C76  1  0.14625903  0.57172887  0.69849107  1  1.67596  0  0.238329  0.683509  0  4.20609  0
C  C77  1  0.22949963  0.48046531  0.49129569  1  1.653914  0  0.23889  0.683153  0  4.207159  0
C  C78  1  0.10165502  0.39598522  0.26033993  1  0.405285  0  0.103097  0.176559  0  4.060499  0
C  C79  1  0.18361834  0.43132034  0.22813405  1  0.062069  0  -0.087117  -0.178632  0  3.968104  0
C  C80  1  0.19078829  0.47682993  0.27854046  1  0.004441  0  -0.078328  -0.155661  0  3.961916  0
C  C81  1  0.11354524  0.46967308  0.34258595  1  0.407699  0  0.093724  0.152292  0  4.066329  0
C  C82  1  0.74424688  0.73037916  0.84517191  1  0.328018  0  0.099133  0.169435  0  4.087084  0
C  C83  1  0.81540949  0.76147012  0.86352796  1  0.065639  0  -0.090326  -0.175939  0  3.986351  0
C  C84  1  0.90632165  0.72624346  0.83121933  1  -0.009189  0  -0.08939  -0.17895  0  3.989348  0
C  C85  1  0.89188856  0.67311934  0.79265010  1  0.358352  0  0.097142  0.168178  0  4.095864  0
C  C86  1  0.13363691  0.14502841  0.97224520  1  1.688093  0  0.248453  0.71126  0  4.173714  0
C  C87  1  0.06385811  0.94698507  0.08827734  1  1.714442  0  0.242256  0.683331  0  4.207649  0
C  C88  1  0.16912737  0.22149738  0.16618333  1  1.651908  0  0.241056  0.681612  0  4.207981  0
C  C89  1  0.63472962  0.12301319  0.04030131  1  1.667242  0  0.23386  0.689464  0  4.206546  0
C  C90  1  0.57784100  0.91471542  0.14723153  1  1.679039  0  0.240602  0.708651  0  4.174927  0
C  C91  1  0.51706765  0.84748006  0.94604865  1  1.649456  0  0.240065  0.681109  0  4.198706  0
C  C92  1  0.64548598  0.75395554  0.86878236  1  0.305079  0  -0.044526  -0.10466  0  4.115067  0
C  C93  1  0.57802599  0.79408810  0.90185602  1  -0.4795  0  -0.021914  -0.133521  0  3.91053  0
C  C94  1  0.11510008  0.28297181  0.19974558  1  0.069891  0  -0.023877  -0.13617  0  3.889858  0
C  C95  1  0.08770570  0.33549774  0.23332636  1  -0.292209  0  -0.041372  -0.100244  0  4.108274  0
C  C96  1  0.88217372  0.42624397  0.42095601  1  0.324981  0  -0.040615  -0.241646  0  3.937613  0
C  C97  1  0.96278053  0.41735568  0.37534399  1  0.026015  0  0.091  0.078089  0  4.135532  0
C  C98  1  0.11647123  0.48252949  0.41140602  1  -0.390889  0  -0.020815  -0.049296  0  4.109479  0
C  C99  1  0.15144025  0.48764297  0.46031552  1  0.147696  0  -0.038269  -0.175466  0  3.900909  0
C  C100  1  0.72492468  0.59423349  0.73431600  1  0.284381  0  -0.041699  -0.244523  0  3.941891  0
C  C101  1  0.75270038  0.63353742  0.76778331  1  0.040382  0  0.09078  0.082666  0  4.149669  0
C  C102  1  0.04543195  0.59582427  0.72852921  1  -0.049344  0  -0.027546  -0.149613  0  3.945704  0
C  C103  1  0.96457222  0.62541980  0.75485095  1  -0.155474  0  -0.033984  -0.081413  0  4.149615  0
C  C104  1  0.99346520  0.20686065  0.92653808  1  0.222749  0  0.094482  0.082741  0  4.167365  0
C  C105  1  0.05997416  0.17718130  0.94399165  1  0.148615  0  -0.031425  -0.228601  0  3.96743  0
C  C106  1  0.77269214  0.20238009  0.97012331  1  -0.443361  0  -0.027868  -0.054705  0  4.127861  0
C  C107  1  0.71454153  0.16436573  0.00727669  1  0.178053  0  -0.047694  -0.195932  0  3.933059  0
C  C108  1  0.06169727  0.31080977  0.82131464  1  0.086544  0  -0.038011  -0.093971  0  4.137131  0
C  C109  1  0.14681412  0.32297463  0.79316460  1  -0.330546  0  -0.019925  -0.132728  0  3.896271  0
C  C110  1  0.97736708  0.91140788  0.10747540  1  -0.391751  0  -0.025626  -0.143286  0  3.906168  0
C  C111  1  0.91945818  0.87043756  0.13646999  1  0.178647  0  -0.032261  -0.080158  0  4.126719  0
C  C112  1  0.71154474  0.83661735  0.18815314  1  0.022423  0  0.093102  0.080617  0  4.159205  0
C  C113  1  0.65077244  0.87305912  0.16997102  1  0.333243  0  -0.039934  -0.239352  0  3.960368  0
C  C114  1  0.65090617  0.66979109  0.32890966  1  0.10567  0  -0.038318  -0.173102  0  3.951461  0
C  C115  1  0.69914131  0.70995110  0.28681906  1  -0.307951  0  -0.031514  -0.070092  0  4.133878  0
N  N116  1  0.78547327  0.79968747  0.20314636  1  -1.229618  0  -0.193964  0.01807  0  3.808685  0
N  N117  1  0.93165988  0.24649778  0.90108616  1  -1.264475  0  -0.194466  0.015554  0  3.803379  0
N  N118  1  0.05401406  0.42269694  0.33000236  1  -1.202673  0  -0.192101  0.013542  0  3.777725  0
N  N119  1  0.79159973  0.67529997  0.80125424  1  -1.196438  0  -0.193594  0.013477  0  3.802594  0
O  O120  1  0.63650985  0.66476021  0.55436674  1  -1.225003  0  -0.652306  -0.904539  0  1.935021  0
O  O121  1  0.76159083  0.50441443  0.48837863  1  -1.152941  0  -0.318954  -0.550314  0  2.205337  0
O  O122  1  0.70847147  0.56454646  0.62463445  1  -1.138513  0  -0.316723  -0.571769  0  2.228498  0
O  O123  1  0.53188256  0.59687456  0.38515436  1  -1.193002  0  -0.36433  -0.640816  0  2.28152  0
O  O124  1  0.61725857  0.51703592  0.73004353  1  -1.171776  0  -0.334516  -0.602237  0  2.2427  0
O  O125  1  0.65853117  0.60866525  0.42882401  1  -1.130433  0  -0.306081  -0.533261  0  2.244549  0
O  O126  1  0.72473409  0.39690757  0.48304200  1  -1.190807  0  -0.333949  -0.61601  0  2.250606  0
O  O127  1  0.58369865  0.47332193  0.59913239  1  -1.232397  0  -0.751  -1.086  0  2.146279  0
O  O128  1  0.58743491  0.49469796  0.46834675  1  -1.253343  0  -0.666297  -1.004676  0  2.43349  0
O  O129  1  0.51015700  0.58851258  0.65923685  1  -1.258084  0  -0.650985  -0.965065  0  2.297825  0
O  O130  1  0.48010569  0.58951821  0.54101767  1  -1.216752  0  -0.749116  -1.056836  0  2.133616  0
O  O131  1  0.35164106  0.63741988  0.45733820  1  -1.232062  0  -0.595648  -0.794583  0  2.057512  0
O  O132  1  0.63298385  0.32374468  0.59869250  1  -1.254123  0  -0.562041  -0.736448  0  2.051331  0
O  O133  1  0.42780065  0.45026993  0.53246541  1  -1.2177  0  -0.756175  -1.053763  0  2.156582  0
O  O134  1  0.44288945  0.39841124  0.65108594  1  -1.290947  0  -0.634084  -0.933586  0  2.150843  0
O  O135  1  0.36630653  0.51769401  0.67722581  1  -1.223949  0  -0.747712  -1.059753  0  2.1235  0
O  O136  1  0.31089656  0.55577460  0.57084350  1  -1.248218  0  -0.661539  -0.982009  0  2.388516  0
O  O137  1  0.49848568  0.40726748  0.77008919  1  -1.223181  0  -0.693022  -0.931255  0  1.855087  0
O  O138  1  0.32014160  0.30780318  0.75406559  1  -1.123113  0  -0.295741  -0.508434  0  2.010455  0
O  O139  1  0.23963623  0.40221104  0.72442363  1  -1.165875  0  -0.392172  -0.628406  0  2.317552  0
O  O140  1  0.45716236  0.71044736  0.61676262  1  -1.28653  0  -0.596143  -0.784577  0  2.063809  0
O  O141  1  0.16734037  0.51110460  0.67862489  1  -1.155065  0  -0.326238  -0.547045  0  2.307283  0
O  O142  1  0.41065221  0.54563967  0.79959464  1  -1.248044  0  -0.596368  -0.806325  0  2.067301  0
O  O143  1  0.34314564  0.64731125  0.74674635  1  -1.257335  0  -0.641142  -0.886145  0  1.94662  0
O  O144  1  0.30594214  0.69253835  0.57976007  1  -1.233997  0  -0.633755  -0.912438  0  1.943513  0
O  O145  1  0.20561624  0.61638300  0.69416862  1  -1.164616  0  -0.338309  -0.61084  0  2.288883  0
O  O146  1  0.31517683  0.34321481  0.59375212  1  -1.236098  0  -0.587399  -0.782644  0  2.084793  0
O  O147  1  0.49150469  0.46497579  0.37624678  1  -1.260653  0  -0.592876  -0.790162  0  2.050883  0
O  O148  1  0.22045698  0.44915673  0.55131812  1  -1.177555  0  -0.331284  -0.583705  0  2.266016  0
O  O149  1  0.30577824  0.50712074  0.45135766  1  -1.154256  0  -0.344695  -0.572955  0  2.288398  0
O  O150  1  0.58174081  0.37075949  0.42439464  1  -1.258457  0  -0.629531  -0.898518  0  1.961083  0
O  O151  1  0.49712842  0.30559125  0.54567205  1  -1.267008  0  -0.633363  -0.904264  0  1.944891  0
O  O152  1  0.08250760  0.05694580  0.21855297  1  -1.248463  0  -0.647743  -0.902735  0  1.964655  0
O  O153  1  0.10328134  0.12735506  0.03872163  1  -1.151743  0  -0.327295  -0.553913  0  2.28963  0
O  O154  1  0.12229852  0.17499936  0.15561630  1  -1.165076  0  -0.323322  -0.569454  0  2.307732  0
O  O155  1  0.14240115  0.90820537  0.06189855  1  -1.172994  0  -0.335524  -0.608539  0  2.314687  0
O  O156  1  0.26178316  0.22064995  0.15158835  1  -1.14067  0  -0.314184  -0.573882  0  2.256157  0
O  O157  1  0.05657330  0.00900228  0.10127433  1  -1.154849  0  -0.320668  -0.54612  0  2.275889  0
O  O158  1  0.22121439  0.13720037  0.92864852  1  -1.166516  0  -0.334987  -0.584524  0  2.250387  0
O  O159  1  0.29722539  0.11535835  0.04751629  1  -1.222463  0  -0.754546  -1.074202  0  2.176798  0
O  O160  1  0.22983028  0.01987186  0.00206419  1  -1.242439  0  -0.660963  -0.988198  0  2.383913  0
O  O161  1  0.27829264  0.08856138  0.18230500  1  -1.268385  0  -0.639187  -0.972141  0  2.258031  0
O  O162  1  0.25238134  0.98386977  0.12216807  1  -1.221688  0  -0.744395  -1.047631  0  2.084164  0
O  O163  1  0.28097793  0.83899771  0.10383802  1  -1.264934  0  -0.635353  -0.883537  0  1.967392  0
O  O164  1  0.38776253  0.19177279  0.92053036  1  -1.259272  0  -0.586182  -0.805533  0  2.077769  0
O  O165  1  0.40904367  0.98880988  0.97602328  1  -1.21673  0  -0.742135  -1.04655  0  2.104336  0
O  O166  1  0.48167084  0.09482470  0.98221945  1  -1.249502  0  -0.638297  -0.959856  0  2.261059  0
O  O167  1  0.44346797  0.03966141  0.11006638  1  -1.223881  0  -0.749135  -1.064751  0  2.146775  0
O  O168  1  0.42140359  0.91995945  0.08400975  1  -1.238052  0  -0.661058  -0.984475  0  2.384879  0
O  O169  1  0.42066989  0.22679261  0.03489494  1  -1.248175  0  -0.656213  -0.909191  0  1.957621  0
O  O170  1  0.55571976  0.15348927  0.08161732  1  -1.196318  0  -0.329876  -0.615054  0  2.26531  0
O  O171  1  0.64563538  0.06161982  0.02225080  1  -1.171892  0  -0.310255  -0.575408  0  2.230269  0
O  O172  1  0.19381731  0.98210645  0.27099267  1  -1.255267  0  -0.598375  -0.774396  0  2.069419  0
O  O173  1  0.60542615  0.93625680  0.08140073  1  -1.161861  0  -0.344025  -0.583336  0  2.253313  0
O  O174  1  0.40886625  0.18857812  0.19540426  1  -1.212354  0  -0.564448  -0.741096  0  2.054635  0
O  O175  1  0.35646902  0.01383169  0.27987709  1  -1.242008  0  -0.694171  -0.955124  0  1.838685  0
O  O176  1  0.31518687  0.87343195  0.21341674  1  -1.236981  0  -0.597942  -0.794161  0  2.062987  0
O  O177  1  0.49318922  0.92513457  0.19368216  1  -1.172382  0  -0.31367  -0.589421  0  2.24625  0
O  O178  1  0.65207571  0.99838133  0.91313358  1  -1.23187  0  -0.567538  -0.746354  0  2.074007  0
O  O179  1  0.28118330  0.90124872  0.93132593  1  -1.254603  0  -0.646067  -0.896843  0  1.950073  0
O  O180  1  0.56745832  0.89346324  0.95708594  1  -1.173014  0  -0.345896  -0.619174  0  2.26997  0
O  O181  1  0.42595433  0.84521828  0.97118351  1  -1.126597  0  -0.308388  -0.527816  0  2.29166  0
O  O182  1  0.31740245  0.01137342  0.86335334  1  -1.279874  0  -0.600463  -0.78783  0  2.06869  0
O  O183  1  0.45834190  0.08075235  0.84042933  1  -1.238384  0  -0.691728  -0.950447  0  1.843591  0
