# generated using pymatgen
data_DyH15C23Cl6O7
_symmetry_space_group_name_H-M   'P 1'
_cell_length_a   9.21674974
_cell_length_b   10.61426564
_cell_length_c   14.29400000
_cell_angle_alpha   77.94897531
_cell_angle_beta   86.51793122
_cell_angle_gamma   75.59610714
_symmetry_Int_Tables_number   1
_chemical_formula_structural   DyH15C23Cl6O7
_chemical_formula_sum   'Dy2 H30 C46 Cl12 O14'
_cell_volume   1324.50659197
_cell_formula_units_Z   2
loop_
 _symmetry_equiv_pos_site_id
 _symmetry_equiv_pos_as_xyz
  1  'x, y, z'
loop_
 _atom_site_type_symbol
 _atom_site_label
 _atom_site_symmetry_multiplicity
 _atom_site_fract_x
 _atom_site_fract_y
 _atom_site_fract_z
 _atom_site_occupancy
 _atom_site_hle17_bader_spin_density
 _atom_site_hle17_ddec_charge
 _atom_site_hle17_ddec_spin_density
 _atom_site_hle17_ddec_sum_bond_order
 _atom_site_hle17_magmom
 _atom_site_hse06_10hf_bader_spin_density
 _atom_site_hse06_10hf_ddec_charge
 _atom_site_hse06_10hf_ddec_spin_density
 _atom_site_hse06_10hf_ddec_sum_bond_order
 _atom_site_hse06_10hf_magmom
 _atom_site_hse06_bader_spin_density
 _atom_site_hse06_ddec_charge
 _atom_site_hse06_ddec_spin_density
 _atom_site_hse06_ddec_sum_bond_order
 _atom_site_hse06_magmom
 _atom_site_pbe_bader_charge
 _atom_site_pbe_bader_spin_density
 _atom_site_pbe_cm5_charge
 _atom_site_pbe_ddec_charge
 _atom_site_pbe_ddec_spin_density
 _atom_site_pbe_ddec_sum_bond_order
 _atom_site_pbe_magmom
Dy  Dy0  1  0.21908657  0.45363400  0.99335389  1  0  2.30443  0  1.684083  0  0  2.236332  0  2.019601  0  0  2.284818  0  1.974972  0  2.195044  0  1.549811  2.129603  0  2.183443  0
Dy  Dy1  1  0.78091720  0.54636334  0.00664602  1  0  2.304441  0  1.684178  0  0  2.236346  0  2.019706  0  0  2.284831  0  1.975077  0  2.195076  0  1.549792  2.129599  0  2.183584  0
H  H2  1  0.47359828  0.14965027  0.77434295  1  0  0.094472  0  0.978248  0  0  0.110716  0  1.047733  0  0  0.111443  0  1.049233  0  0.005589  0  0.074791  0.110017  0  1.046986  0
H  H3  1  0.52639109  0.85034409  0.22565659  1  0  0.094435  0  0.978265  0  0  0.110724  0  1.047726  0  0  0.111451  0  1.049231  0  0.005357  0  0.074801  0.110023  0  1.046981  0
H  H4  1  0.53774674  0.27357136  0.69164615  1  0  0.105671  0  0.967039  0  0  0.123187  0  1.033994  0  0  0.124416  0  1.034245  0  0.055648  0  0.07963  0.122213  0  1.033951  0
H  H5  1  0.46223882  0.72642500  0.30835253  1  0  0.105672  0  0.966966  0  0  0.123193  0  1.033924  0  0  0.124422  0  1.034177  0  0.055421  0  0.079613  0.122222  0  1.03388  0
H  H6  1  0.34558137  0.30356674  0.72738564  1  0  0.108704  0  0.957263  0  0  0.128056  0  1.021017  0  0  0.129549  0  1.020705  0  0.029944  0  0.084809  0.126813  0  1.021576  0
H  H7  1  0.65440664  0.69642862  0.27261730  1  0  0.108667  0  0.957085  0  0  0.12806  0  1.020802  0  0  0.129554  0  1.020491  0  0.029989  0  0.084792  0.126817  0  1.021362  0
H  H8  1  0.61348438  0.27307891  0.85685212  1  0  0.029223  0  0.938013  0  0  0.040513  0  1.009228  0  0  0.041038  0  1.008024  0  0.05827  0  0.087106  0.039887  0  1.010508  0
H  H9  1  0.38651042  0.72691545  0.14314721  1  0  0.029146  0  0.938062  0  0  0.040509  0  1.009275  0  0  0.041031  0  1.008072  0  0.058142  0  0.087129  0.039886  0  1.010555  0
H  H10  1  0.48379195  0.42413305  0.81011386  1  0  0.057547  0  0.917705  0  0  0.077323  0  0.970676  0  0  0.076621  0  0.971546  0  0.091122  0  0.111056  0.077714  0  0.970027  0
H  H11  1  0.51619796  0.57585933  0.18988737  1  0  0.05747  0  0.917709  0  0  0.077332  0  0.970673  0  0  0.076629  0  0.971542  0  0.090973  0  0.111009  0.077724  0  0.970027  0
H  H12  1  0.79843575  0.21540144  0.00888400  1  0  0.123961  0  0.93822  0  0  0.131224  0  1.003405  0  0  0.135465  0  0.99991  0  0.114855  0  0.117489  0.12872  0  1.004773  0
H  H13  1  0.20155607  0.78460385  0.99111865  1  0  0.123911  0  0.938318  0  0  0.131184  0  1.003481  0  0  0.135421  0  0.999992  0  0.115156  0  0.117477  0.128685  0  1.004853  0
H  H14  1  0.83126553  0.81949885  0.17479607  1  0  0.140511  0  0.928654  0  0  0.150281  0  0.988219  0  0  0.154067  0  0.985838  0  0.130711  0  0.11617  0.147413  0  0.990297  0
H  H15  1  0.16872629  0.18050644  0.82521428  1  0  0.140572  0  0.928624  0  0  0.15025  0  0.988288  0  0  0.154032  0  0.98591  0  0.130477  0  0.116133  0.147382  0  0.990366  0
H  H16  1  0.19484113  0.01066498  0.17381807  1  0  0.123401  0  0.946581  0  0  0.128743  0  1.015854  0  0  0.132875  0  1.012505  0  0.110434  0  0.105058  0.125622  0  1.018573  0
H  H17  1  0.80514960  0.98934031  0.82618602  1  0  0.123338  0  0.946446  0  0  0.128738  0  1.015687  0  0  0.132867  0  1.012343  0  0.110451  0  0.105081  0.125619  0  1.018406  0
H  H18  1  0.77929101  0.45323886  0.31259895  1  0  0.124747  0  0.937812  0  0  0.134842  0  0.998322  0  0  0.138588  0  0.995765  0  0.103038  0  0.110973  0.132032  0  1.000514  0
H  H19  1  0.22071793  0.54676345  0.68739160  1  0  0.124747  0  0.937877  0  0  0.134829  0  0.998404  0  0  0.138586  0  0.995834  0  0.103182  0  0.110954  0.13202  0  1.000591  0
H  H20  1  0.03804968  0.28563722  0.57072804  1  0  0.116828  0  0.968272  0  0  0.121035  0  1.040347  0  0  0.124958  0  1.037547  0  0.115612  0  0.095087  0.118271  0  1.042347  0
H  H21  1  0.96196469  0.71436112  0.42926291  1  0  0.11688  0  0.968233  0  0  0.121011  0  1.040381  0  0  0.124926  0  1.037569  0  0.115397  0  0.095066  0.11825  0  1.042377  0
H  H22  1  0.25593948  0.41437849  0.30391100  1  0  0.125816  0  0.938131  0  0  0.134179  0  1.001279  0  0  0.13788  0  0.998737  0  0.132936  0  0.108117  0.131386  0  1.003505  0
H  H23  1  0.74406674  0.58562580  0.69608005  1  0  0.125934  0  0.938014  0  0  0.134338  0  1.001099  0  0  0.138039  0  0.998567  0  0.133117  0  0.108187  0.131539  0  1.003321  0
H  H24  1  0.20532562  0.75245005  0.76268539  1  0  0.125558  0  0.940266  0  0  0.134115  0  1.003255  0  0  0.13754  0  1.001327  0  0.098636  0  0.109919  0.13155  0  1.004967  0
H  H25  1  0.79467027  0.24754829  0.23731397  1  0  0.12556  0  0.940301  0  0  0.134125  0  1.003285  0  0  0.137552  0  1.001357  0  0.098638  0  0.109949  0.131558  0  1.004999  0
H  H26  1  0.38889892  0.04104658  0.56429243  1  0  0.114057  0  0.987951  0  0  0.117464  0  1.063135  0  0  0.121274  0  1.060295  0  0.123172  0  0.090806  0.114718  0  1.065196  0
H  H27  1  0.61110294  0.95894978  0.43570911  1  0  0.114001  0  0.987904  0  0  0.117388  0  1.063131  0  0  0.1212  0  1.060291  0  0.123059  0  0.09076  0.114641  0  1.065193  0
H  H28  1  0.65947137  0.77436280  0.79532380  1  0  0.133056  0  0.95055  0  0  0.137581  0  1.019412  0  0  0.14201  0  1.015675  0  0.150543  0  0.112483  0.134567  0  1.021722  0
H  H29  1  0.34052343  0.22563951  0.20468129  1  0  0.133073  0  0.950609  0  0  0.137612  0  1.019418  0  0  0.142038  0  1.015685  0  0.150551  0  0.112489  0.134599  0  1.021728  0
H  H30  1  0.40188253  0.20734462  0.93884140  1  0  0.369266  0  0.891223  0  0  0.342934  0  0.973425  0  0  0.351599  0  0.962975  0  0.601968  0  0.302812  0.336996  0  0.979172  0
H  H31  1  0.59811797  0.79264478  0.06116337  1  0  0.369199  0  0.891221  0  0  0.342848  0  0.973461  0  0  0.351512  0  0.963015  0  0.601823  0  0.302781  0.336911  0  0.979207  0
C  C32  1  0.46066252  0.25733660  0.75214835  1  0  -0.353478  0  3.72696  0  0  -0.427689  0  3.970733  0  0  -0.431248  0  3.980506  0  -0.035591  0  -0.261181  -0.425228  0  3.96472  0
C  C33  1  0.53932576  0.74265777  0.24785263  1  0  -0.353443  0  3.72658  0  0  -0.427693  0  3.970433  0  0  -0.43124  0  3.98017  0  -0.0352  0  -0.261142  -0.42523  0  3.964423  0
C  C34  1  0.49724293  0.31676939  0.83274966  1  0  0.21943  0  3.613622  0  0  0.169855  0  3.88341  0  0  0.17856  0  3.88903  0  0.361135  0  -0.069458  0.163665  0  3.877935  0
C  C35  1  0.50275024  0.68322299  0.16725144  1  0  0.219636  0  3.613431  0  0  0.169783  0  3.883576  0  0  0.178496  0  3.889191  0  0.361345  0  -0.069486  0.163583  0  3.878115  0
C  C36  1  0.06840913  0.24172832  0.05478153  1  0  0.695182  0  3.862205  0  0  0.651909  0  4.14987  0  0  0.686652  0  4.139442  0  1.525526  0  0.219525  0.628305  0  4.148664  0
C  C37  1  0.93159790  0.75826903  0.94522106  1  0  0.695031  0  3.862341  0  0  0.65171  0  4.150109  0  0  0.686461  0  4.13968  0  1.525566  0  0.219385  0.628099  0  4.14891  0
C  C38  1  0.00339944  0.12426957  0.08750289  1  0  -0.021948  0  3.728857  0  0  0.008351  0  3.955247  0  0  0.000912  0  3.97757  0  -0.007162  0  -0.006444  0.012056  0  3.942701  0
C  C39  1  0.99658722  0.87573870  0.91249880  1  0  -0.021896  0  3.728641  0  0  0.008328  0  3.955201  0  0  0.00092  0  3.97746  0  -0.007073  0  -0.006426  0.012034  0  3.942657  0
C  C40  1  0.86121878  0.12786262  0.05666120  1  0  -0.123329  0  3.704563  0  0  -0.165567  0  3.9618  0  0  -0.16589  0  3.981511  0  0.019088  0  -0.083109  -0.165472  0  3.949337  0
C  C41  1  0.13878037  0.87213969  0.94334512  1  0  -0.123264  0  3.704515  0  0  -0.165513  0  3.9618  0  0  -0.165843  0  3.981514  0  0.01862  0  -0.083088  -0.165431  0  3.949352  0
C  C42  1  0.80124805  0.01849940  0.08938039  1  0  0.153234  0  3.796596  0  0  0.1679  0  4.064468  0  0  0.169392  0  4.087416  0  0.036791  0  0.018984  0.166545  0  4.04949  0
C  C43  1  0.19874486  0.98150588  0.91062432  1  0  0.153119  0  3.796783  0  0  0.167826  0  4.064613  0  0  0.169322  0  4.087549  0  0.037005  0  0.018923  0.166471  0  4.049635  0
C  C44  1  0.87913990  0.90491500  0.15074134  1  0  -0.175654  0  3.688796  0  0  -0.211681  0  3.938932  0  0  -0.21341  0  3.957145  0  0.037593  0  -0.092555  -0.210607  0  3.927212  0
C  C45  1  0.12086035  0.09509128  0.84926572  1  0  -0.175476  0  3.688341  0  0  -0.211481  0  3.938467  0  0  -0.213203  0  3.956674  0  0.037859  0  -0.092421  -0.210408  0  3.926748  0
C  C46  1  0.02122820  0.90397479  0.18024981  1  0  0.148308  0  3.812821  0  0  0.16214  0  4.085046  0  0  0.164473  0  4.105964  0  0.035818  0  0.015713  0.160269  0  4.071062  0
C  C47  1  0.97876226  0.09602752  0.81975336  1  0  0.1481  0  3.812775  0  0  0.162055  0  4.084859  0  0  0.164383  0  4.105781  0  0.035733  0  0.015649  0.160183  0  4.070874  0
C  C48  1  0.08483253  0.01198346  0.14944700  1  0  -0.135743  0  3.700785  0  0  -0.177601  0  3.956883  0  0  -0.177524  0  3.975106  0  0.051857  0  -0.088544  -0.177328  0  3.944991  0
C  C49  1  0.91516771  0.98802282  0.85055727  1  0  -0.135612  0  3.701032  0  0  -0.177551  0  3.957166  0  0  -0.17748  0  3.9754  0  0.051882  0  -0.088542  -0.177288  0  3.945291  0
C  C50  1  0.01006311  0.48885962  0.19169072  1  0  0.713191  0  3.865754  0  0  0.668111  0  4.160577  0  0  0.703381  0  4.148734  0  1.600122  0  0.227891  0.643579  0  4.163386  0
C  C51  1  0.98994935  0.51113773  0.80830395  1  0  0.71317  0  3.865737  0  0  0.667999  0  4.160727  0  0  0.703267  0  4.148886  0  1.599591  0  0.227777  0.643471  0  4.16353  0
C  C52  1  0.01676861  0.43972445  0.29826995  1  0  -0.037057  0  3.737977  0  0  -0.009751  0  3.969105  0  0  -0.017149  0  3.99158  0  -0.009779  0  -0.015635  -0.005647  0  3.955687  0
C  C53  1  0.98323761  0.56027190  0.70172372  1  0  -0.037292  0  3.737882  0  0  -0.010008  0  3.969129  0  0  -0.017406  0  3.991609  0  -0.01022  0  -0.015695  -0.005909  0  3.955702  0
C  C54  1  0.88596135  0.42402483  0.34946809  1  0  -0.135651  0  3.706633  0  0  -0.175274  0  3.959391  0  0  -0.175586  0  3.977882  0  -0.001557  0  -0.0929  -0.174983  0  3.947659  0
C  C55  1  0.11404975  0.57597351  0.65052299  1  0  -0.135625  0  3.706378  0  0  -0.175213  0  3.959203  0  0  -0.175529  0  3.977684  0  -0.001631  0  -0.092879  -0.174921  0  3.947476  0
C  C56  1  0.89539397  0.36754471  0.44677702  1  0  0.153635  0  3.804755  0  0  0.168304  0  4.074997  0  0  0.17054  0  4.096735  0  0.011817  0  0.012439  0.166452  0  4.06062  0
C  C57  1  0.10461388  0.63245760  0.55321706  1  0  0.153772  0  3.804729  0  0  0.168381  0  4.075056  0  0  0.170613  0  4.096803  0  0.012092  0  0.012445  0.166531  0  4.060674  0
C  C58  1  0.03186596  0.32956995  0.49476284  1  0  -0.178954  0  3.714394  0  0  -0.214252  0  3.967053  0  0  -0.216678  0  3.986776  0  0.068116  0  -0.101329  -0.212462  0  3.954006  0
C  C59  1  0.96814597  0.67043335  0.50522604  1  0  -0.178964  0  3.714242  0  0  -0.214181  0  3.966939  0  0  -0.216582  0  3.986637  0  0.067726  0  -0.101273  -0.212393  0  3.953894  0
C  C60  1  0.16021577  0.34904729  0.44234069  1  0  0.149585  0  3.800913  0  0  0.164228  0  4.071316  0  0  0.166406  0  4.093007  0  0.03068  0  0.012383  0.162471  0  4.056969  0
C  C61  1  0.83979100  0.65095502  0.55765344  1  0  0.149303  0  3.800852  0  0  0.164005  0  4.071164  0  0  0.166181  0  4.092855  0  0.030728  0  0.01225  0.162244  0  4.056808  0
C  C62  1  0.15493707  0.40257772  0.34464988  1  0  -0.133963  0  3.709067  0  0  -0.175094  0  3.964606  0  0  -0.175366  0  3.983523  0  0.004301  0  -0.093632  -0.174887  0  3.95271  0
C  C63  1  0.84507622  0.59742459  0.65533980  1  0  -0.133876  0  3.709155  0  0  -0.175029  0  3.96467  0  0  -0.175305  0  3.983581  0  0.004763  0  -0.093625  -0.174843  0  3.952842  0
C  C64  1  0.44921850  0.64368651  0.87409433  1  0  0.738786  0  3.847053  0  0  0.694449  0  4.138483  0  0  0.73014  0  4.12529  0  1.609107  0  0.242068  0.669155  0  4.144003  0
C  C65  1  0.55077684  0.35630985  0.12590816  1  0  0.738646  0  3.847229  0  0  0.694275  0  4.138718  0  0  0.729966  0  4.12553  0  1.608966  0  0.242035  0.668981  0  4.144237  0
C  C66  1  0.43428153  0.75226538  0.78644096  1  0  -0.050692  0  3.748547  0  0  -0.0254  0  3.980433  0  0  -0.033469  0  4.003362  0  -0.034375  0  -0.016999  -0.02075  0  3.966987  0
C  C67  1  0.56571544  0.24773295  0.21356327  1  0  -0.050844  0  3.748644  0  0  -0.02555  0  3.980558  0  0  -0.033621  0  4.003488  0  -0.034288  0  -0.01707  -0.0209  0  3.967114  0
C  C68  1  0.29809969  0.79742029  0.73757826  1  0  -0.134932  0  3.714154  0  0  -0.173436  0  3.96554  0  0  -0.173843  0  3.985878  0  0.021559  0  -0.092514  -0.173281  0  3.952796  0
C  C69  1  0.70189974  0.20258103  0.26242051  1  0  -0.134829  0  3.713993  0  0  -0.173356  0  3.965434  0  0  -0.173764  0  3.985769  0  0.021601  0  -0.092539  -0.173204  0  3.952694  0
C  C70  1  0.28320436  0.90150463  0.65850099  1  0  0.150578  0  3.800971  0  0  0.166632  0  4.067725  0  0  0.168574  0  4.089176  0  0.027888  0  0.011067  0.165013  0  4.053377  0
C  C71  1  0.71679587  0.09848974  0.34150302  1  0  0.150519  0  3.801145  0  0  0.166557  0  4.067925  0  0  0.168502  0  4.089373  0  0.027753  0  0.011045  0.164939  0  4.053579  0
C  C72  1  0.40201927  0.95970433  0.62607296  1  0  -0.181896  0  3.722926  0  0  -0.216275  0  3.97245  0  0  -0.217987  0  3.991114  0  0.032432  0  -0.102052  -0.214889  0  3.959852  0
C  C73  1  0.59798179  0.04030295  0.37392552  1  0  -0.181766  0  3.723344  0  0  -0.216091  0  3.972859  0  0  -0.217809  0  3.991533  0  0.032581  0  -0.101942  -0.214705  0  3.960257  0
C  C74  1  0.53725880  0.91173276  0.67554287  1  0  0.144835  0  3.800949  0  0  0.160039  0  4.069025  0  0  0.161747  0  4.090668  0  0.05796  0  0.011274  0.158523  0  4.054693  0
C  C75  1  0.46274226  0.08826657  0.32446594  1  0  0.14476  0  3.800926  0  0  0.159884  0  4.069129  0  0  0.16159  0  4.090778  0  0.058172  0  0.011253  0.158368  0  4.054799  0
C  C76  1  0.55503814  0.80923298  0.75579224  1  0  -0.135882  0  3.707999  0  0  -0.175424  0  3.965708  0  0  -0.175002  0  3.983413  0  -0.006208  0  -0.090735  -0.17569  0  3.954436  0
C  C77  1  0.44495287  0.19077528  0.24420998  1  0  -0.135813  0  3.707725  0  0  -0.175314  0  3.965421  0  0  -0.174891  0  3.98313  0  -0.006481  0  -0.090705  -0.175582  0  3.954149  0
Cl  Cl78  1  0.62155051  0.02639042  0.05536652  1  0  -0.073806  0  1.461616  0  0  -0.045705  0  1.714117  0  0  -0.050005  0  1.708695  0  -0.222938  0  0.040892  -0.043061  0  1.718284  0
Cl  Cl79  1  0.37844484  0.97360991  0.94463816  1  0  -0.073811  0  1.461693  0  0  -0.045693  0  1.714142  0  0  -0.049993  0  1.708717  0  -0.22295  0  0.040901  -0.043048  0  1.718308  0
Cl  Cl80  1  0.11853466  0.76501531  0.25767904  1  0  -0.071901  0  1.395288  0  0  -0.050977  0  1.629771  0  0  -0.055493  0  1.625342  0  -0.200995  0  0.030125  -0.048038  0  1.633086  0
Cl  Cl81  1  0.88146613  0.23498899  0.74232271  1  0  -0.071846  0  1.395317  0  0  -0.050955  0  1.629757  0  0  -0.055465  0  1.625332  0  -0.201035  0  0.030142  -0.04801  0  1.633073  0
Cl  Cl82  1  0.73417337  0.34218485  0.50869664  1  0  -0.113166  0  1.369408  0  0  -0.101327  0  1.597442  0  0  -0.104578  0  1.592967  0  -0.209181  0  -0.015898  -0.098716  0  1.600698  0
Cl  Cl83  1  0.26583584  0.65782441  0.49130051  1  0  -0.1132  0  1.369378  0  0  -0.101336  0  1.59744  0  0  -0.10459  0  1.59297  0  -0.209238  0  -0.015896  -0.098726  0  1.600696  0
Cl  Cl84  1  0.33093341  0.30391622  0.50021447  1  0  -0.088328  0  1.371696  0  0  -0.06761  0  1.600011  0  0  -0.071966  0  1.59644  0  -0.2126  0  0.008576  -0.064339  0  1.602631  0
Cl  Cl85  1  0.66907526  0.69608709  0.49977593  1  0  -0.088257  0  1.371634  0  0  -0.067567  0  1.599954  0  0  -0.071928  0  1.596387  0  -0.212717  0  0.008593  -0.06429  0  1.602579  0
Cl  Cl86  1  0.11272962  0.96225689  0.60043106  1  0  -0.092992  0  1.372441  0  0  -0.078341  0  1.606498  0  0  -0.082524  0  1.604228  0  -0.208284  0  -0.006065  -0.075257  0  1.608265  0
Cl  Cl87  1  0.88727443  0.03774343  0.39956628  1  0  -0.092994  0  1.372485  0  0  -0.078337  0  1.606545  0  0  -0.082519  0  1.60427  0  -0.208367  0  -0.006063  -0.075254  0  1.608313  0
Cl  Cl88  1  0.68619014  0.98242723  0.63561950  1  0  -0.092439  0  1.361069  0  0  -0.075659  0  1.592265  0  0  -0.079686  0  1.589035  0  -0.212244  0  0.004905  -0.072665  0  1.594623  0
Cl  Cl89  1  0.31381091  0.01756813  0.36438642  1  0  -0.092462  0  1.361071  0  0  -0.07566  0  1.592317  0  0  -0.07969  0  1.589091  0  -0.212265  0  0.004871  -0.072669  0  1.594675  0
O  O90  1  0.98154366  0.35634956  0.02437487  1  0  -0.824773  0  2.173044  0  0  -0.782074  0  2.42675  0  0  -0.807715  0  2.415346  0  -1.215416  0  -0.416812  -0.746743  0  2.433465  0
O  O91  1  0.01845658  0.64365672  0.97562380  1  0  -0.824619  0  2.173322  0  0  -0.781895  0  2.427042  0  0  -0.807542  0  2.415642  0  -1.21579  0  -0.416741  -0.746564  0  2.433754  0
O  O92  1  0.20932818  0.22708209  0.05700638  1  0  -0.686557  0  1.995086  0  0  -0.651298  0  2.240057  0  0  -0.675011  0  2.230449  0  -1.154266  0  -0.371084  -0.627241  0  2.246835  0
O  O93  1  0.79066499  0.77291427  0.94299480  1  0  -0.686609  0  1.994943  0  0  -0.651281  0  2.239882  0  0  -0.675007  0  2.230275  0  -1.153938  0  -0.371037  -0.627216  0  2.246664  0
O  O94  1  0.88117645  0.53669616  0.15435618  1  0  -0.730472  0  2.046363  0  0  -0.694612  0  2.301255  0  0  -0.719198  0  2.289633  0  -1.193978  0  -0.39843  -0.667435  0  2.31051  0
O  O95  1  0.11883221  0.46330318  0.84563973  1  0  -0.730451  0  2.046451  0  0  -0.694547  0  2.301365  0  0  -0.719131  0  2.289746  0  -1.193644  0  -0.398388  -0.667373  0  2.310617  0
O  O96  1  0.13433407  0.47479816  0.14624617  1  0  -0.742052  0  2.068058  0  0  -0.705226  0  2.321852  0  0  -0.730166  0  2.310227  0  -1.187154  0  -0.403346  -0.676957  0  2.330009  0
O  O97  1  0.86567459  0.52520117  0.85374904  1  0  -0.741905  0  2.067922  0  0  -0.705055  0  2.321783  0  0  -0.730006  0  2.310187  0  -1.186862  0  -0.403214  -0.676776  0  2.329927  0
O  O98  1  0.33254842  0.60140386  0.90148011  1  0  -0.759348  0  2.075238  0  0  -0.722842  0  2.339837  0  0  -0.747713  0  2.325912  0  -1.205092  0  -0.422127  -0.694015  0  2.352223  0
O  O99  1  0.66745725  0.39859051  0.09852159  1  0  -0.759314  0  2.075005  0  0  -0.722796  0  2.339619  0  0  -0.747673  0  2.325705  0  -1.204746  0  -0.422151  -0.693962  0  2.351995  0
O  O100  1  0.57437596  0.60030479  0.91503985  1  0  -0.737299  0  2.10115  0  0  -0.702754  0  2.367012  0  0  -0.726198  0  2.351502  0  -1.199685  0  -0.407721  -0.674754  0  2.379782  0
O  O101  1  0.42562998  0.39969255  0.08496348  1  0  -0.737102  0  2.101373  0  0  -0.702528  0  2.367212  0  0  -0.725971  0  2.351707  0  -1.199842  0  -0.407617  -0.674533  0  2.379978  0
O  O102  1  0.39732924  0.30117005  0.91398375  1  0  -0.651795  0  2.209882  0  0  -0.604675  0  2.46264  0  0  -0.621623  0  2.450178  0  -1.132778  0  -0.463388  -0.583188  0  2.470633  0
O  O103  1  0.60266692  0.69881935  0.08601840  1  0  -0.651742  0  2.209665  0  0  -0.604551  0  2.462524  0  0  -0.621499  0  2.450069  0  -1.132532  0  -0.463343  -0.58306  0  2.470516  0
