# generated using pymatgen
data_ZnH20C33(NO2)4
_symmetry_space_group_name_H-M   'P 1'
_cell_length_a   15.83881494
_cell_length_b   17.21298378
_cell_length_c   28.12553226
_cell_angle_alpha   89.88449894
_cell_angle_beta   92.71259889
_cell_angle_gamma   92.92149792
_symmetry_Int_Tables_number   1
_chemical_formula_structural   ZnH20C33(NO2)4
_chemical_formula_sum   'Zn2 H40 C66 N8 O16'
_cell_volume   7649.40822864
_cell_formula_units_Z   2
loop_
 _symmetry_equiv_pos_site_id
 _symmetry_equiv_pos_as_xyz
  1  'x, y, z'
loop_
 _atom_site_type_symbol
 _atom_site_label
 _atom_site_symmetry_multiplicity
 _atom_site_fract_x
 _atom_site_fract_y
 _atom_site_fract_z
 _atom_site_occupancy
 _atom_site_pbe_bader_charge
 _atom_site_pbe_bader_spin_density
 _atom_site_pbe_cm5_charge
 _atom_site_pbe_ddec_charge
 _atom_site_pbe_ddec_spin_density
 _atom_site_pbe_ddec_sum_bond_order
 _atom_site_pbe_magmom
Zn  Zn0  1  0.58713476  0.49825669  0.50405407  1  1.278472  0  0.664349  0.806183  0  2.453028  0
Zn  Zn1  1  0.41292989  0.50177227  0.49707599  1  1.278418  0  0.664256  0.806974  0  2.451508  0
H  H2  1  0.60710148  0.10739450  0.51284136  1  0.086017  0  0.103405  0.103138  0  1.020413  0
H  H3  1  0.11385351  0.42949972  0.54836830  1  0.121645  0  0.118766  0.125745  0  1.001738  0
H  H4  1  0.12700072  0.59728549  0.43435778  1  0.112723  0  0.12262  0.132147  0  0.976418  0
H  H5  1  0.87351922  0.40091090  0.56541272  1  0.094001  0  0.122165  0.131952  0  0.976998  0
H  H6  1  0.40563269  0.57232523  0.25220775  1  0.085801  0  0.114453  0.137859  0  0.97855  0
H  H7  1  0.59457936  0.42884766  0.74878875  1  0.075714  0  0.113828  0.137082  0  0.978743  0
H  H8  1  0.55110051  0.69414070  0.12418925  1  0.136402  0  0.113368  0.125461  0  1.02925  0
H  H9  1  0.44846585  0.30647407  0.87679279  1  0.111058  0  0.113271  0.125799  0  1.028016  0
H  H10  1  0.38167370  0.55461962  0.64411967  1  0.089495  0  0.106784  0.110902  0  0.991717  0
H  H11  1  0.61750723  0.44492320  0.35675638  1  0.094593  0  0.106611  0.111246  0  0.993296  0
H  H12  1  0.50878804  0.69267239  0.87585016  1  0.114168  0  0.113009  0.117608  0  0.983133  0
H  H13  1  0.39472008  0.88982985  0.46649707  1  0.088511  0  0.103793  0.103834  0  1.019048  0
H  H14  1  0.48984720  0.30806114  0.12512595  1  0.111826  0  0.11322  0.117844  0  0.982852  0
H  H15  1  0.52096933  0.69599058  0.96322573  1  0.141156  0  0.106  0.105576  0  1.07771  0
H  H16  1  0.47761114  0.30475663  0.03776091  1  0.129004  0  0.10599  0.105636  0  1.078576  0
H  H17  1  0.61015116  0.25353386  0.51894308  1  0.090097  0  0.102134  0.10502  0  1.006032  0
H  H18  1  0.39074935  0.74354985  0.47108555  1  0.096231  0  0.102333  0.103935  0  1.009492  0
H  H19  1  0.43110679  0.69612289  0.33926549  1  0.056632  0  0.095884  0.093414  0  0.985843  0
H  H20  1  0.43929615  0.64753684  0.39602495  1  0.065435  0  0.093349  0.09549  0  1.031825  0
H  H21  1  0.33916925  0.67896138  0.37334529  1  0.045897  0  0.100885  0.10195  0  0.983245  0
H  H22  1  0.56507161  0.35663982  0.60257513  1  0.084679  0  0.093962  0.099495  0  1.029642  0
H  H23  1  0.56770374  0.30571986  0.65873175  1  0.022776  0  0.096242  0.094692  0  0.986177  0
H  H24  1  0.66154513  0.89761668  0.50261742  1  0.07314  0  0.106329  0.108433  0  0.995637  0
H  H25  1  0.66283768  0.32324574  0.62747965  1  0.071028  0  0.101089  0.10299  0  0.983354  0
H  H26  1  0.28700336  0.58855554  0.43981650  1  0.139795  0  0.132025  0.106327  0  0.981994  0
H  H27  1  0.71356618  0.40981930  0.56066415  1  0.146561  0  0.132233  0.106702  0  0.983119  0
H  H28  1  0.36942167  0.55882280  0.73236932  1  0.080636  0  0.109644  0.120756  0  0.982123  0
H  H29  1  0.63004575  0.44124474  0.26848588  1  0.092054  0  0.109582  0.12088  0  0.982274  0
H  H30  1  0.62342928  0.77768704  0.07937679  1  0.061218  0  0.109151  0.110055  0  0.975719  0
H  H31  1  0.51248381  0.79396198  0.08203880  1  0.052226  0  0.108219  0.109234  0  0.974981  0
H  H32  1  0.57003539  0.82910359  0.03228544  1  0.061445  0  0.115786  0.120577  0  0.966206  0
H  H33  1  0.48689691  0.20657333  0.91914142  1  0.069864  0  0.10838  0.109128  0  0.977555  0
H  H34  1  0.37590926  0.22284956  0.92172179  1  0.064275  0  0.108685  0.109895  0  0.97492  0
H  H35  1  0.34210898  0.10431678  0.47223019  1  0.099901  0  0.106135  0.107954  0  0.996248  0
H  H36  1  0.42929315  0.17167973  0.96892218  1  0.093036  0  0.115183  0.120497  0  0.965244  0
H  H37  1  0.65742221  0.75072666  0.50654345  1  0.113945  0  0.106018  0.11176  0  0.994822  0
H  H38  1  0.34533955  0.25092112  0.47877591  1  0.093008  0  0.106586  0.112543  0  0.993933  0
H  H39  1  0.72557661  0.57157449  0.45213638  1  0.126599  0  0.133291  0.111064  0  0.964421  0
H  H40  1  0.27399282  0.42936509  0.54971627  1  0.105742  0  0.133381  0.111752  0  0.96261  0
H  H41  1  0.88564548  0.57096289  0.45263672  1  0.111858  0  0.119066  0.126686  0  1.000374  0
C  C42  1  0.51845126  0.65254677  0.49563469  1  1.542459  0  0.212343  0.583002  0  4.183344  0
C  C43  1  0.49174091  0.56896009  0.87224952  1  0.021964  0  -0.016221  -0.075845  0  4.031844  0
C  C44  1  0.50465021  0.50838719  0.35407249  1  -0.024336  0  -0.021989  -0.137015  0  3.928865  0
C  C45  1  0.49501543  0.49180657  0.64685398  1  -0.034095  0  -0.021677  -0.136084  0  3.928792  0
C  C46  1  0.50657379  0.57223353  0.97383672  1  -0.028435  0  0.002671  0.05789  0  3.943617  0
C  C47  1  0.49241723  0.42850034  0.02714155  1  -0.041971  0  0.001804  0.057638  0  3.939874  0
C  C48  1  0.48343638  0.42651054  0.97516537  1  0.046045  0  -0.004521  -0.068297  0  3.916897  0
C  C49  1  0.51573336  0.57420897  0.02581329  1  -0.018377  0  -0.004706  -0.067919  0  3.913869  0
C  C50  1  0.49157990  0.49864620  0.94965302  1  0.083123  0  0.005397  0.014629  0  3.903099  0
C  C51  1  0.50755461  0.50208651  0.05133339  1  -0.007723  0  0.005785  0.014446  0  3.897977  0
C  C52  1  0.51111773  0.64015987  0.94584364  1  -0.091658  0  -0.09383  -0.136735  0  3.979023  0
C  C53  1  0.48239450  0.34730436  0.50070500  1  1.547191  0  0.212013  0.583122  0  4.182385  0
C  C54  1  0.48764662  0.36058122  0.05512110  1  -0.025974  0  -0.093082  -0.135888  0  3.979445  0
C  C55  1  0.50409521  0.63892781  0.89632309  1  0.035484  0  -0.07489  -0.070356  0  4.000831  0
C  C56  1  0.49472473  0.36178852  0.10464002  1  0.039844  0  -0.075468  -0.071765  0  4.004751  0
C  C57  1  0.50015598  0.50342985  0.40714527  1  1.557443  0  0.213519  0.603437  0  4.17282  0
C  C58  1  0.49939247  0.49655003  0.59376466  1  1.594773  0  0.214823  0.607724  0  4.17149  0
C  C59  1  0.53299560  0.64344633  0.05333398  1  0.446254  0  0.094917  0.219323  0  3.99826  0
C  C60  1  0.46627930  0.35725505  0.94763881  1  0.383511  0  0.094079  0.218331  0  3.998905  0
C  C61  1  0.52343859  0.73917757  0.48994547  1  0.002577  0  -0.012894  -0.021997  0  3.949307  0
C  C62  1  0.47820081  0.26025345  0.49872646  1  -0.00521  0  -0.012545  -0.020893  0  3.946567  0
C  C63  1  0.44955825  0.77822562  0.47777207  1  -0.040255  0  -0.083949  -0.083961  0  3.988329  0
C  C64  1  0.51467021  0.50171490  0.10244368  1  0.004962  0  -0.004877  0.021283  0  4.022929  0
C  C65  1  0.55200073  0.21989110  0.50874324  1  0.009647  0  -0.084638  -0.084423  0  3.985207  0
C  C66  1  0.45150009  0.85864865  0.47530613  1  -0.035714  0  -0.085451  -0.142033  0  3.957693  0
C  C67  1  0.55064861  0.13961968  0.50518553  1  -0.057251  0  -0.085781  -0.141721  0  3.95936  0
C  C68  1  0.52828572  0.90151909  0.48559970  1  0.367718  0  0.087052  0.172624  0  4.046639  0
C  C69  1  0.47456836  0.09822587  0.49115337  1  0.355929  0  0.087081  0.171473  0  4.048489  0
C  C70  1  0.60293543  0.86267723  0.49559456  1  0.005418  0  -0.081417  -0.142275  0  3.96176  0
C  C71  1  0.40024461  0.13812845  0.48234621  1  -0.031261  0  -0.081655  -0.141616  0  3.961604  0
C  C72  1  0.60052977  0.78184893  0.49781117  1  -0.08031  0  -0.082512  -0.085795  0  3.979039  0
C  C73  1  0.40206484  0.21879743  0.48604027  1  -0.04954  0  -0.083183  -0.08747  0  3.977305  0
C  C74  1  0.23797234  0.46518656  0.52488580  1  0.510531  0  0.066154  0.114121  0  3.901113  0
C  C75  1  0.48458891  0.49897479  0.89852805  1  -0.113149  0  -0.004989  0.019712  0  4.023983  0
C  C76  1  0.76182949  0.53506389  0.47643481  1  0.50487  0  0.065648  0.114225  0  3.897462  0
C  C77  1  0.15044675  0.46555984  0.52414392  1  0.01948  0  -0.068476  -0.179642  0  3.911963  0
C  C78  1  0.84931424  0.53444312  0.47674547  1  0.018131  0  -0.068865  -0.181013  0  3.9126  0
C  C79  1  0.10965097  0.51396183  0.49104418  1  0.265143  0  0.105887  0.19815  0  4.030889  0
C  C80  1  0.89035258  0.48532939  0.50930806  1  0.271425  0  0.106157  0.199176  0  4.030973  0
C  C81  1  0.53454864  0.57560068  0.18016410  1  1.332818  0  0.240089  0.436613  0  4.095141  0
C  C82  1  0.46528057  0.42503393  0.82079210  1  1.271005  0  0.239524  0.44178  0  4.097356  0
C  C83  1  0.15807931  0.55963511  0.46018356  1  -0.018616  0  -0.063714  -0.177852  0  3.90696  0
C  C84  1  0.84218292  0.43910353  0.54001631  1  0.00598  0  -0.063069  -0.177544  0  3.906809  0
C  C85  1  0.24564914  0.55534660  0.46318310  1  0.511982  0  0.07093  0.121119  0  3.892273  0
C  C86  1  0.52949842  0.57230587  0.12754740  1  -7.6e-05  0  -0.014832  -0.051023  0  4.051288  0
C  C87  1  0.75464321  0.44359654  0.53742534  1  0.529724  0  0.06972  0.117138  0  3.892546  0
C  C88  1  0.51142498  0.43106221  0.18123821  1  1.263915  0  0.240003  0.433262  0  4.101761  0
C  C89  1  0.48790660  0.56961917  0.81970454  1  1.290088  0  0.240013  0.439719  0  4.099746  0
C  C90  1  0.57879119  0.47064284  0.28412312  1  0.011388  0  -0.091141  -0.169656  0  3.999973  0
C  C91  1  0.42082478  0.52959096  0.71676885  1  0.020701  0  -0.091719  -0.169436  0  3.997198  0
C  C92  1  0.57143512  0.47254795  0.33316302  1  -0.031078  0  -0.082263  -0.064349  0  3.995924  0
C  C93  1  0.42802324  0.52737058  0.66771645  1  0.012211  0  -0.082151  -0.064397  0  3.993805  0
C  C94  1  0.44474002  0.54493956  0.32398074  1  0.544309  0  0.091739  0.260067  0  4.008052  0
C  C95  1  0.55530263  0.45585413  0.67697988  1  0.547941  0  0.091542  0.257806  0  4.011537  0
C  C96  1  0.45209866  0.54325975  0.27472515  1  0.015882  0  -0.092933  -0.264992  0  3.948342  0
C  C97  1  0.46999902  0.42834996  0.87341856  1  0.025978  0  -0.014245  -0.048977  0  4.049409  0
C  C98  1  0.54798153  0.45767305  0.72624844  1  0.032111  0  -0.092633  -0.264094  0  3.948029  0
C  C99  1  0.51819840  0.50602700  0.25507828  1  0.330203  0  0.091058  0.215917  0  4.027794  0
C  C100  1  0.48165739  0.49461419  0.74585753  1  0.219253  0  0.090958  0.221264  0  4.028522  0
C  C101  1  0.39901535  0.65531314  0.36362156  1  0.374244  0  -0.141055  -0.168615  0  3.936406  0
C  C102  1  0.60237019  0.34714812  0.63585997  1  0.364616  0  -0.141347  -0.173426  0  3.936491  0
C  C103  1  0.56354484  0.78202251  0.05829999  1  0.399236  0  -0.124922  -0.173156  0  3.90359  0
C  C104  1  0.43579628  0.21862161  0.94282074  1  0.348687  0  -0.123757  -0.172545  0  3.902268  0
C  C105  1  0.53911730  0.64152207  0.10308839  1  -0.008923  0  -0.094599  -0.216333  0  4.012468  0
C  C106  1  0.46028820  0.35914035  0.89787625  1  0.104837  0  -0.094776  -0.217752  0  4.012463  0
C  C107  1  0.50742045  0.43172399  0.12870974  1  -0.022957  0  -0.016347  -0.07583  0  4.035631  0
N  N108  1  0.52233823  0.50431675  0.20403854  1  -1.202968  0  -0.229927  -0.204239  0  3.562984  0
N  N109  1  0.47738331  0.49633892  0.79691351  1  -1.148247  0  -0.229982  -0.222195  0  3.578674  0
N  N110  1  0.53636624  0.98343040  0.48818438  1  -0.521149  0  -0.152188  -0.141824  0  3.288404  0
N  N111  1  0.46656558  0.01659251  0.48615767  1  -0.520975  0  -0.151732  -0.140325  0  3.285611  0
N  N112  1  0.28428444  0.50911661  0.49494032  1  -1.206123  0  -0.311613  -0.182174  0  3.501525  0
N  N113  1  0.71576480  0.49061958  0.50623266  1  -1.246209  0  -0.310747  -0.179033  0  3.492873  0
N  N114  1  0.02074485  0.52084098  0.48595814  1  -0.444854  0  -0.130046  -0.116256  0  3.231436  0
N  N115  1  0.97923870  0.47831838  0.51417067  1  -0.410169  0  -0.130324  -0.116358  0  3.234187  0
O  O116  1  0.58773051  0.61827649  0.50027143  1  -1.150424  0  -0.317988  -0.543675  0  2.311476  0
O  O117  1  0.45232217  0.36352661  0.79865832  1  -1.109098  0  -0.291129  -0.450157  0  2.065691  0
O  O118  1  0.49481524  0.62987057  0.79627138  1  -1.092138  0  -0.283093  -0.442769  0  2.067703  0
O  O119  1  0.50433510  0.37082751  0.20466346  1  -1.10402  0  -0.283498  -0.44285  0  2.070321  0
O  O120  1  0.37684942  0.58269244  0.34009347  1  -1.076384  0  -0.216773  -0.207934  0  2.527297  0
O  O121  1  0.62357312  0.41854855  0.66097668  1  -1.072902  0  -0.216536  -0.206249  0  2.526964  0
O  O122  1  0.54366824  0.71312603  0.03056812  1  -1.064346  0  -0.174273  -0.142464  0  2.625654  0
O  O123  1  0.45560801  0.28761709  0.97044063  1  -1.063708  0  -0.173961  -0.141663  0  2.624155  0
O  O124  1  0.41314308  0.38160686  0.49635084  1  -1.161456  0  -0.317186  -0.541445  0  2.309505  0
O  O125  1  0.44436671  0.61981192  0.49559499  1  -1.165596  0  -0.319075  -0.556158  0  2.340882  0
O  O126  1  0.55608351  0.38048019  0.50637498  1  -1.172851  0  -0.319098  -0.559109  0  2.352494  0
O  O127  1  0.57038200  0.49758932  0.43072499  1  -1.163922  0  -0.320659  -0.557862  0  2.326414  0
O  O128  1  0.42871037  0.49826246  0.57013241  1  -1.176991  0  -0.320086  -0.559057  0  2.327842  0
O  O129  1  0.42765616  0.50383980  0.42470120  1  -1.150584  0  -0.31318  -0.535874  0  2.332024  0
O  O130  1  0.57206204  0.50011101  0.57627764  1  -1.155094  0  -0.314194  -0.537832  0  2.326918  0
O  O131  1  0.54782885  0.63707624  0.20229182  1  -1.110989  0  -0.29196  -0.450985  0  2.063701  0
