# generated using pymatgen
data_AgH5(C2N)2
_symmetry_space_group_name_H-M   'P 1'
_cell_length_a   5.82506370
_cell_length_b   7.54508107
_cell_length_c   10.95705618
_cell_angle_alpha   93.59553858
_cell_angle_beta   89.99980450
_cell_angle_gamma   89.99962480
_symmetry_Int_Tables_number   1
_chemical_formula_structural   AgH5(C2N)2
_chemical_formula_sum   'Ag4 H20 C16 N8'
_cell_volume   480.62103762
_cell_formula_units_Z   4
loop_
 _symmetry_equiv_pos_site_id
 _symmetry_equiv_pos_as_xyz
  1  'x, y, z'
loop_
 _atom_site_type_symbol
 _atom_site_label
 _atom_site_symmetry_multiplicity
 _atom_site_fract_x
 _atom_site_fract_y
 _atom_site_fract_z
 _atom_site_occupancy
 _atom_site_hle17_bader_spin_density
 _atom_site_hle17_ddec_charge
 _atom_site_hle17_ddec_spin_density
 _atom_site_hle17_ddec_sum_bond_order
 _atom_site_hle17_magmom
 _atom_site_hse06_10hf_bader_spin_density
 _atom_site_hse06_10hf_ddec_charge
 _atom_site_hse06_10hf_ddec_spin_density
 _atom_site_hse06_10hf_ddec_sum_bond_order
 _atom_site_hse06_10hf_magmom
 _atom_site_hse06_bader_spin_density
 _atom_site_hse06_ddec_charge
 _atom_site_hse06_ddec_spin_density
 _atom_site_hse06_ddec_sum_bond_order
 _atom_site_hse06_magmom
 _atom_site_pbe_bader_spin_density
 _atom_site_pbe_cm5_charge
 _atom_site_pbe_ddec_charge
 _atom_site_pbe_ddec_spin_density
 _atom_site_pbe_ddec_sum_bond_order
 _atom_site_pbe_magmom
Ag  Ag0  1  0.50001432  0.50002105  0.49999872  1  0  0.445682  0  1.458606  0  0  0.30866  0  1.869045  0  0  0.338123  0  1.831979  0  0  0.456694  0.288909  0  1.89346  0
Ag  Ag1  1  0.00000172  0.00002279  0.00001358  1  0  0.445649  0  1.458515  0  0  0.308605  0  1.868945  0  0  0.338067  0  1.831881  0  0  0.456663  0.288855  0  1.89335  0
Ag  Ag2  1  0.99999810  0.49999024  0.00000065  1  0  0.443696  0  1.472669  0  0  0.297955  0  1.897831  0  0  0.327845  0  1.859335  0  0  0.451052  0.277406  0  1.923961  0
Ag  Ag3  1  0.49996498  0.99997819  0.50000014  1  0  0.443654  0  1.47264  0  0  0.297908  0  1.897789  0  0  0.327804  0  1.859291  0  0  0.450992  0.277392  0  1.923881  0
H  H4  1  0.90504993  0.63952855  0.25034016  1  0  0.119463  0  0.977338  0  0  0.140057  0  1.041748  0  0  0.141594  0  1.041332  0  0  0.090761  0.138876  0  1.042156  0
H  H5  1  0.40504054  0.86049078  0.24963872  1  0  0.11943  0  0.977475  0  0  0.139941  0  1.041974  0  0  0.141497  0  1.041536  0  0  0.09076  0.138746  0  1.042395  0
H  H6  1  0.09497527  0.36050427  0.74965787  1  0  0.119444  0  0.977373  0  0  0.14  0  1.041816  0  0  0.141559  0  1.041375  0  0  0.09078  0.138807  0  1.04223  0
H  H7  1  0.59494860  0.13951497  0.75032732  1  0  0.119408  0  0.977303  0  0  0.140029  0  1.041686  0  0  0.141564  0  1.041273  0  0  0.090758  0.138837  0  1.042105  0
H  H8  1  0.97602617  0.55739866  0.39390692  1  0  0.103616  0  0.963074  0  0  0.12398  0  1.0355  0  0  0.125937  0  1.033378  0  0  0.085105  0.122615  0  1.036829  0
H  H9  1  0.47604558  0.94261867  0.10608921  1  0  0.10346  0  0.963215  0  0  0.123857  0  1.035601  0  0  0.125805  0  1.03349  0  0  0.085039  0.12249  0  1.036925  0
H  H10  1  0.02398357  0.44259283  0.60607961  1  0  0.103568  0  0.963108  0  0  0.123908  0  1.035557  0  0  0.125854  0  1.033451  0  0  0.085077  0.12254  0  1.036888  0
H  H11  1  0.52397447  0.05738624  0.89390601  1  0  0.10352  0  0.962935  0  0  0.123897  0  1.035366  0  0  0.125844  0  1.033255  0  0  0.085058  0.122532  0  1.036691  0
H  H12  1  0.10139480  0.75832240  0.34844960  1  0  0.11534  0  0.970773  0  0  0.136331  0  1.034999  0  0  0.137821  0  1.03471  0  0  0.089825  0.135039  0  1.03549  0
H  H13  1  0.60139072  0.74168885  0.15153727  1  0  0.115161  0  0.970905  0  0  0.136222  0  1.03507  0  0  0.137713  0  1.034776  0  0  0.089808  0.13493  0  1.035559  0
H  H14  1  0.89863383  0.24166432  0.65156871  1  0  0.115259  0  0.970863  0  0  0.136322  0  1.035012  0  0  0.137816  0  1.034718  0  0  0.089837  0.135028  0  1.035504  0
H  H15  1  0.39860872  0.25831309  0.84843959  1  0  0.115359  0  0.970835  0  0  0.136333  0  1.035077  0  0  0.137822  0  1.034787  0  0  0.089841  0.135041  0  1.035564  0
H  H16  1  0.73024380  0.32913080  0.25096158  1  0  0.095221  0  1.009594  0  0  0.106937  0  1.068726  0  0  0.10774  0  1.070855  0  0  0.10625  0.106165  0  1.067592  0
H  H17  1  0.23024788  0.17089957  0.24904655  1  0  0.095233  0  1.009533  0  0  0.106878  0  1.068742  0  0  0.10768  0  1.070871  0  0  0.106275  0.106104  0  1.067611  0
H  H18  1  0.26976079  0.67089508  0.74901795  1  0  0.095235  0  1.009467  0  0  0.106898  0  1.068693  0  0  0.107698  0  1.070826  0  0  0.106208  0.106124  0  1.067559  0
H  H19  1  0.76976015  0.82910360  0.75100337  1  0  0.09524  0  1.009632  0  0  0.106922  0  1.068828  0  0  0.107723  0  1.070967  0  0  0.106265  0.10615  0  1.067693  0
H  H20  1  0.50540642  0.32606461  0.02902003  1  0  0.0817  0  1.013942  0  0  0.094815  0  1.077091  0  0  0.09624  0  1.077081  0  0  0.101405  0.094162  0  1.076402  0
H  H21  1  0.00538031  0.17391160  0.47099353  1  0  0.081868  0  1.013797  0  0  0.094987  0  1.076918  0  0  0.096412  0  1.076908  0  0  0.101533  0.094333  0  1.076235  0
H  H22  1  0.49457929  0.67392292  0.97096727  1  0  0.081782  0  1.014132  0  0  0.094886  0  1.077269  0  0  0.096308  0  1.077265  0  0  0.101381  0.094234  0  1.076576  0
H  H23  1  0.99454360  0.82605827  0.52904882  1  0  0.081832  0  1.014105  0  0  0.094948  0  1.07719  0  0  0.09637  0  1.077184  0  0  0.101441  0.094294  0  1.076507  0
C  C24  1  0.04496986  0.62460385  0.31543093  1  0  -0.381193  0  3.72283  0  0  -0.464424  0  3.951387  0  0  -0.467812  0  3.958916  0  0  -0.243135  -0.461825  0  3.946327  0
C  C25  1  0.54496367  0.87542573  0.18455842  1  0  -0.38098  0  3.722993  0  0  -0.4642  0  3.951545  0  0  -0.467593  0  3.959061  0  0  -0.243094  -0.461593  0  3.946507  0
C  C26  1  0.95504332  0.37541836  0.68456763  1  0  -0.381226  0  3.72287  0  0  -0.464443  0  3.951424  0  0  -0.467849  0  3.958952  0  0  -0.243151  -0.46183  0  3.946382  0
C  C27  1  0.45502891  0.12460020  0.81542385  1  0  -0.381033  0  3.722467  0  0  -0.464354  0  3.950958  0  0  -0.467737  0  3.958503  0  0  -0.243143  -0.461752  0  3.945908  0
C  C28  1  0.23604069  0.52234061  0.25595910  1  0  0.373799  0  3.775013  0  0  0.368545  0  4.011345  0  0  0.382276  0  4.033212  0  0  0.189283  0.358958  0  3.996636  0
C  C29  1  0.73603631  0.97766091  0.24403927  1  0  0.374034  0  3.774605  0  0  0.368718  0  4.011027  0  0  0.382449  0  4.032894  0  0  0.189306  0.359133  0  3.996312  0
C  C30  1  0.76395876  0.47766025  0.74403233  1  0  0.374192  0  3.774965  0  0  0.368885  0  4.011306  0  0  0.382615  0  4.033185  0  0  0.189371  0.359297  0  3.996592  0
C  C31  1  0.26393395  0.02232284  0.75596068  1  0  0.3737  0  3.775549  0  0  0.368712  0  4.011482  0  0  0.382439  0  4.03336  0  0  0.189311  0.359128  0  3.996771  0
C  C32  1  0.56458153  0.38337758  0.22827559  1  0  -0.037486  0  3.811827  0  0  -0.065322  0  4.058541  0  0  -0.063377  0  4.082425  0  0  -0.027444  -0.066014  0  4.041927  0
C  C33  1  0.06457472  0.11662653  0.27172161  1  0  -0.037312  0  3.811912  0  0  -0.06506  0  4.058577  0  0  -0.063117  0  4.082473  0  0  -0.027412  -0.065752  0  4.041965  0
C  C34  1  0.43545740  0.61662836  0.77170233  1  0  -0.03714  0  3.811685  0  0  -0.064927  0  4.058387  0  0  -0.062945  0  4.082197  0  0  -0.027124  -0.065625  0  4.041776  0
C  C35  1  0.93543331  0.88336693  0.72830332  1  0  -0.037265  0  3.811763  0  0  -0.065091  0  4.058459  0  0  -0.063122  0  4.08229  0  0  -0.027229  -0.065785  0  4.04185  0
C  C36  1  0.45214911  0.38182619  0.11783628  1  0  -0.061942  0  3.839084  0  0  -0.089491  0  4.089807  0  0  -0.08911  0  4.112817  0  0  -0.034841  -0.089539  0  4.073096  0
C  C37  1  0.95214202  0.11817335  0.38216432  1  0  -0.062226  0  3.83886  0  0  -0.089787  0  4.089615  0  0  -0.089409  0  4.112625  0  0  -0.034979  -0.089842  0  4.072928  0
C  C38  1  0.54785721  0.61818801  0.88215926  1  0  -0.06221  0  3.838532  0  0  -0.089785  0  4.089244  0  0  -0.0894  0  4.112259  0  0  -0.034907  -0.089831  0  4.072538  0
C  C39  1  0.04782481  0.88178531  0.61784296  1  0  -0.062173  0  3.838492  0  0  -0.089746  0  4.089241  0  0  -0.089364  0  4.112256  0  0  -0.034971  -0.089797  0  4.072552  0
N  N40  1  0.42724233  0.47186653  0.31510140  1  0  -0.425883  0  3.377687  0  0  -0.32645  0  3.650708  0  0  -0.351593  0  3.670123  0  0  -0.408089  -0.309409  0  3.636553  0
N  N41  1  0.92723132  0.02815539  0.18489635  1  0  -0.425927  0  3.377642  0  0  -0.326458  0  3.650665  0  0  -0.351602  0  3.670077  0  0  -0.408127  -0.309412  0  3.636498  0
N  N42  1  0.57278630  0.52814752  0.68488501  1  0  -0.426123  0  3.378388  0  0  -0.326716  0  3.651437  0  0  -0.351856  0  3.670854  0  0  -0.408353  -0.309677  0  3.63729  0
N  N43  1  0.07277328  0.97185106  0.81511170  1  0  -0.425921  0  3.378414  0  0  -0.326586  0  3.651335  0  0  -0.351725  0  3.670755  0  0  -0.408205  -0.309542  0  3.637173  0
N  N44  1  0.24544798  0.47048859  0.13549449  1  0  -0.42732  0  3.383081  0  0  -0.328284  0  3.654158  0  0  -0.352702  0  3.67371  0  0  -0.402988  -0.312184  0  3.640676  0
N  N45  1  0.74543822  0.02949534  0.36450926  1  0  -0.42737  0  3.382651  0  0  -0.328311  0  3.653754  0  0  -0.35273  0  3.673304  0  0  -0.402917  -0.312216  0  3.640288  0
N  N46  1  0.75458409  0.52949245  0.86450171  1  0  -0.427432  0  3.382313  0  0  -0.328317  0  3.653354  0  0  -0.35275  0  3.672919  0  0  -0.402976  -0.312212  0  3.639874  0
N  N47  1  0.25453891  0.97048732  0.63550435  1  0  -0.427385  0  3.382725  0  0  -0.328388  0  3.653721  0  0  -0.352822  0  3.673284  0  0  -0.402995  -0.31229  0  3.640258  0
