# generated using pymatgen
data_MoH12C15(NO3)2
_symmetry_space_group_name_H-M   'P 1'
_cell_length_a   3.95194257
_cell_length_b   10.23363006
_cell_length_c   21.10465603
_cell_angle_alpha   90.00060062
_cell_angle_beta   99.25934584
_cell_angle_gamma   90.00031121
_symmetry_Int_Tables_number   1
_chemical_formula_structural   MoH12C15(NO3)2
_chemical_formula_sum   'Mo2 H24 C30 N4 O12'
_cell_volume   842.40828020
_cell_formula_units_Z   2
loop_
 _symmetry_equiv_pos_site_id
 _symmetry_equiv_pos_as_xyz
  1  'x, y, z'
loop_
 _atom_site_type_symbol
 _atom_site_label
 _atom_site_symmetry_multiplicity
 _atom_site_fract_x
 _atom_site_fract_y
 _atom_site_fract_z
 _atom_site_occupancy
 _atom_site_hle17_bader_spin_density
 _atom_site_hle17_ddec_charge
 _atom_site_hle17_ddec_spin_density
 _atom_site_hle17_ddec_sum_bond_order
 _atom_site_hle17_magmom
 _atom_site_hse06_10hf_bader_spin_density
 _atom_site_hse06_10hf_ddec_charge
 _atom_site_hse06_10hf_ddec_spin_density
 _atom_site_hse06_10hf_ddec_sum_bond_order
 _atom_site_hse06_10hf_magmom
 _atom_site_hse06_bader_spin_density
 _atom_site_hse06_ddec_charge
 _atom_site_hse06_ddec_spin_density
 _atom_site_hse06_ddec_sum_bond_order
 _atom_site_hse06_magmom
 _atom_site_pbe_bader_spin_density
 _atom_site_pbe_cm5_charge
 _atom_site_pbe_ddec_charge
 _atom_site_pbe_ddec_spin_density
 _atom_site_pbe_ddec_sum_bond_order
 _atom_site_pbe_magmom
Mo  Mo0  1  0.90451616  0.99498799  0.80428140  1  0  2.090262  0  4.062383  0  0  2.08278  0  4.594741  0  0  2.182169  0  4.563809  0  0  1.604505  2.010464  0  4.623557  0
Mo  Mo1  1  0.09548085  0.49498494  0.19571475  1  0  2.090258  0  4.062541  0  0  2.082795  0  4.594921  0  0  2.182162  0  4.564039  0  0  1.604502  2.010464  0  4.623804  0
H  H2  1  0.00523132  0.27820239  0.54432309  1  0  0.087551  0  0.987655  0  0  0.097008  0  1.054066  0  0  0.10007  0  1.052038  0  0  0.096175  0.094807  0  1.055574  0
H  H3  1  0.99477065  0.77819515  0.45567917  1  0  0.087626  0  0.987652  0  0  0.097094  0  1.054035  0  0  0.100154  0  1.052008  0  0  0.096256  0.094893  0  1.055548  0
H  H4  1  0.97256327  0.49336030  0.59740593  1  0  0.082389  0  0.955465  0  0  0.09619  0  1.011009  0  0  0.098928  0  1.010072  0  0  0.097124  0.094313  0  1.011563  0
H  H5  1  0.02741976  0.99335083  0.40259747  1  0  0.082411  0  0.955496  0  0  0.096206  0  1.011046  0  0  0.098943  0  1.01011  0  0  0.097133  0.094331  0  1.011599  0
H  H6  1  0.85571831  0.50470243  0.70984586  1  0  0.112218  0  0.92768  0  0  0.124664  0  0.980598  0  0  0.128382  0  0.978443  0  0  0.111257  0.121873  0  0.98233  0
H  H7  1  0.14427925  0.00469274  0.29015867  1  0  0.11222  0  0.927785  0  0  0.124732  0  0.980631  0  0  0.128448  0  0.978478  0  0  0.111278  0.12194  0  0.982366  0
H  H8  1  0.71702233  0.40337660  0.80421430  1  0  0.102576  0  0.934722  0  0  0.110488  0  1.001846  0  0  0.114575  0  0.995911  0  0  0.12899  0.108316  0  1.004766  0
H  H9  1  0.28297996  0.90336906  0.19579147  1  0  0.102613  0  0.934575  0  0  0.110513  0  1.001717  0  0  0.114602  0  0.995778  0  0  0.128962  0.108339  0  1.00464  0
H  H10  1  0.96044448  0.93179952  0.01059195  1  0  0.100644  0  0.959396  0  0  0.110132  0  1.023095  0  0  0.11271  0  1.021265  0  0  0.105175  0.108034  0  1.025056  0
H  H11  1  0.03960021  0.43179987  0.98940596  1  0  0.100542  0  0.959462  0  0  0.110059  0  1.02316  0  0  0.112635  0  1.021332  0  0  0.105117  0.107968  0  1.025092  0
H  H12  1  0.80625245  0.92609289  0.11946199  1  0  0.109442  0  0.971757  0  0  0.114726  0  1.042663  0  0  0.117693  0  1.041525  0  0  0.101742  0.112589  0  1.043832  0
H  H13  1  0.19378947  0.42608924  0.88053535  1  0  0.109434  0  0.971748  0  0  0.114694  0  1.042692  0  0  0.117658  0  1.041558  0  0  0.101763  0.112556  0  1.043866  0
H  H14  1  0.40117551  0.31744305  0.09335792  1  0  0.115606  0  0.982248  0  0  0.119153  0  1.053774  0  0  0.122534  0  1.052772  0  0  0.101549  0.116641  0  1.054847  0
H  H15  1  0.59879565  0.81745157  0.90663954  1  0  0.115633  0  0.982267  0  0  0.119211  0  1.053766  0  0  0.122589  0  1.052757  0  0  0.101554  0.116699  0  1.054851  0
H  H16  1  0.54470523  0.32041074  0.98379447  1  0  0.089189  0  0.994152  0  0  0.097666  0  1.063228  0  0  0.100068  0  1.0616  0  0  0.102064  0.095622  0  1.065131  0
H  H17  1  0.45528135  0.82041531  0.01620338  1  0  0.089315  0  0.99413  0  0  0.097744  0  1.063231  0  0  0.100141  0  1.061615  0  0  0.102104  0.095703  0  1.065135  0
H  H18  1  0.03199541  0.92815346  0.53094965  1  0  0.094833  0  0.932086  0  0  0.118513  0  0.98531  0  0  0.118738  0  0.985229  0  0  0.108699  0.118302  0  0.985332  0
H  H19  1  0.96797791  0.42815037  0.46904891  1  0  0.094775  0  0.932095  0  0  0.11845  0  0.985328  0  0  0.118675  0  0.985249  0  0  0.108645  0.118236  0  0.985351  0
H  H20  1  0.83766101  0.07881022  0.50092738  1  0  0.066633  0  0.941429  0  0  0.083799  0  1.00869  0  0  0.084224  0  1.007829  0  0  0.093325  0.083419  0  1.009353  0
H  H21  1  0.16233493  0.57880313  0.49907512  1  0  0.066603  0  0.941397  0  0  0.083766  0  1.008668  0  0  0.084193  0  1.007807  0  0  0.093346  0.083385  0  1.009333  0
H  H22  1  0.27486532  0.07619222  0.54162323  1  0  0.082045  0  0.959941  0  0  0.096924  0  1.029451  0  0  0.097386  0  1.029522  0  0  0.097699  0.096501  0  1.029481  0
H  H23  1  0.72512747  0.57619033  0.45837634  1  0  0.08205  0  0.959917  0  0  0.096916  0  1.02943  0  0  0.097383  0  1.029505  0  0  0.097702  0.096494  0  1.029459  0
H  H24  1  0.39619853  0.19329844  0.18442949  1  0  0.401101  0  0.875633  0  0  0.379647  0  0.940932  0  0  0.390363  0  0.928491  0  0  0.303682  0.372663  0  0.948857  0
H  H25  1  0.60379839  0.69330403  0.81556747  1  0  0.400981  0  0.875766  0  0  0.379559  0  0.941007  0  0  0.390271  0  0.928579  0  0  0.303682  0.372574  0  0.94894  0
C  C26  1  0.81912513  0.29551769  0.71990804  1  0  -0.058799  0  3.838969  0  0  -0.049454  0  4.089661  0  0  -0.058001  0  4.115009  0  0  -0.022399  -0.043897  0  4.072918  0
C  C27  1  0.18087248  0.79550980  0.28009658  1  0  -0.058569  0  3.8387  0  0  -0.049363  0  4.089642  0  0  -0.057911  0  4.11499  0  0  -0.022362  -0.043803  0  4.072895  0
C  C28  1  0.82973170  0.17313264  0.68931229  1  0  0.228218  0  3.773403  0  0  0.211473  0  4.044439  0  0  0.224398  0  4.058776  0  0  0.084259  0.202482  0  4.034771  0
C  C29  1  0.17026812  0.67312540  0.31068842  1  0  0.228135  0  3.773303  0  0  0.211397  0  4.044495  0  0  0.224328  0  4.058845  0  0  0.084189  0.202418  0  4.034808  0
C  C30  1  0.89446876  0.16740775  0.62538310  1  0  0.170486  0  3.780822  0  0  0.154671  0  4.046917  0  0  0.160835  0  4.063303  0  0  0.074337  0.149987  0  4.03631  0
C  C31  1  0.10552062  0.66739785  0.37461686  1  0  0.170346  0  3.781075  0  0  0.154577  0  4.047176  0  0  0.160714  0  4.063596  0  0  0.074256  0.149891  0  4.036566  0
C  C32  1  0.94665343  0.28288750  0.59292567  1  0  -0.192159  0  3.810239  0  0  -0.217416  0  4.075644  0  0  -0.220209  0  4.097383  0  0  -0.11219  -0.21539  0  4.061115  0
C  C33  1  0.05333316  0.78287623  0.40707578  1  0  -0.19213  0  3.810124  0  0  -0.21739  0  4.075503  0  0  -0.220175  0  4.097247  0  0  -0.112176  -0.215366  0  4.060983  0
C  C34  1  0.92895743  0.40409309  0.62305512  1  0  -0.068576  0  3.840586  0  0  -0.08676  0  4.103736  0  0  -0.089794  0  4.127095  0  0  -0.104647  -0.08486  0  4.08787  0
C  C35  1  0.07107049  0.90408413  0.37695125  1  0  -0.068587  0  3.840762  0  0  -0.086762  0  4.103925  0  0  -0.089793  0  4.127281  0  0  -0.104633  -0.084866  0  4.088065  0
C  C36  1  0.86321281  0.41094854  0.68556558  1  0  -0.090396  0  3.743344  0  0  -0.117128  0  4.001684  0  0  -0.117963  0  4.023122  0  0  -0.08738  -0.116351  0  3.987213  0
C  C37  1  0.13674341  0.91094033  0.31443865  1  0  -0.090577  0  3.743665  0  0  -0.117319  0  4.002074  0  0  -0.118155  0  4.023513  0  0  -0.087486  -0.116544  0  3.987606  0
C  C38  1  0.77323687  0.30676949  0.78602078  1  0  0.126302  0  3.616547  0  0  0.087598  0  3.882261  0  0  0.104767  0  3.887048  0  0  0.074254  0.075924  0  3.878233  0
C  C39  1  0.22675821  0.80676418  0.21398288  1  0  0.126171  0  3.616325  0  0  0.08753  0  3.882073  0  0  0.104699  0  3.886858  0  0  0.074247  0.075851  0  3.878047  0
C  C40  1  0.81203280  0.12698144  0.92283663  1  0  0.465895  0  3.780709  0  0  0.433747  0  4.070162  0  0  0.461978  0  4.071468  0  0  0.223274  0.414726  0  4.068522  0
C  C41  1  0.18798135  0.62697992  0.07716324  1  0  0.466244  0  3.780469  0  0  0.434133  0  4.069879  0  0  0.462358  0  4.071184  0  0  0.223512  0.415112  0  4.06824  0
C  C42  1  0.75794967  0.12620330  0.98916091  1  0  -0.068705  0  3.802538  0  0  -0.052499  0  4.038738  0  0  -0.064963  0  4.065209  0  0  -0.024667  -0.044373  0  4.020541  0
C  C43  1  0.24207206  0.62620925  0.01083866  1  0  -0.068825  0  3.802434  0  0  -0.052663  0  4.038683  0  0  -0.065122  0  4.065158  0  0  -0.024703  -0.044534  0  4.020479  0
C  C44  1  0.83632256  0.01584113  0.02856161  1  0  -0.036396  0  3.722035  0  0  -0.057583  0  3.967717  0  0  -0.053085  0  3.987478  0  0  -0.076693  -0.06019  0  3.95463  0
C  C45  1  0.16369702  0.51584623  0.97143686  1  0  -0.036236  0  3.721899  0  0  -0.057462  0  3.967647  0  0  -0.052969  0  3.987411  0  0  -0.076647  -0.060064  0  3.954549  0
C  C46  1  0.75513016  0.01311931  0.08998375  1  0  -0.19406  0  3.718938  0  0  -0.216439  0  3.978786  0  0  -0.225436  0  3.999212  0  0  -0.104537  -0.210331  0  3.965351  0
C  C47  1  0.24489201  0.51311641  0.91001524  1  0  -0.19406  0  3.718735  0  0  -0.216415  0  3.978612  0  0  -0.225409  0  3.999038  0  0  -0.104558  -0.210308  0  3.96518  0
C  C48  1  0.59693568  0.12119151  0.11405711  1  0  0.364137  0  3.800926  0  0  0.356299  0  4.060365  0  0  0.370044  0  4.077378  0  0  0.094771  0.346773  0  4.048608  0
C  C49  1  0.40308870  0.62118843  0.88594344  1  0  0.364224  0  3.80098  0  0  0.356383  0  4.060433  0  0  0.370129  0  4.07744  0  0  0.094785  0.346855  0  4.048679  0
C  C50  1  0.52749164  0.23359884  0.07571077  1  0  -0.211046  0  3.731347  0  0  -0.231189  0  3.988676  0  0  -0.241081  0  4.01105  0  0  -0.109133  -0.224348  0  3.973757  0
C  C51  1  0.47250357  0.73360357  0.92428683  1  0  -0.211157  0  3.731461  0  0  -0.231323  0  3.988751  0  0  -0.241205  0  4.011114  0  0  -0.109194  -0.224486  0  3.973846  0
C  C52  1  0.60704810  0.23528583  0.01427071  1  0  -0.038096  0  3.738503  0  0  -0.063486  0  3.990718  0  0  -0.05928  0  4.010633  0  0  -0.079604  -0.065846  0  3.977414  0
C  C53  1  0.39295730  0.73529368  0.98572667  1  0  -0.038217  0  3.738769  0  0  -0.063538  0  3.990988  0  0  -0.059337  0  4.01091  0  0  -0.079602  -0.065899  0  3.977687  0
C  C54  1  0.01859855  0.03316907  0.53990342  1  0  -0.07514  0  3.672053  0  0  -0.17198  0  3.935573  0  0  -0.165244  0  3.940433  0  0  -0.13835  -0.176309  0  3.932021  0
C  C55  1  0.98139370  0.53316483  0.46009734  1  0  -0.075083  0  3.672006  0  0  -0.171885  0  3.935529  0  0  -0.165166  0  3.940397  0  0  -0.138326  -0.176213  0  3.931978  0
N  N56  1  0.80515615  0.20843633  0.82593015  1  0  -0.231519  0  3.378952  0  0  -0.195781  0  3.675165  0  0  -0.21087  0  3.697403  0  0  -0.253369  -0.18554  0  3.660362  0
N  N57  1  0.19484680  0.70843399  0.17407035  1  0  -0.231475  0  3.378962  0  0  -0.195758  0  3.675173  0  0  -0.210843  0  3.697413  0  0  -0.253355  -0.185514  0  3.660368  0
N  N58  1  0.75685318  0.23323557  0.88739530  1  0  -0.314717  0  2.959154  0  0  -0.297125  0  3.253133  0  0  -0.313572  0  3.269143  0  0  -0.238204  -0.286502  0  3.24285  0
N  N59  1  0.24315784  0.73323494  0.11260504  1  0  -0.314865  0  2.959284  0  0  -0.29725  0  3.253238  0  0  -0.313701  0  3.269255  0  0  -0.238238  -0.28663  0  3.242956  0
O  O60  1  0.34527306  0.01166967  0.80625971  1  0  -0.800001  0  1.792548  0  0  -0.807957  0  2.093038  0  0  -0.842735  0  2.089274  0  0  -0.543937  -0.782398  0  2.096421  0
O  O61  1  0.65472594  0.51166678  0.19373825  1  0  -0.800015  0  1.792608  0  0  -0.807949  0  2.093056  0  0  -0.842721  0  2.089309  0  0  -0.543923  -0.782388  0  2.096461  0
O  O62  1  0.77838592  0.05954564  0.71823423  1  0  -0.52829  0  2.166687  0  0  -0.501209  0  2.432454  0  0  -0.529089  0  2.429889  0  0  -0.344991  -0.480778  0  2.4339  0
O  O63  1  0.22160381  0.55953788  0.28176424  1  0  -0.528119  0  2.166543  0  0  -0.50113  0  2.432416  0  0  -0.529008  0  2.429864  0  0  -0.344933  -0.480707  0  2.433866  0
O  O64  1  0.90448552  0.01450309  0.89760437  1  0  -0.572985  0  2.075986  0  0  -0.533701  0  2.333891  0  0  -0.563395  0  2.330781  0  0  -0.330144  -0.512417  0  2.336179  0
O  O65  1  0.09552608  0.51450095  0.10239248  1  0  -0.57311  0  2.075974  0  0  -0.533876  0  2.33395  0  0  -0.563551  0  2.330832  0  0  -0.330323  -0.512594  0  2.336236  0
O  O66  1  0.90446908  0.04473743  0.60033104  1  0  -0.215087  0  2.339866  0  0  -0.142751  0  2.57348  0  0  -0.158546  0  2.575033  0  0  -0.18335  -0.131496  0  2.571613  0
O  O67  1  0.09553107  0.54473293  0.39966997  1  0  -0.215019  0  2.34015  0  0  -0.142705  0  2.573759  0  0  -0.158481  0  2.575319  0  0  -0.183343  -0.131451  0  2.571891  0
O  O68  1  0.51504870  0.11205358  0.17371565  1  0  -0.51791  0  2.086084  0  0  -0.469587  0  2.288731  0  0  -0.491652  0  2.280055  0  0  -0.347311  -0.453923  0  2.292662  0
O  O69  1  0.48494688  0.61205719  0.82628180  1  0  -0.517834  0  2.086243  0  0  -0.469532  0  2.288883  0  0  -0.491597  0  2.280209  0  0  -0.347312  -0.453874  0  2.292817  0
O  O70  1  0.82006945  0.82925191  0.79745911  1  0  -0.67563  0  1.469401  0  0  -0.663427  0  1.699494  0  0  -0.684937  0  1.687416  0  0  -0.50197  -0.64847  0  1.708881  0
O  O71  1  0.17992144  0.32924919  0.20253366  1  0  -0.67572  0  1.469605  0  0  -0.663441  0  1.699651  0  0  -0.684953  0  1.687587  0  0  -0.50192  -0.648487  0  1.709057  0
