# generated using pymatgen
data_ZnH24C36(N3O4)2
_symmetry_space_group_name_H-M   'P 1'
_cell_length_a   7.91750289
_cell_length_b   14.64383700
_cell_length_c   15.14171988
_cell_angle_alpha   90.00013696
_cell_angle_beta   90.00005436
_cell_angle_gamma   104.34445993
_symmetry_Int_Tables_number   1
_chemical_formula_structural   ZnH24C36(N3O4)2
_chemical_formula_sum   'Zn2 H48 C72 N12 O16'
_cell_volume   1700.83863347
_cell_formula_units_Z   2
loop_
 _symmetry_equiv_pos_site_id
 _symmetry_equiv_pos_as_xyz
  1  'x, y, z'
loop_
 _atom_site_type_symbol
 _atom_site_label
 _atom_site_symmetry_multiplicity
 _atom_site_fract_x
 _atom_site_fract_y
 _atom_site_fract_z
 _atom_site_occupancy
 _atom_site_hle17_bader_spin_density
 _atom_site_hle17_ddec_charge
 _atom_site_hle17_ddec_spin_density
 _atom_site_hle17_ddec_sum_bond_order
 _atom_site_hle17_magmom
 _atom_site_hse06_10hf_bader_spin_density
 _atom_site_hse06_10hf_ddec_charge
 _atom_site_hse06_10hf_ddec_spin_density
 _atom_site_hse06_10hf_ddec_sum_bond_order
 _atom_site_hse06_10hf_magmom
 _atom_site_hse06_bader_spin_density
 _atom_site_hse06_ddec_charge
 _atom_site_hse06_ddec_spin_density
 _atom_site_hse06_ddec_sum_bond_order
 _atom_site_hse06_magmom
 _atom_site_pbe_bader_spin_density
 _atom_site_pbe_cm5_charge
 _atom_site_pbe_ddec_charge
 _atom_site_pbe_ddec_spin_density
 _atom_site_pbe_ddec_sum_bond_order
 _atom_site_pbe_magmom
Zn  Zn0  1  0.94942832  0.52673005  0.69560148  1  0  1.002725  0  1.90028  0  0  0.815107  0  2.373023  0  0  0.857421  0  2.322567  0  0  0.716925  0.785703  0  2.407561  0
Zn  Zn1  1  0.05056958  0.47327002  0.19560251  1  0  1.002714  0  1.900257  0  0  0.815133  0  2.373017  0  0  0.857445  0  2.322558  0  0  0.716945  0.78573  0  2.407554  0
H  H2  1  0.02390007  0.58142333  0.36491101  1  0  0.304123  0  0.92824  0  0  0.281117  0  0.994335  0  0  0.29076  0  0.986176  0  0  0.306836  0.274253  0  1.000242  0
H  H3  1  0.97610247  0.41858076  0.86491172  1  0  0.30415  0  0.928237  0  0  0.281148  0  0.994326  0  0  0.290792  0  0.986162  0  0  0.306869  0.274286  0  1.000232  0
H  H4  1  0.34400282  0.49689128  0.81018868  1  0  0.326497  0  0.868359  0  0  0.307177  0  0.92799  0  0  0.31466  0  0.922294  0  0  0.328835  0.301817  0  0.932238  0
H  H5  1  0.65599607  0.50310490  0.31018809  1  0  0.326567  0  0.868265  0  0  0.307239  0  0.927887  0  0  0.314723  0  0.92219  0  0  0.328832  0.301882  0  0.932134  0
H  H6  1  0.99465379  0.65691157  0.51915867  1  0  0.097747  0  0.928887  0  0  0.110823  0  0.984407  0  0  0.113603  0  0.980651  0  0  0.139954  0.108739  0  0.98712  0
H  H7  1  0.00534322  0.34309009  0.01915872  1  0  0.097746  0  0.928825  0  0  0.110824  0  0.984352  0  0  0.113604  0  0.980596  0  0  0.139962  0.108741  0  0.987065  0
H  H8  1  0.01440420  0.40781395  0.38115533  1  0  0.123068  0  0.991578  0  0  0.128365  0  1.061664  0  0  0.131414  0  1.059834  0  0  0.119954  0.126121  0  1.063152  0
H  H9  1  0.98560188  0.59218950  0.88115776  1  0  0.123005  0  0.991667  0  0  0.128319  0  1.061752  0  0  0.131365  0  1.05992  0  0  0.119902  0.126075  0  1.063234  0
H  H10  1  0.96227974  0.28887842  0.51954855  1  0  0.112085  0  0.934803  0  0  0.127023  0  0.994154  0  0  0.128924  0  0.993186  0  0  0.104999  0.125585  0  0.994971  0
H  H11  1  0.03772044  0.71112467  0.01955145  1  0  0.11209  0  0.93479  0  0  0.127058  0  0.994111  0  0  0.128959  0  0.993144  0  0  0.105003  0.125624  0  0.994921  0
H  H12  1  0.84573276  0.32319853  0.60865006  1  0  0.102947  0  0.95001  0  0  0.113981  0  1.017694  0  0  0.11609  0  1.015396  0  0  0.101371  0.112374  0  1.019439  0
H  H13  1  0.15426738  0.67680411  0.10865426  1  0  0.103009  0  0.950016  0  0  0.114031  0  1.01772  0  0  0.116141  0  1.015422  0  0  0.101393  0.112424  0  1.019467  0
H  H14  1  0.23554001  0.39860985  0.61378680  1  0  0.094716  0  0.920065  0  0  0.105307  0  0.975904  0  0  0.108571  0  0.97329  0  0  0.125674  0.102905  0  0.977913  0
H  H15  1  0.76445953  0.60139140  0.11378650  1  0  0.094674  0  0.920095  0  0  0.105263  0  0.975932  0  0  0.108525  0  0.973319  0  0  0.12568  0.102864  0  0.97794  0
H  H16  1  0.85670300  0.99655615  0.67539227  1  0  0.11068  0  0.969449  0  0  0.116119  0  1.038385  0  0  0.120175  0  1.034254  0  0  0.107657  0.113133  0  1.041422  0
H  H17  1  0.14329578  0.00344598  0.17539359  1  0  0.110754  0  0.969392  0  0  0.116167  0  1.038348  0  0  0.120222  0  1.034218  0  0  0.107681  0.113178  0  1.041391  0
H  H18  1  0.93891088  0.84532179  0.64982303  1  0  0.106639  0  0.932572  0  0  0.119222  0  0.985209  0  0  0.122661  0  0.983989  0  0  0.108009  0.116739  0  0.986252  0
H  H19  1  0.06108370  0.15467955  0.14982465  1  0  0.106645  0  0.932656  0  0  0.119263  0  0.985255  0  0  0.122701  0  0.984032  0  0  0.108069  0.11678  0  0.986296  0
H  H20  1  0.22967297  0.84451350  0.59430010  1  0  0.107948  0  0.952817  0  0  0.116494  0  1.015159  0  0  0.120592  0  1.011715  0  0  0.104289  0.113529  0  1.017632  0
H  H21  1  0.77032144  0.15548768  0.09429943  1  0  0.107893  0  0.952859  0  0  0.116441  0  1.015196  0  0  0.120539  0  1.011753  0  0  0.104277  0.11348  0  1.01767  0
H  H22  1  0.52769931  0.93371292  0.54481118  1  0  0.101055  0  0.924841  0  0  0.115252  0  0.977291  0  0  0.11831  0  0.975829  0  0  0.109064  0.113045  0  0.978388  0
H  H23  1  0.47229526  0.06628600  0.04480950  1  0  0.101038  0  0.924806  0  0  0.115227  0  0.977278  0  0  0.118285  0  0.975814  0  0  0.109052  0.11302  0  0.978371  0
H  H24  1  0.73983929  0.08647336  0.51654398  1  0  0.092983  0  0.962057  0  0  0.102848  0  1.022715  0  0  0.10494  0  1.023871  0  0  0.10108  0.10132  0  1.022116  0
H  H25  1  0.26015614  0.91352478  0.01654283  1  0  0.09304  0  0.962088  0  0  0.102887  0  1.022752  0  0  0.104979  0  1.02391  0  0  0.101101  0.10136  0  1.022148  0
H  H26  1  0.65067335  0.23742343  0.53612777  1  0  0.100865  0  0.965994  0  0  0.109123  0  1.03235  0  0  0.112143  0  1.030072  0  0  0.108956  0.106924  0  1.034028  0
H  H27  1  0.34932499  0.76257548  0.03612830  1  0  0.10095  0  0.966043  0  0  0.109265  0  1.032309  0  0  0.112285  0  1.030031  0  0  0.109042  0.107066  0  1.033986  0
H  H28  1  0.55779096  0.41427414  0.74269234  1  0  0.1015  0  0.931869  0  0  0.111643  0  0.993406  0  0  0.114044  0  0.990318  0  0  0.141365  0.109833  0  0.995671  0
H  H29  1  0.44220930  0.58572256  0.24269118  1  0  0.101525  0  0.931824  0  0  0.111672  0  0.993352  0  0  0.114071  0  0.990267  0  0  0.141357  0.109862  0  0.995618  0
H  H30  1  0.82201620  0.70051847  0.77723768  1  0  0.125743  0  0.956755  0  0  0.133008  0  1.020076  0  0  0.135979  0  1.018678  0  0  0.12002  0.130812  0  1.021257  0
H  H31  1  0.17798195  0.29947902  0.27723574  1  0  0.125813  0  0.956737  0  0  0.133064  0  1.020062  0  0  0.136035  0  1.018664  0  0  0.120056  0.130867  0  1.021244  0
H  H32  1  0.55477143  0.75038540  0.87971018  1  0  0.098949  0  0.923408  0  0  0.114988  0  0.983266  0  0  0.115808  0  0.98366  0  0  0.102859  0.114334  0  0.983089  0
H  H33  1  0.44523053  0.24961170  0.37970825  1  0  0.098926  0  0.92342  0  0  0.114957  0  0.983291  0  0  0.115776  0  0.983686  0  0  0.102857  0.114303  0  0.983113  0
H  H34  1  0.35875968  0.66212633  0.89508676  1  0  0.110322  0  0.92373  0  0  0.122502  0  0.988843  0  0  0.124274  0  0.987948  0  0  0.105276  0.121175  0  0.989581  0
H  H35  1  0.64123695  0.33787009  0.39508578  1  0  0.110343  0  0.923743  0  0  0.122531  0  0.988843  0  0  0.12431  0  0.98794  0  0  0.105262  0.121204  0  0.989582  0
H  H36  1  0.46852063  0.75882528  0.71803039  1  0  0.087216  0  0.918815  0  0  0.098613  0  0.973479  0  0  0.101204  0  0.971646  0  0  0.125127  0.096716  0  0.974939  0
H  H37  1  0.53148018  0.24117275  0.21802914  1  0  0.087231  0  0.918802  0  0  0.09862  0  0.973475  0  0  0.101212  0  0.971641  0  0  0.125115  0.096722  0  0.974935  0
H  H38  1  0.70231357  0.08389175  0.75582722  1  0  0.109582  0  0.978958  0  0  0.114238  0  1.049335  0  0  0.118304  0  1.045221  0  0  0.107839  0.111246  0  1.052294  0
H  H39  1  0.29768831  0.91610569  0.25582874  1  0  0.109591  0  0.978862  0  0  0.114254  0  1.049253  0  0  0.118323  0  1.045136  0  0  0.107857  0.111253  0  1.05223  0
H  H40  1  0.64656876  0.23999747  0.78175773  1  0  0.107076  0  0.937064  0  0  0.117098  0  0.993655  0  0  0.120561  0  0.992687  0  0  0.105221  0.114591  0  0.994512  0
H  H41  1  0.35343226  0.76000075  0.28176354  1  0  0.107084  0  0.937124  0  0  0.117112  0  0.993704  0  0  0.120572  0  0.992736  0  0  0.10522  0.114605  0  0.994558  0
H  H42  1  0.35294573  0.25266214  0.83473118  1  0  0.115261  0  0.963442  0  0  0.12362  0  1.027234  0  0  0.127724  0  1.023603  0  0  0.104954  0.120559  0  1.030008  0
H  H43  1  0.64705608  0.74733764  0.33473710  1  0  0.11523  0  0.963425  0  0  0.123651  0  1.027157  0  0  0.127748  0  1.023534  0  0  0.10497  0.120595  0  1.029927  0
H  H44  1  0.05263366  0.17483771  0.88143047  1  0  0.106229  0  0.928324  0  0  0.11813  0  0.983676  0  0  0.121334  0  0.981836  0  0  0.109798  0.115801  0  0.985053  0
H  H45  1  0.94736989  0.82516291  0.38143540  1  0  0.106296  0  0.928396  0  0  0.118202  0  0.983712  0  0  0.121405  0  0.981872  0  0  0.109843  0.115871  0  0.985086  0
H  H46  1  0.82503097  0.02787704  0.91369631  1  0  0.09181  0  0.957655  0  0  0.10249  0  1.016586  0  0  0.104536  0  1.017934  0  0  0.100806  0.101023  0  1.015789  0
H  H47  1  0.17497457  0.97212509  0.41369724  1  0  0.091826  0  0.957629  0  0  0.102521  0  1.016547  0  0  0.104568  0  1.017893  0  0  0.10081  0.101055  0  1.015749  0
H  H48  1  0.89238503  0.87090449  0.89694557  1  0  0.101597  0  0.934133  0  0  0.109823  0  0.996944  0  0  0.113773  0  0.993383  0  0  0.107137  0.106964  0  0.999493  0
H  H49  1  0.10762077  0.12909830  0.39694452  1  0  0.101543  0  0.934141  0  0  0.109797  0  0.996915  0  0  0.113745  0  0.993359  0  0  0.107101  0.106913  0  0.999491  0
C  C50  1  0.99318071  0.58400521  0.50600618  1  0  0.223689  0  3.685619  0  0  0.161254  0  3.950559  0  0  0.176342  0  3.961912  0  0  0.145146  0.151495  0  3.942509  0
C  C51  1  0.00681880  0.41599643  0.00600773  1  0  0.223669  0  3.685423  0  0  0.161267  0  3.950384  0  0  0.176353  0  3.961734  0  0  0.145117  0.151509  0  3.942336  0
C  C52  1  0.00639487  0.45361095  0.43598336  1  0  -0.05307  0  3.64375  0  0  -0.102846  0  3.907624  0  0  -0.101547  0  3.926544  0  0  -0.001751  -0.103686  0  3.89503  0
C  C53  1  0.99360695  0.54639123  0.93598372  1  0  -0.053166  0  3.643972  0  0  -0.102972  0  3.907857  0  0  -0.101673  0  3.926785  0  0  -0.001798  -0.103808  0  3.895258  0
C  C54  1  0.98220913  0.43379360  0.52433484  1  0  0.173675  0  3.772747  0  0  0.176015  0  4.028708  0  0  0.177551  0  4.054535  0  0  0.073152  0.174814  0  4.011327  0
C  C55  1  0.01779423  0.56620810  0.02433541  1  0  0.173813  0  3.772794  0  0  0.176188  0  4.028773  0  0  0.177724  0  4.054602  0  0  0.073215  0.17499  0  4.011389  0
C  C56  1  0.96731004  0.34265330  0.57064056  1  0  -0.216479  0  3.718752  0  0  -0.267978  0  3.96999  0  0  -0.268927  0  3.980755  0  0  -0.161065  -0.267051  0  3.962566  0
C  C57  1  0.03269505  0.65734925  0.07064202  1  0  -0.216558  0  3.718682  0  0  -0.268078  0  3.969929  0  0  -0.269027  0  3.980689  0  0  -0.161049  -0.267158  0  3.962512  0
C  C58  1  0.12088268  0.34288339  0.63366556  1  0  0.007885  0  3.58013  0  0  -0.015246  0  3.821809  0  0  -0.014177  0  3.831058  0  0  0.011989  -0.01597  0  3.815492  0
C  C59  1  0.87911691  0.65711791  0.13366611  1  0  0.007946  0  3.580075  0  0  -0.015127  0  3.821699  0  0  -0.014054  0  3.830945  0  0  0.011984  -0.015848  0  3.815382  0
C  C60  1  0.08670741  0.36302131  0.73136056  1  0  0.652017  0  3.847163  0  0  0.595617  0  4.166395  0  0  0.629013  0  4.156656  0  0  0.210671  0.572779  0  4.172543  0
C  C61  1  0.91329092  0.63697957  0.23136107  1  0  0.652048  0  3.847015  0  0  0.595602  0  4.166304  0  0  0.628998  0  4.156566  0  0  0.210682  0.572764  0  4.17245  0
C  C62  1  0.05732735  0.17209864  0.64895027  1  0  0.506832  0  3.804679  0  0  0.457728  0  4.092522  0  0  0.487754  0  4.092719  0  0  0.244857  0.437549  0  4.091821  0
C  C63  1  0.94266977  0.82790270  0.14895124  1  0  0.50696  0  3.804557  0  0  0.457782  0  4.092509  0  0  0.487809  0  4.09271  0  0  0.244879  0.437602  0  4.091801  0
C  C64  1  0.10370900  0.08264344  0.63134254  1  0  -0.120438  0  3.809494  0  0  -0.106999  0  4.05599  0  0  -0.118937  0  4.08151  0  0  -0.020214  -0.099379  0  4.038835  0
C  C65  1  0.89628900  0.91735715  0.13134369  1  0  -0.120454  0  3.809432  0  0  -0.107003  0  4.055915  0  0  -0.118941  0  4.081434  0  0  -0.020233  -0.099381  0  4.038756  0
C  C66  1  0.98479977  0.99736488  0.64874078  1  0  -0.029964  0  3.679426  0  0  -0.058385  0  3.933169  0  0  -0.053612  0  3.950369  0  0  -0.066097  -0.061091  0  3.921269  0
C  C67  1  0.01519671  0.00263787  0.14874269  1  0  -0.030033  0  3.679237  0  0  -0.058438  0  3.933013  0  0  -0.053668  0  3.95022  0  0  -0.06613  -0.061146  0  3.921102  0
C  C68  1  0.03123958  0.91187584  0.63425728  1  0  -0.066446  0  3.738533  0  0  -0.081117  0  3.998344  0  0  -0.086635  0  4.019566  0  0  -0.085374  -0.077592  0  3.983872  0
C  C69  1  0.96875685  0.08812687  0.13425787  1  0  -0.066445  0  3.738434  0  0  -0.081161  0  3.998276  0  0  -0.086675  0  4.019492  0  0  -0.085424  -0.077635  0  3.983808  0
C  C70  1  0.19493147  0.91152443  0.60263938  1  0  -0.077222  0  3.693624  0  0  -0.10675  0  3.95442  0  0  -0.105388  0  3.97205  0  0  -0.075553  -0.107306  0  3.942338  0
C  C71  1  0.80506234  0.08847536  0.10263791  1  0  -0.077134  0  3.693588  0  0  -0.106663  0  3.95439  0  0  -0.1053  0  3.97202  0  0  -0.075511  -0.107224  0  3.942313  0
C  C72  1  0.31910013  0.99713091  0.58390188  1  0  0.039517  0  3.805294  0  0  0.058304  0  4.038824  0  0  0.05513  0  4.063354  0  0  -0.006953  0.060153  0  4.02222  0
C  C73  1  0.68089457  0.00286812  0.08390213  1  0  0.039478  0  3.805227  0  0  0.058264  0  4.038742  0  0  0.055088  0  4.063272  0  0  -0.007  0.060112  0  4.022138  0
C  C74  1  0.48996894  0.99989761  0.55391656  1  0  -0.070012  0  3.687481  0  0  -0.095937  0  3.94085  0  0  -0.094639  0  3.959465  0  0  -0.070396  -0.096486  0  3.928106  0
C  C75  1  0.51002692  0.00010134  0.05391672  1  0  -0.069944  0  3.687344  0  0  -0.09587  0  3.940704  0  0  -0.094571  0  3.95932  0  0  -0.070372  -0.096419  0  3.927958  0
C  C76  1  0.60798149  0.08504298  0.53781828  1  0  -0.067703  0  3.749823  0  0  -0.084397  0  4.015063  0  0  -0.089609  0  4.036704  0  0  -0.089968  -0.081114  0  4.000424  0
C  C77  1  0.39201559  0.91495593  0.03781852  1  0  -0.067827  0  3.749915  0  0  -0.084519  0  4.015185  0  0  -0.089732  0  4.036828  0  0  -0.090037  -0.081233  0  4.00054  0
C  C78  1  0.55924741  0.17023323  0.54958255  1  0  -0.024856  0  3.685413  0  0  -0.056379  0  3.943867  0  0  -0.051604  0  3.960794  0  0  -0.067762  -0.059181  0  3.932216  0
C  C79  1  0.44075002  0.82976642  0.04958394  1  0  -0.025026  0  3.685519  0  0  -0.05658  0  3.943958  0  0  -0.051805  0  3.960886  0  0  -0.067855  -0.059381  0  3.932304  0
C  C80  1  0.39407039  0.17048371  0.58000508  1  0  -0.118282  0  3.804378  0  0  -0.103664  0  4.04679  0  0  -0.115193  0  4.072051  0  0  -0.019799  -0.096279  0  4.029792  0
C  C81  1  0.60592650  0.82951743  0.08000589  1  0  -0.118203  0  3.804376  0  0  -0.103602  0  4.046797  0  0  -0.115131  0  4.072059  0  0  -0.019812  -0.096218  0  4.029801  0
C  C82  1  0.34874312  0.26117743  0.59445862  1  0  0.508824  0  3.80648  0  0  0.463135  0  4.094668  0  0  0.493353  0  4.094088  0  0  0.241961  0.442795  0  4.094493  0
C  C83  1  0.65125509  0.73882376  0.09445990  1  0  0.508916  0  3.806267  0  0  0.463206  0  4.094495  0  0  0.493429  0  4.093908  0  0  0.242018  0.442866  0  4.094323  0
C  C84  1  0.27157128  0.08409111  0.59803130  1  0  0.032148  0  3.784802  0  0  0.033416  0  4.009144  0  0  0.036466  0  4.035089  0  0  0.000937  0.031688  0  3.991616  0
C  C85  1  0.72842599  0.91590797  0.09803237  1  0  0.032135  0  3.784795  0  0  0.03345  0  4.00906  0  0  0.036499  0  4.035005  0  0  0.000977  0.031722  0  3.991531  0
C  C86  1  0.58700234  0.48797879  0.76125835  1  0  0.234422  0  3.659378  0  0  0.170379  0  3.927752  0  0  0.185539  0  3.938961  0  0  0.150024  0.16055  0  3.919822  0
C  C87  1  0.41299924  0.51201796  0.26125635  1  0  0.234352  0  3.659423  0  0  0.170293  0  3.927792  0  0  0.185454  0  3.938998  0  0  0.149995  0.160465  0  3.919863  0
C  C88  1  0.71595792  0.63737505  0.77879223  1  0  -0.069599  0  3.689476  0  0  -0.109086  0  3.949868  0  0  -0.109609  0  3.971005  0  0  -0.005144  -0.108725  0  3.93574  0
C  C89  1  0.28404024  0.36262245  0.27878850  1  0  -0.069661  0  3.689499  0  0  -0.109146  0  3.94989  0  0  -0.10967  0  3.971027  0  0  -0.005153  -0.108785  0  3.935761  0
C  C90  1  0.54851679  0.62477973  0.81036455  1  0  0.187311  0  3.697464  0  0  0.183373  0  3.955308  0  0  0.186167  0  3.979085  0  0  0.090147  0.181412  0  3.939258  0
C  C91  1  0.45148210  0.37521645  0.31036159  1  0  0.187387  0  3.697582  0  0  0.18346  0  3.955374  0  0  0.186254  0  3.97915  0  0  0.090216  0.181498  0  3.939324  0
C  C92  1  0.45739219  0.69474839  0.84606795  1  0  -0.192455  0  3.689004  0  0  -0.245427  0  3.945581  0  0  -0.24586  0  3.955953  0  0  -0.150335  -0.244895  0  3.938388  0
C  C93  1  0.54260682  0.30524789  0.34606685  1  0  -0.192329  0  3.689042  0  0  -0.245283  0  3.945536  0  0  -0.24572  0  3.955909  0  0  -0.150254  -0.244749  0  3.93834  0
C  C94  1  0.20585355  0.67898179  0.73262369  1  0  0.635014  0  3.895133  0  0  0.581894  0  4.201769  0  0  0.615858  0  4.193351  0  0  0.200261  0.558787  0  4.206742  0
C  C95  1  0.79414731  0.32101629  0.23262341  1  0  0.635097  0  3.895065  0  0  0.581968  0  4.201705  0  0  0.615933  0  4.19328  0  0  0.200263  0.558863  0  4.20668  0
C  C96  1  0.37348444  0.74182779  0.77232273  1  0  0.019016  0  3.587495  0  0  -0.001941  0  3.824587  0  0  -0.001319  0  3.834988  0  0  0.0158  -0.002597  0  3.817876  0
C  C97  1  0.62651623  0.25817251  0.27232090  1  0  0.018906  0  3.587571  0  0  -0.002043  0  3.824661  0  0  -0.001425  0  3.835069  0  0  0.015807  -0.0027  0  3.817952  0
C  C98  1  0.48158765  0.91372279  0.77955066  1  0  0.506493  0  3.803217  0  0  0.459635  0  4.091657  0  0  0.48983  0  4.091512  0  0  0.242823  0.439369  0  4.091111  0
C  C99  1  0.51841526  0.08627683  0.27954707  1  0  0.506445  0  3.803299  0  0  0.459678  0  4.091627  0  0  0.489875  0  4.091481  0  0  0.242829  0.439413  0  4.09108  0
C  C100  1  0.44915071  0.00613449  0.80009483  1  0  -0.12338  0  3.809107  0  0  -0.109391  0  4.054517  0  0  -0.121822  0  4.080889  0  0  -0.021456  -0.101454  0  4.036808  0
C  C101  1  0.55085448  0.99386450  0.30009335  1  0  -0.123489  0  3.809214  0  0  -0.10953  0  4.05461  0  0  -0.121973  0  4.081  0  0  -0.021487  -0.101593  0  4.036899  0
C  C102  1  0.57713830  0.08803386  0.78284394  1  0  -0.025337  0  3.679373  0  0  -0.055456  0  3.933945  0  0  -0.050316  0  3.950791  0  0  -0.067067  -0.058405  0  3.922412  0
C  C103  1  0.42286652  0.91196437  0.28284419  1  0  -0.025106  0  3.679291  0  0  -0.055284  0  3.933916  0  0  -0.05014  0  3.95076  0  0  -0.066992  -0.05823  0  3.922373  0
C  C104  1  0.54407521  0.17702955  0.79698906  1  0  -0.07549  0  3.740807  0  0  -0.08751  0  3.998502  0  0  -0.093708  0  4.020307  0  0  -0.088574  -0.083514  0  3.983605  0
C  C105  1  0.45592459  0.82296871  0.29699374  1  0  -0.075616  0  3.740809  0  0  -0.087611  0  3.998547  0  0  -0.093806  0  4.020351  0  0  -0.088584  -0.083612  0  3.983645  0
C  C106  1  0.38287875  0.18425705  0.82719696  1  0  -0.082594  0  3.68594  0  0  -0.112391  0  3.941618  0  0  -0.111114  0  3.959992  0  0  -0.075419  -0.11283  0  3.929052  0
C  C107  1  0.61712589  0.81574342  0.32719906  1  0  -0.082567  0  3.68586  0  0  -0.112446  0  3.941565  0  0  -0.111167  0  3.959943  0  0  -0.075466  -0.112888  0  3.928997  0
C  C108  1  0.24937748  0.10197641  0.84581030  1  0  0.046372  0  3.787867  0  0  0.066152  0  4.01886  0  0  0.062825  0  4.043746  0  0  -0.00604  0.068092  0  4.002003  0
C  C109  1  0.75062690  0.89802341  0.34581200  1  0  0.046445  0  3.787737  0  0  0.066222  0  4.018709  0  0  0.062903  0  4.043578  0  0  -0.005982  0.068162  0  4.001853  0
C  C110  1  0.08095952  0.10592448  0.87481886  1  0  -0.064023  0  3.671056  0  0  -0.089731  0  3.921271  0  0  -0.08847  0  3.940363  0  0  -0.06722  -0.090239  0  3.908206  0
C  C111  1  0.91904685  0.89407684  0.37482129  1  0  -0.064103  0  3.671196  0  0  -0.089802  0  3.921371  0  0  -0.088542  0  3.94046  0  0  -0.067263  -0.090306  0  3.908301  0
C  C112  1  0.95442229  0.02413481  0.89240879  1  0  -0.067529  0  3.751629  0  0  -0.081996  0  4.012218  0  0  -0.087961  0  4.035639  0  0  -0.085638  -0.078203  0  3.996356  0
C  C113  1  0.04558192  0.97586725  0.39240967  1  0  -0.067653  0  3.751757  0  0  -0.082155  0  4.012358  0  0  -0.088122  0  4.035781  0  0  -0.085681  -0.07836  0  3.996486  0
C  C114  1  0.99126092  0.93553603  0.88279338  1  0  -0.024586  0  3.683672  0  0  -0.054059  0  3.941395  0  0  -0.049196  0  3.957417  0  0  -0.066321  -0.056902  0  3.930355  0
C  C115  1  0.00874610  0.06446672  0.38279147  1  0  -0.024503  0  3.683636  0  0  -0.053986  0  3.941332  0  0  -0.049123  0  3.957354  0  0  -0.066284  -0.056809  0  3.930299  0
C  C116  1  0.15391716  0.92897627  0.85304027  1  0  -0.121212  0  3.817157  0  0  -0.108033  0  4.062623  0  0  -0.119374  0  4.087321  0  0  -0.01917  -0.100768  0  4.04599  0
C  C117  1  0.84608724  0.07102357  0.35303944  1  0  -0.121195  0  3.817212  0  0  -0.108026  0  4.062641  0  0  -0.119369  0  4.087336  0  0  -0.019148  -0.10076  0  4.046  0
C  C118  1  0.19083779  0.83602160  0.84209228  1  0  0.511612  0  3.807477  0  0  0.464125  0  4.09632  0  0  0.494475  0  4.095699  0  0  0.246504  0.443724  0  4.096153  0
C  C119  1  0.80916216  0.16397678  0.34209032  1  0  0.511568  0  3.807634  0  0  0.464111  0  4.096434  0  0  0.494468  0  4.095802  0  0  0.246497  0.44371  0  4.096268  0
C  C120  1  0.28444658  0.01169444  0.83306133  1  0  0.03315  0  3.788051  0  0  0.033481  0  4.013266  0  0  0.036504  0  4.039372  0  0  0.001787  0.031788  0  3.995621  0
C  C121  1  0.71555586  0.98830674  0.33305859  1  0  0.03315  0  3.78808  0  0  0.033522  0  4.013219  0  0  0.036546  0  4.039325  0  0  0.001723  0.031828  0  3.995575  0
N  N122  1  0.97456825  0.51635377  0.56728448  1  0  -0.449128  0  3.311433  0  0  -0.366679  0  3.608546  0  0  -0.387604  0  3.619676  0  0  -0.370235  -0.352516  0  3.60072  0
N  N123  1  0.02543019  0.48364804  0.06728618  1  0  -0.449085  0  3.311384  0  0  -0.366744  0  3.608598  0  0  -0.387668  0  3.619725  0  0  -0.370252  -0.35258  0  3.600773  0
N  N124  1  0.01238577  0.54777294  0.42594564  1  0  -0.266361  0  3.477899  0  0  -0.198898  0  3.717164  0  0  -0.214392  0  3.730531  0  0  -0.37614  -0.188515  0  3.707975  0
N  N125  1  0.98761760  0.45222993  0.92594578  1  0  -0.26632  0  3.477883  0  0  -0.198853  0  3.717144  0  0  -0.214347  0  3.730511  0  0  -0.376082  -0.188468  0  3.707953  0
N  N126  1  0.17878992  0.25552403  0.62507134  1  0  -0.289751  0  3.363954  0  0  -0.212765  0  3.595249  0  0  -0.237477  0  3.612039  0  0  -0.24219  -0.195946  0  3.583239  0
N  N127  1  0.82120965  0.74447725  0.12507338  1  0  -0.289844  0  3.363919  0  0  -0.212845  0  3.595248  0  0  -0.237564  0  3.612039  0  0  -0.242218  -0.196024  0  3.583237  0
N  N128  1  0.73787028  0.55181933  0.74841118  1  0  -0.395791  0  3.353479  0  0  -0.311489  0  3.661487  0  0  -0.331753  0  3.673323  0  0  -0.36899  -0.297777  0  3.653121  0
N  N129  1  0.26213031  0.44817808  0.24841028  1  0  -0.395755  0  3.353539  0  0  -0.311444  0  3.661535  0  0  -0.331706  0  3.673366  0  0  -0.369024  -0.297733  0  3.65317  0
N  N130  1  0.47149429  0.52985049  0.79873232  1  0  -0.308811  0  3.423362  0  0  -0.244016  0  3.653438  0  0  -0.259464  0  3.66709  0  0  -0.36964  -0.233682  0  3.644127  0
N  N131  1  0.52850457  0.47014566  0.29873160  1  0  -0.309008  0  3.423523  0  0  -0.244192  0  3.65358  0  0  -0.25964  0  3.667228  0  0  -0.369686  -0.23386  0  3.644272  0
N  N132  1  0.34592441  0.83364231  0.79872075  1  0  -0.292538  0  3.356503  0  0  -0.214949  0  3.586497  0  0  -0.23995  0  3.604301  0  0  -0.240043  -0.197959  0  3.573847  0
N  N133  1  0.65407603  0.16635736  0.29871939  1  0  -0.292504  0  3.356657  0  0  -0.21497  0  3.58664  0  0  -0.239969  0  3.604437  0  0  -0.240039  -0.197977  0  3.573987  0
O  O134  1  0.95455282  0.39833424  0.74797781  1  0  -0.665936  0  2.051968  0  0  -0.588193  0  2.315026  0  0  -0.61483  0  2.298471  0  0  -0.336716  -0.569522  0  2.325874  0
O  O135  1  0.04544493  0.60166528  0.24797980  1  0  -0.665907  0  2.051933  0  0  -0.588172  0  2.315036  0  0  -0.614811  0  2.298485  0  0  -0.33669  -0.569493  0  2.325875  0
O  O136  1  0.19067676  0.34959568  0.78888243  1  0  -0.609621  0  1.909815  0  0  -0.573445  0  2.141007  0  0  -0.595155  0  2.131477  0  0  -0.326302  -0.558386  0  2.14723  0
O  O137  1  0.80932016  0.65040466  0.28888293  1  0  -0.609679  0  1.909728  0  0  -0.573485  0  2.140934  0  0  -0.59519  0  2.1314  0  0  -0.326342  -0.558424  0  2.147156  0
O  O138  1  0.91762752  0.17736717  0.68254443  1  0  -0.495224  0  1.955347  0  0  -0.444069  0  2.175771  0  0  -0.465247  0  2.172255  0  0  -0.259563  -0.42945  0  2.177723  0
O  O139  1  0.08237159  0.82263568  0.18254562  1  0  -0.495326  0  1.955266  0  0  -0.44413  0  2.17571  0  0  -0.465309  0  2.172195  0  0  -0.259586  -0.429523  0  2.177691  0
O  O140  1  0.45145523  0.33848496  0.58068817  1  0  -0.505755  0  1.883251  0  0  -0.468269  0  2.08602  0  0  -0.486768  0  2.079787  0  0  -0.286099  -0.455568  0  2.089989  0
O  O141  1  0.54854356  0.66151478  0.08069186  1  0  -0.505786  0  1.883128  0  0  -0.468313  0  2.085931  0  0  -0.486812  0  2.079693  0  0  -0.28613  -0.455617  0  2.089911  0
O  O142  1  0.17146012  0.59117739  0.75536538  1  0  -0.647589  0  2.080371  0  0  -0.572624  0  2.350567  0  0  -0.600302  0  2.337355  0  0  -0.330851  -0.553244  0  2.358945  0
O  O143  1  0.82854208  0.40882075  0.25536466  1  0  -0.647621  0  2.08037  0  0  -0.572667  0  2.350589  0  0  -0.600351  0  2.337383  0  0  -0.330879  -0.553288  0  2.358971  0
O  O144  1  0.11684275  0.71208413  0.67902609  1  0  -0.621489  0  1.939174  0  0  -0.578957  0  2.172885  0  0  -0.602839  0  2.164226  0  0  -0.3225  -0.562254  0  2.178261  0
O  O145  1  0.88315952  0.28791450  0.17902579  1  0  -0.62151  0  1.939152  0  0  -0.578979  0  2.172879  0  0  -0.60286  0  2.164219  0  0  -0.322496  -0.562275  0  2.178255  0
O  O146  1  0.61857372  0.90358262  0.74631932  1  0  -0.506573  0  1.926689  0  0  -0.46335  0  2.141556  0  0  -0.483219  0  2.136181  0  0  -0.275162  -0.449637  0  2.144812  0
O  O147  1  0.38142687  0.09641479  0.24631767  1  0  -0.506595  0  1.926717  0  0  -0.463364  0  2.141503  0  0  -0.483231  0  2.136127  0  0  -0.275179  -0.449651  0  2.144759  0
O  O148  1  0.09154155  0.76182435  0.86852707  1  0  -0.512093  0  1.950514  0  0  -0.466195  0  2.172365  0  0  -0.486583  0  2.166966  0  0  -0.26833  -0.452114  0  2.175679  0
O  O149  1  0.90845880  0.23817482  0.36852600  1  0  -0.51205  0  1.950551  0  0  -0.466188  0  2.172409  0  0  -0.486581  0  2.16701  0  0  -0.268327  -0.452105  0  2.17572  0
