# generated using pymatgen
data_GdH11C16SO12
_symmetry_space_group_name_H-M   'P 1'
_cell_length_a   5.67636343
_cell_length_b   13.16181558
_cell_length_c   13.98467150
_cell_angle_alpha   110.15539312
_cell_angle_beta   96.01291532
_cell_angle_gamma   95.67060656
_symmetry_Int_Tables_number   1
_chemical_formula_structural   GdH11C16SO12
_chemical_formula_sum   'Gd2 H22 C32 S2 O24'
_cell_volume   965.19618304
_cell_formula_units_Z   2
loop_
 _symmetry_equiv_pos_site_id
 _symmetry_equiv_pos_as_xyz
  1  'x, y, z'
loop_
 _atom_site_type_symbol
 _atom_site_label
 _atom_site_symmetry_multiplicity
 _atom_site_fract_x
 _atom_site_fract_y
 _atom_site_fract_z
 _atom_site_occupancy
 _atom_site_hle17_bader_spin_density
 _atom_site_hle17_ddec_charge
 _atom_site_hle17_ddec_spin_density
 _atom_site_hle17_ddec_sum_bond_order
 _atom_site_hle17_magmom
 _atom_site_hse06_10hf_bader_spin_density
 _atom_site_hse06_10hf_ddec_charge
 _atom_site_hse06_10hf_ddec_spin_density
 _atom_site_hse06_10hf_ddec_sum_bond_order
 _atom_site_hse06_10hf_magmom
 _atom_site_hse06_bader_spin_density
 _atom_site_hse06_ddec_charge
 _atom_site_hse06_ddec_spin_density
 _atom_site_hse06_ddec_sum_bond_order
 _atom_site_hse06_magmom
 _atom_site_pbe_bader_spin_density
 _atom_site_pbe_cm5_charge
 _atom_site_pbe_ddec_charge
 _atom_site_pbe_ddec_spin_density
 _atom_site_pbe_ddec_sum_bond_order
 _atom_site_pbe_magmom
Gd  Gd0  1  0.62268201  0.64182145  0.14053669  1  0  2.170257  0  1.755846  0  0  2.079939  0  2.111168  0  0  2.135712  0  2.053827  0  0  1.471876  2.03727  0  2.156224  0
Gd  Gd1  1  0.37730695  0.35818724  0.85946219  1  0  2.17022  0  1.755915  0  0  2.079821  0  2.111369  0  0  2.135698  0  2.053868  0  0  1.471902  2.037153  0  2.156415  0
H  H2  1  0.42308447  0.96345823  0.41290410  1  0  0.399832  0  0.881519  0  0  0.367845  0  0.960357  0  0  0.380873  0  0.946486  0  0  0.308919  0.358704  0  0.970043  0
H  H3  1  0.57692270  0.03654497  0.58710085  1  0  0.399911  0  0.881457  0  0  0.367923  0  0.96028  0  0  0.380949  0  0.94641  0  0  0.308936  0.358777  0  0.969976  0
H  H4  1  0.52423350  0.31674535  0.20903566  1  0  0.123756  0  0.918845  0  0  0.134733  0  0.973623  0  0  0.138846  0  0.971049  0  0  0.119908  0.131736  0  0.975598  0
H  H5  1  0.47575854  0.68325441  0.79096472  1  0  0.123779  0  0.918867  0  0  0.134796  0  0.973593  0  0  0.138914  0  0.971017  0  0  0.119947  0.131801  0  0.975569  0
H  H6  1  0.81471955  0.01410598  0.10718184  1  0  0.114162  0  0.954876  0  0  0.121257  0  1.01859  0  0  0.125251  0  1.015147  0  0  0.113033  0.11833  0  1.021191  0
H  H7  1  0.18526983  0.98589049  0.89281594  1  0  0.114166  0  0.954818  0  0  0.121226  0  1.018568  0  0  0.125236  0  1.015105  0  0  0.11303  0.118299  0  1.021166  0
H  H8  1  0.06229878  0.08797539  0.99882746  1  0  0.098327  0  0.981065  0  0  0.108734  0  1.042923  0  0  0.11142  0  1.041504  0  0  0.108777  0.106793  0  1.043999  0
H  H9  1  0.93769258  0.91202192  0.00116995  1  0  0.098383  0  0.981066  0  0  0.10877  0  1.04292  0  0  0.111461  0  1.041499  0  0  0.10881  0.106832  0  1.043993  0
H  H10  1  0.75443345  0.34663693  0.60159765  1  0  0.122097  0  0.921729  0  0  0.135141  0  0.972262  0  0  0.139085  0  0.970323  0  0  0.119709  0.132272  0  0.973902  0
H  H11  1  0.24556926  0.65337029  0.39839914  1  0  0.122094  0  0.921726  0  0  0.135185  0  0.972193  0  0  0.139126  0  0.970259  0  0  0.11974  0.132318  0  0.973832  0
H  H12  1  0.49737634  0.28697545  0.43153309  1  0  0.116694  0  0.923357  0  0  0.128588  0  0.97633  0  0  0.132171  0  0.973938  0  0  0.117989  0.12598  0  0.978106  0
H  H13  1  0.50263573  0.71302699  0.56846108  1  0  0.116698  0  0.923298  0  0  0.128593  0  0.976276  0  0  0.132171  0  0.973889  0  0  0.118004  0.125986  0  0.978052  0
H  H14  1  0.92023770  0.02922801  0.31061056  1  0  0.132171  0  0.915045  0  0  0.140446  0  0.974941  0  0  0.144517  0  0.971255  0  0  0.123948  0.137469  0  0.977674  0
H  H15  1  0.07978119  0.97077288  0.68939053  1  0  0.132197  0  0.915134  0  0  0.14056  0  0.97492  0  0  0.144637  0  0.971225  0  0  0.123984  0.137582  0  0.977651  0
H  H16  1  0.20948071  0.47716329  0.08871538  1  0  0.438426  0  0.867556  0  0  0.406862  0  0.932979  0  0  0.417254  0  0.917989  0  0  0.30601  0.399503  0  0.943581  0
H  H17  1  0.79052201  0.52283660  0.91128617  1  0  0.438413  0  0.86758  0  0  0.406843  0  0.93302  0  0  0.417239  0  0.918023  0  0  0.305983  0.399483  0  0.943625  0
H  H18  1  0.15292471  0.54692945  0.19562637  1  0  0.453999  0  0.827536  0  0  0.429555  0  0.879099  0  0  0.439298  0  0.864861  0  0  0.319587  0.422622  0  0.889228  0
H  H19  1  0.84707128  0.45307199  0.80437328  1  0  0.454075  0  0.827427  0  0  0.429635  0  0.878983  0  0  0.43938  0  0.864743  0  0  0.319614  0.422702  0  0.88911  0
H  H20  1  0.41459583  0.85606306  0.19769473  1  0  0.46566  0  0.813595  0  0  0.439839  0  0.866423  0  0  0.44944  0  0.852407  0  0  0.316243  0.433061  0  0.876302  0
H  H21  1  0.58539775  0.14393590  0.80230402  1  0  0.465652  0  0.813591  0  0  0.439834  0  0.866412  0  0  0.449436  0  0.852394  0  0  0.316247  0.433055  0  0.876292  0
H  H22  1  0.24045031  0.77548434  0.23189640  1  0  0.463473  0  0.819758  0  0  0.433959  0  0.87938  0  0  0.445166  0  0.863067  0  0  0.311081  0.425964  0  0.891008  0
H  H23  1  0.75955457  0.22452454  0.76809959  1  0  0.463376  0  0.81989  0  0  0.433868  0  0.879501  0  0  0.445075  0  0.863188  0  0  0.311034  0.425872  0  0.891129  0
C  C24  1  0.73934844  0.41706096  0.10151319  1  0  0.717025  0  3.861095  0  0  0.665244  0  4.162189  0  0  0.7011  0  4.150067  0  0  0.230099  0.640789  0  4.169616  0
C  C25  1  0.26064784  0.58293478  0.89848462  1  0  0.716764  0  3.861563  0  0  0.66521  0  4.162263  0  0  0.701063  0  4.150142  0  0  0.230107  0.640762  0  4.169691  0
C  C26  1  0.77657396  0.30594968  0.10132051  1  0  -0.026714  0  3.66486  0  0  -0.012459  0  3.897276  0  0  -0.015709  0  3.915411  0  0  0.01292  -0.010535  0  3.885365  0
C  C27  1  0.22342050  0.69404604  0.89867508  1  0  -0.026693  0  3.664963  0  0  -0.012506  0  3.897365  0  0  -0.015752  0  3.915496  0  0  0.012905  -0.010589  0  3.885461  0
C  C28  1  0.64262150  0.26659046  0.16291610  1  0  -0.068929  0  3.683548  0  0  -0.102972  0  3.928256  0  0  -0.103206  0  3.946936  0  0  -0.066762  -0.102704  0  3.915667  0
C  C29  1  0.35736607  0.73340599  0.83708017  1  0  -0.068947  0  3.683659  0  0  -0.103037  0  3.928371  0  0  -0.103271  0  3.947048  0  0  -0.066805  -0.102768  0  3.915786  0
C  C30  1  0.65888617  0.16160812  0.16281588  1  0  -0.091212  0  3.751855  0  0  -0.066337  0  4.001887  0  0  -0.072004  0  4.024939  0  0  -0.01316  -0.06247  0  3.986252  0
C  C31  1  0.34109779  0.83838828  0.83717737  1  0  -0.091216  0  3.751735  0  0  -0.066301  0  4.001709  0  0  -0.071971  0  4.02477  0  0  -0.013138  -0.062434  0  3.986074  0
C  C32  1  0.80666621  0.09516927  0.10395425  1  0  -0.050686  0  3.716852  0  0  -0.079541  0  3.973208  0  0  -0.079088  0  3.991016  0  0  -0.073524  -0.079736  0  3.961121  0
C  C33  1  0.19332144  0.90482718  0.89604560  1  0  -0.050601  0  3.716734  0  0  -0.079431  0  3.973028  0  0  -0.078988  0  3.990828  0  0  -0.073496  -0.079623  0  3.960935  0
C  C34  1  0.94056603  0.13566488  0.04407480  1  0  -0.03226  0  3.688591  0  0  -0.059348  0  3.941201  0  0  -0.059343  0  3.959552  0  0  -0.06825  -0.059308  0  3.928841  0
C  C35  1  0.05941761  0.86432989  0.95592291  1  0  -0.032391  0  3.688939  0  0  -0.059435  0  3.941476  0  0  -0.059434  0  3.959835  0  0  -0.068295  -0.059389  0  3.929104  0
C  C36  1  0.92760757  0.24021228  0.04142161  1  0  -0.049174  0  3.677074  0  0  -0.036269  0  3.908082  0  0  -0.040733  0  3.927241  0  0  0.003161  -0.033554  0  3.895544  0
C  C37  1  0.07238397  0.75978584  0.95857464  1  0  -0.049114  0  3.677229  0  0  -0.036217  0  3.908227  0  0  -0.040687  0  3.927394  0  0  0.003196  -0.033505  0  3.895697  0
C  C38  1  0.08114066  0.27869182  0.97638299  1  0  0.642071  0  3.90557  0  0  0.590715  0  4.20944  0  0  0.624347  0  4.201992  0  0  0.20304  0.567983  0  4.213544  0
C  C39  1  0.91885226  0.72130469  0.02361422  1  0  0.642158  0  3.905408  0  0  0.590807  0  4.209284  0  0  0.624441  0  4.201817  0  0  0.203106  0.568076  0  4.213396  0
C  C40  1  0.13414311  0.26813427  0.65711957  1  0  0.666791  0  3.910022  0  0  0.611937  0  4.22496  0  0  0.646646  0  4.213939  0  0  0.202621  0.588338  0  4.231421  0
C  C41  1  0.86586105  0.73187134  0.34288176  1  0  0.667154  0  3.909685  0  0  0.612172  0  4.224845  0  0  0.646882  0  4.21381  0  0  0.202652  0.588573  0  4.23131  0
C  C42  1  0.98823076  0.22471496  0.55158725  1  0  -0.003514  0  3.647608  0  0  0.007666  0  3.87989  0  0  0.008692  0  3.896996  0  0  0.016585  0.006976  0  3.868553  0
C  C43  1  0.01177382  0.77528577  0.44840822  1  0  -0.003624  0  3.647488  0  0  0.00752  0  3.879931  0  0  0.00854  0  3.897041  0  0  0.016535  0.006837  0  3.868608  0
C  C44  1  0.79545288  0.27919858  0.53727278  1  0  -0.064157  0  3.676672  0  0  -0.087197  0  3.927738  0  0  -0.091239  0  3.945775  0  0  -0.070957  -0.084801  0  3.915814  0
C  C45  1  0.20454991  0.72080865  0.46272831  1  0  -0.064193  0  3.676821  0  0  -0.08723  0  3.9279  0  0  -0.091277  0  3.945946  0  0  -0.070989  -0.084836  0  3.915977  0
C  C46  1  0.65007563  0.24595947  0.44233205  1  0  -0.030926  0  3.712154  0  0  -0.060014  0  3.966439  0  0  -0.056595  0  3.983866  0  0  -0.066616  -0.061933  0  3.954469  0
C  C47  1  0.34992989  0.75404453  0.55766881  1  0  -0.030885  0  3.712204  0  0  -0.060025  0  3.966456  0  0  -0.056602  0  3.983886  0  0  -0.066631  -0.061945  0  3.95449  0
C  C48  1  0.69609100  0.15576999  0.36151076  1  0  -0.120447  0  3.738825  0  0  -0.097154  0  3.997674  0  0  -0.105669  0  4.020521  0  0  -0.020196  -0.091699  0  3.982331  0
C  C49  1  0.30391546  0.84423075  0.63848979  1  0  -0.120503  0  3.739156  0  0  -0.097053  0  3.997835  0  0  -0.105565  0  4.020676  0  0  -0.020189  -0.091596  0  3.982487  0
C  C50  1  0.88735525  0.10031885  0.37342680  1  0  -0.018475  0  3.662381  0  0  -0.060887  0  3.923721  0  0  -0.054827  0  3.938677  0  0  -0.061166  -0.064601  0  3.913512  0
C  C51  1  0.11265588  0.89967951  0.62657244  1  0  -0.018474  0  3.662725  0  0  -0.060998  0  3.924032  0  0  -0.054938  0  3.938984  0  0  -0.061169  -0.064697  0  3.913819  0
C  C52  1  0.03563656  0.13488682  0.46889265  1  0  -0.092421  0  3.703298  0  0  -0.0784  0  3.944479  0  0  -0.08868  0  3.966922  0  0  -0.010087  -0.071911  0  3.929619  0
C  C53  1  0.96437351  0.86511397  0.53111091  1  0  -0.092331  0  3.703095  0  0  -0.0783  0  3.944425  0  0  -0.088577  0  3.966868  0  0  -0.01006  -0.071842  0  3.929604  0
C  C54  1  0.23476785  0.07337008  0.48314078  1  0  0.652998  0  3.802708  0  0  0.595931  0  4.109451  0  0  0.628791  0  4.103503  0  0  0.238547  0.573658  0  4.113089  0
C  C55  1  0.76523685  0.92663065  0.51686041  1  0  0.65285  0  3.803145  0  0  0.595583  0  4.110107  0  0  0.628445  0  4.104164  0  0  0.238446  0.573323  0  4.113739  0
S  S56  1  0.49741691  0.11086179  0.24273021  1  0  1.072833  0  5.234187  0  0  0.995875  0  5.728034  0  0  1.034912  0  5.716687  0  0  0.481929  0.968393  0  5.736338  0
S  S57  1  0.50259070  0.88913001  0.75726461  1  0  1.072705  0  5.234147  0  0  0.995654  0  5.728051  0  0  1.034693  0  5.7167  0  0  0.481891  0.968165  0  5.736365  0
O  O58  1  0.60245399  0.42469207  0.02698399  1  0  -0.761544  0  2.153869  0  0  -0.719048  0  2.415681  0  0  -0.7476  0  2.406509  0  0  -0.398632  -0.698346  0  2.421328  0
O  O59  1  0.39753319  0.57530275  0.97301316  1  0  -0.76138  0  2.153993  0  0  -0.718998  0  2.415763  0  0  -0.747584  0  2.406687  0  0  -0.398622  -0.698263  0  2.421329  0
O  O60  1  0.82530916  0.50106992  0.18020709  1  0  -0.686949  0  2.006934  0  0  -0.641564  0  2.235594  0  0  -0.666693  0  2.224607  0  0  -0.356466  -0.623774  0  2.242817  0
O  O61  1  0.17468732  0.49892664  0.81979028  1  0  -0.686885  0  2.007133  0  0  -0.641587  0  2.235709  0  0  -0.666719  0  2.224714  0  0  -0.356526  -0.623797  0  2.242928  0
O  O62  1  0.08525416  0.37787074  0.97878421  1  0  -0.700206  0  2.060691  0  0  -0.645111  0  2.295961  0  0  -0.670601  0  2.286535  0  0  -0.360987  -0.627095  0  2.302067  0
O  O63  1  0.91475105  0.62212510  0.02121613  1  0  -0.700242  0  2.060507  0  0  -0.645214  0  2.295888  0  0  -0.670687  0  2.286458  0  0  -0.361036  -0.627199  0  2.301996  0
O  O64  1  0.20814281  0.21518701  0.92100920  1  0  -0.643358  0  1.923376  0  0  -0.604679  0  2.153594  0  0  -0.629026  0  2.145712  0  0  -0.353499  -0.587509  0  2.158557  0
O  O65  1  0.79184771  0.78480703  0.07898783  1  0  -0.643437  0  1.923428  0  0  -0.604749  0  2.153641  0  0  -0.629081  0  2.145754  0  0  -0.353562  -0.587582  0  2.15861  0
O  O66  1  0.03233560  0.25786001  0.73223584  1  0  -0.712115  0  1.996353  0  0  -0.662627  0  2.232537  0  0  -0.689869  0  2.222039  0  0  -0.37034  -0.643012  0  2.239177  0
O  O67  1  0.96765234  0.74214460  0.26776381  1  0  -0.712324  0  1.996256  0  0  -0.662796  0  2.232519  0  0  -0.690029  0  2.222023  0  0  -0.370367  -0.643182  0  2.239164  0
O  O68  1  0.34182447  0.31985890  0.67223449  1  0  -0.641558  0  1.953978  0  0  -0.60613  0  2.186268  0  0  -0.631688  0  2.178125  0  0  -0.354726  -0.587864  0  2.191303  0
O  O69  1  0.65818285  0.68014512  0.32776788  1  0  -0.641698  0  1.953807  0  0  -0.606223  0  2.186161  0  0  -0.631774  0  2.178018  0  0  -0.354727  -0.587959  0  2.191198  0
O  O70  1  0.34809038  0.09035599  0.56963666  1  0  -0.551823  0  2.035974  0  0  -0.496554  0  2.256125  0  0  -0.519538  0  2.250348  0  0  -0.265192  -0.480922  0  2.259888  0
O  O71  1  0.65192427  0.90964811  0.43037674  1  0  -0.551832  0  2.036833  0  0  -0.496454  0  2.25704  0  0  -0.519408  0  2.251195  0  0  -0.265238  -0.480798  0  2.260738  0
O  O72  1  0.27800133  0.99947051  0.39736148  1  0  -0.532337  0  2.135193  0  0  -0.48293  0  2.365393  0  0  -0.505219  0  2.352305  0  0  -0.31605  -0.467371  0  2.373743  0
O  O73  1  0.72200881  0.00053680  0.60265136  1  0  -0.532424  0  2.134904  0  0  -0.48284  0  2.365019  0  0  -0.505146  0  2.351972  0  0  -0.315991  -0.467276  0  2.373361  0
O  O74  1  0.28845596  0.16562328  0.26103800  1  0  -0.569902  0  1.954344  0  0  -0.5268  0  2.194533  0  0  -0.547884  0  2.187771  0  0  -0.304092  -0.511882  0  2.198821  0
O  O75  1  0.71155362  0.83438239  0.73896785  1  0  -0.569679  0  1.95446  0  0  -0.52662  0  2.194731  0  0  -0.547702  0  2.187969  0  0  -0.304045  -0.511702  0  2.199018  0
O  O76  1  0.47203576  0.99221829  0.19734361  1  0  -0.583558  0  1.986295  0  0  -0.531425  0  2.223553  0  0  -0.55096  0  2.211843  0  0  -0.298484  -0.517623  0  2.231331  0
O  O77  1  0.52796186  0.00778235  0.80265942  1  0  -0.583625  0  1.985925  0  0  -0.531484  0  2.223212  0  0  -0.551019  0  2.211506  0  0  -0.298516  -0.517678  0  2.230989  0
O  O78  1  0.28778373  0.53194407  0.15684059  1  0  -0.903263  0  1.866862  0  0  -0.862796  0  2.049493  0  0  -0.883258  0  2.019684  0  0  -0.652909  -0.847914  0  2.070507  0
O  O79  1  0.71220565  0.46805240  0.84315718  1  0  -0.903354  0  1.866826  0  0  -0.862858  0  2.049417  0  0  -0.88335  0  2.019621  0  0  -0.652934  -0.847976  0  2.07043  0
O  O80  1  0.37830795  0.78007808  0.19438708  1  0  -0.914927  0  1.805319  0  0  -0.873875  0  1.990772  0  0  -0.893992  0  1.958656  0  0  -0.64382  -0.859162  0  2.013494  0
O  O81  1  0.62168935  0.21992175  0.80560995  1  0  -0.91486  0  1.805381  0  0  -0.873796  0  1.990823  0  0  -0.893927  0  1.958699  0  0  -0.643798  -0.859079  0  2.013541  0
