# generated using pymatgen
data_Pr2H22C8S3(NO10)2
_symmetry_space_group_name_H-M   'P 1'
_cell_length_a   6.65271026
_cell_length_b   12.66139004
_cell_length_c   13.55252439
_cell_angle_alpha   79.26899355
_cell_angle_beta   75.82649327
_cell_angle_gamma   74.77311916
_symmetry_Int_Tables_number   1
_chemical_formula_structural   Pr2H22C8S3(NO10)2
_chemical_formula_sum   'Pr4 H44 C16 S6 N4 O40'
_cell_volume   1058.85343110
_cell_formula_units_Z   2
loop_
 _symmetry_equiv_pos_site_id
 _symmetry_equiv_pos_as_xyz
  1  'x, y, z'
loop_
 _atom_site_type_symbol
 _atom_site_label
 _atom_site_symmetry_multiplicity
 _atom_site_fract_x
 _atom_site_fract_y
 _atom_site_fract_z
 _atom_site_occupancy
 _atom_site_hle17_bader_spin_density
 _atom_site_hle17_ddec_charge
 _atom_site_hle17_ddec_spin_density
 _atom_site_hle17_ddec_sum_bond_order
 _atom_site_hle17_magmom
 _atom_site_hse06_10hf_bader_spin_density
 _atom_site_hse06_10hf_ddec_charge
 _atom_site_hse06_10hf_ddec_spin_density
 _atom_site_hse06_10hf_ddec_sum_bond_order
 _atom_site_hse06_10hf_magmom
 _atom_site_hse06_bader_spin_density
 _atom_site_hse06_ddec_charge
 _atom_site_hse06_ddec_spin_density
 _atom_site_hse06_ddec_sum_bond_order
 _atom_site_hse06_magmom
 _atom_site_pbe_bader_charge
 _atom_site_pbe_bader_spin_density
 _atom_site_pbe_cm5_charge
 _atom_site_pbe_ddec_charge
 _atom_site_pbe_ddec_spin_density
 _atom_site_pbe_ddec_sum_bond_order
 _atom_site_pbe_magmom
Pr  Pr0  1  0.72206898  0.54909224  0.13120805  1  0  2.390195  0  1.589155  0  0  2.285905  0  1.959532  0  0  2.320463  0  1.916535  0  2.3014  0  1.505401  2.260322  0  1.990001  0
Pr  Pr1  1  0.40238305  0.95091907  0.36876844  1  0  2.390667  0  1.587156  0  0  2.286506  0  1.957335  0  0  2.321068  0  1.914317  0  2.301188  0  1.504484  2.260903  0  1.987805  0
Pr  Pr2  1  0.27793264  0.45090732  0.86879379  1  0  2.390217  0  1.589146  0  0  2.285913  0  1.959531  0  0  2.320472  0  1.916533  0  2.301372  0  1.505409  2.260331  0  1.99  0
Pr  Pr3  1  0.59761678  0.04907884  0.63122990  1  0  2.390695  0  1.587174  0  0  2.286518  0  1.957347  0  0  2.321081  0  1.914329  0  2.301209  0  1.504506  2.26092  0  1.987816  0
H  H4  1  0.34777506  0.74730313  0.97500927  1  0  0.149933  0  0.925553  0  0  0.157441  0  0.988515  0  0  0.161214  0  0.985955  0  0.164302  0  0.134906  0.154708  0  0.990457  0
H  H5  1  0.07042714  0.75265782  0.52509880  1  0  0.149743  0  0.925639  0  0  0.157273  0  0.988295  0  0  0.161063  0  0.985717  0  0.184234  0  0.134601  0.154463  0  0.990379  0
H  H6  1  0.65222533  0.25269973  0.02498884  1  0  0.149904  0  0.925554  0  0  0.157414  0  0.988521  0  0  0.161185  0  0.985961  0  0.164306  0  0.134898  0.154681  0  0.990464  0
H  H7  1  0.92957051  0.24734339  0.47489988  1  0  0.149752  0  0.925653  0  0  0.157273  0  0.988272  0  0  0.161063  0  0.985694  0  0.184224  0  0.134593  0.154463  0  0.990356  0
H  H8  1  0.20066773  0.79170343  0.87437007  1  0  0.143488  0  0.922732  0  0  0.151121  0  0.985224  0  0  0.154743  0  0.98301  0  0.173208  0  0.130309  0.148424  0  0.987026  0
H  H9  1  0.86708292  0.70828724  0.62553911  1  0  0.144234  0  0.922017  0  0  0.15095  0  0.985428  0  0  0.154522  0  0.983268  0  0.175932  0  0.130144  0.148318  0  0.987166  0
H  H10  1  0.79932981  0.20829778  0.12563027  1  0  0.143462  0  0.922808  0  0  0.151098  0  0.985302  0  0  0.154719  0  0.983086  0  0.173201  0  0.13032  0.148407  0  0.987095  0
H  H11  1  0.13291336  0.29171397  0.37445938  1  0  0.144296  0  0.921987  0  0  0.15095  0  0.98542  0  0  0.154522  0  0.983261  0  0.175851  0  0.130155  0.148321  0  0.98716  0
H  H12  1  0.29591152  0.97608097  0.90976919  1  0  0.117308  0  0.934917  0  0  0.130421  0  0.993291  0  0  0.132432  0  0.992369  0  0.149856  0  0.12541  0.128825  0  0.994206  0
H  H13  1  0.18179767  0.52392126  0.59039921  1  0  0.116527  0  0.936382  0  0  0.129337  0  0.994824  0  0  0.131348  0  0.993908  0  0.144323  0  0.125034  0.12774  0  0.995726  0
H  H14  1  0.70408948  0.02392024  0.09023079  1  0  0.117305  0  0.93492  0  0  0.13042  0  0.993292  0  0  0.132431  0  0.992373  0  0.149715  0  0.125412  0.128824  0  0.994207  0
H  H15  1  0.81820234  0.47607913  0.40960069  1  0  0.116493  0  0.936322  0  0  0.129316  0  0.994772  0  0  0.131328  0  0.993854  0  0.144326  0  0.125017  0.127718  0  0.995676  0
H  H16  1  0.35618377  0.91001673  0.03160940  1  0  0.114593  0  0.898891  0  0  0.131777  0  0.950673  0  0  0.132986  0  0.950534  0  0.127911  0  0.132191  0.130785  0  0.950929  0
H  H17  1  0.29796332  0.58982781  0.46858934  1  0  0.113834  0  0.897097  0  0  0.130306  0  0.949789  0  0  0.131581  0  0.949573  0  0.097958  0  0.131744  0.12927  0  0.950104  0
H  H18  1  0.64381513  0.08998448  0.96839113  1  0  0.114582  0  0.898893  0  0  0.131764  0  0.950679  0  0  0.132974  0  0.95054  0  0.127886  0  0.132186  0.130774  0  0.950936  0
H  H19  1  0.70203494  0.41017175  0.53141120  1  0  0.113836  0  0.897073  0  0  0.130304  0  0.949786  0  0  0.131578  0  0.949571  0  0.097936  0  0.131736  0.129268  0  0.950101  0
H  H20  1  0.78629283  0.88490023  0.96770742  1  0  0.115675  0  0.906128  0  0  0.130779  0  0.959285  0  0  0.13221  0  0.958832  0  0.132035  0  0.130286  0.129604  0  0.959869  0
H  H21  1  0.63923682  0.61533481  0.53188740  1  0  0.116536  0  0.906218  0  0  0.132031  0  0.958774  0  0  0.133494  0  0.958329  0  0.123134  0  0.131372  0.130851  0  0.95935  0
H  H22  1  0.21370792  0.11510180  0.03229080  1  0  0.115638  0  0.90609  0  0  0.130747  0  0.95927  0  0  0.132178  0  0.958819  0  0.132009  0  0.130274  0.129572  0  0.959856  0
H  H23  1  0.36076317  0.38466392  0.46811343  1  0  0.116546  0  0.906195  0  0  0.132022  0  0.958752  0  0  0.133485  0  0.958307  0  0.123129  0  0.131386  0.130841  0  0.959329  0
H  H24  1  0.94926201  0.96369733  0.87524436  1  0  0.1148  0  0.914081  0  0  0.124798  0  0.976557  0  0  0.12675  0  0.9755  0  0.11192  0  0.128621  0.123278  0  0.977444  0
H  H25  1  0.78823952  0.53652863  0.62459073  1  0  0.114508  0  0.914902  0  0  0.124336  0  0.977678  0  0  0.126291  0  0.976671  0  0.106639  0  0.128482  0.122833  0  0.978563  0
H  H26  1  0.05073653  0.03630470  0.12475607  1  0  0.114774  0  0.914055  0  0  0.124802  0  0.976526  0  0  0.126755  0  0.975467  0  0.111922  0  0.128618  0.123283  0  0.977413  0
H  H27  1  0.21175975  0.46347176  0.37540990  1  0  0.114486  0  0.914908  0  0  0.124247  0  0.977751  0  0  0.126201  0  0.976747  0  0.106641  0  0.128464  0.122743  0  0.978637  0
H  H28  1  0.03603502  0.85829027  0.08202839  1  0  0.280051  0  0.89469  0  0  0.262453  0  0.955317  0  0  0.270222  0  0.949908  0  0.506632  0  0.319045  0.256941  0  0.959185  0
H  H29  1  0.97666006  0.64166573  0.41788574  1  0  0.280055  0  0.894942  0  0  0.262174  0  0.955895  0  0  0.269947  0  0.950463  0  0.503037  0  0.319002  0.256673  0  0.959761  0
H  H30  1  0.96396326  0.14171094  0.91797122  1  0  0.280058  0  0.894668  0  0  0.262457  0  0.955302  0  0  0.270225  0  0.949893  0  0.506554  0  0.319044  0.256944  0  0.959171  0
H  H31  1  0.02333993  0.35833300  0.58211509  1  0  0.280089  0  0.894892  0  0  0.26221  0  0.955846  0  0  0.269983  0  0.950413  0  0.503019  0  0.319022  0.25671  0  0.959712  0
H  H32  1  0.89223349  0.63821482  0.27825715  1  0  0.441897  0  0.855743  0  0  0.409598  0  0.922344  0  0  0.420373  0  0.906419  0  0.654106  0  0.304559  0.401969  0  0.933626  0
H  H33  1  0.80861451  0.86178823  0.22173447  1  0  0.442243  0  0.855428  0  0  0.409666  0  0.922452  0  0  0.420474  0  0.90649  0  0.658222  0  0.304392  0.401984  0  0.933814  0
H  H34  1  0.10776824  0.36178474  0.72174303  1  0  0.441902  0  0.855739  0  0  0.409603  0  0.922339  0  0  0.420377  0  0.906416  0  0.654112  0  0.304559  0.401974  0  0.933622  0
H  H35  1  0.19138649  0.13821298  0.77826551  1  0  0.442237  0  0.855432  0  0  0.409658  0  0.922461  0  0  0.420466  0  0.9065  0  0.658195  0  0.304404  0.401978  0  0.933822  0
H  H36  1  0.64561768  0.68219573  0.31907454  1  0  0.439349  0  0.842307  0  0  0.409681  0  0.912652  0  0  0.419606  0  0.897675  0  0.632173  0  0.3138  0.402596  0  0.923353  0
H  H37  1  0.64690235  0.81785108  0.18076248  1  0  0.439888  0  0.841776  0  0  0.41031  0  0.911796  0  0  0.420235  0  0.896815  0  0.635412  0  0.314174  0.403226  0  0.922499  0
H  H38  1  0.35438331  0.31780383  0.68092638  1  0  0.439356  0  0.842303  0  0  0.409682  0  0.912654  0  0  0.419607  0  0.897677  0  0.632176  0  0.313807  0.402597  0  0.923354  0
H  H39  1  0.35310221  0.18214848  0.81923641  1  0  0.439853  0  0.841805  0  0  0.410274  0  0.911846  0  0  0.420198  0  0.896866  0  0.635411  0  0.314172  0.40319  0  0.922549  0
H  H40  1  0.77751415  0.32687443  0.27998449  1  0  0.444133  0  0.844964  0  0  0.415556  0  0.904237  0  0  0.425763  0  0.889261  0  0.643695  0  0.300227  0.408358  0  0.91479  0
H  H41  1  0.38471676  0.17298541  0.21995752  1  0  0.44357  0  0.845314  0  0  0.414875  0  0.904917  0  0  0.42504  0  0.889999  0  0.643544  0  0.299859  0.407637  0  0.915551  0
H  H42  1  0.22248612  0.67312678  0.72001623  1  0  0.444133  0  0.844964  0  0  0.415558  0  0.904235  0  0  0.425766  0  0.889258  0  0.643668  0  0.300224  0.408359  0  0.914789  0
H  H43  1  0.61528569  0.82701249  0.78004286  1  0  0.443569  0  0.845305  0  0  0.414878  0  0.904895  0  0  0.425043  0  0.889977  0  0.643539  0  0.299853  0.407643  0  0.915523  0
H  H44  1  0.54674303  0.36285633  0.26255631  1  0  0.420264  0  0.893269  0  0  0.386959  0  0.962422  0  0  0.397516  0  0.946974  0  0.654049  0  0.290759  0.379497  0  0.97332  0
H  H45  1  0.17237393  0.13718183  0.23728004  1  0  0.420631  0  0.892737  0  0  0.387399  0  0.961905  0  0  0.397974  0  0.946405  0  0.625949  0  0.290489  0.379959  0  0.972789  0
H  H46  1  0.45325896  0.63714405  0.73744469  1  0  0.420327  0  0.8932  0  0  0.387024  0  0.962345  0  0  0.397581  0  0.946896  0  0.654033  0  0.290772  0.37956  0  0.973244  0
H  H47  1  0.82762633  0.86281938  0.76272067  1  0  0.420644  0  0.892709  0  0  0.38742  0  0.961867  0  0  0.397995  0  0.946367  0  0.625946  0  0.290493  0.379979  0  0.972751  0
C  C48  1  0.06161331  0.68919992  0.00632557  1  0  0.756534  0  3.825311  0  0  0.711603  0  4.123665  0  0  0.746556  0  4.111121  0  1.640456  0  0.236921  0.687815  0  4.131722  0
C  C49  1  0.75751118  0.81082047  0.49357272  1  0  0.759861  0  3.82392  0  0  0.714701  0  4.12197  0  0  0.749541  0  4.109621  0  1.638415  0  0.238598  0.691011  0  4.129885  0
C  C50  1  0.93839817  0.31079634  0.99367447  1  0  0.756514  0  3.825277  0  0  0.711587  0  4.123634  0  0  0.746552  0  4.111064  0  1.640473  0  0.236893  0.687798  0  4.131694  0
C  C51  1  0.24248203  0.18917248  0.50642417  1  0  0.760141  0  3.823715  0  0  0.71483  0  4.121922  0  0  0.749671  0  4.109569  0  1.638024  0  0.2385  0.691139  0  4.129842  0
C  C52  1  0.18749056  0.77663998  0.95794366  1  0  -0.180389  0  3.477673  0  0  -0.232643  0  3.713979  0  0  -0.23541  0  3.718533  0  0.134852  0  -0.051775  -0.230791  0  3.711279  0
C  C53  1  0.92243257  0.72336308  0.54198451  1  0  -0.181497  0  3.478329  0  0  -0.232665  0  3.714007  0  0  -0.235396  0  3.718565  0  0.109347  0  -0.05187  -0.23086  0  3.711273  0
C  C54  1  0.81250870  0.22336041  0.04205697  1  0  -0.180254  0  3.47766  0  0  -0.232528  0  3.713988  0  0  -0.235289  0  3.718523  0  0.134848  0  -0.05175  -0.230681  0  3.711285  0
C  C55  1  0.07756780  0.27663648  0.45801549  1  0  -0.181746  0  3.478531  0  0  -0.232717  0  3.714064  0  0  -0.235448  0  3.718615  0  0.109411  0  -0.051876  -0.230916  0  3.711336  0
C  C56  1  0.22862374  0.95601700  0.99152366  1  0  -0.032518  0  3.50559  0  0  -0.092157  0  3.757287  0  0  -0.089319  0  3.766381  0  0.172878  0  -0.054336  -0.093919  0  3.751138  0
C  C57  1  0.17626770  0.54389524  0.50861675  1  0  -0.029928  0  3.503842  0  0  -0.088345  0  3.754925  0  0  -0.085523  0  3.764048  0  0.208867  0  -0.052882  -0.090098  0  3.748792  0
C  C58  1  0.77137626  0.04398339  0.00847623  1  0  -0.032465  0  3.505629  0  0  -0.092119  0  3.757308  0  0  -0.08928  0  3.766399  0  0.173091  0  -0.054323  -0.093883  0  3.751161  0
C  C59  1  0.82373057  0.45610432  0.49138379  1  0  -0.029881  0  3.503669  0  0  -0.088343  0  3.754874  0  0  -0.085521  0  3.763995  0  0.208901  0  -0.052875  -0.090098  0  3.748746  0
C  C60  1  0.89031886  0.94188644  0.95764483  1  0  -0.029156  0  3.502085  0  0  -0.085778  0  3.75283  0  0  -0.082852  0  3.761966  0  0.213741  0  -0.051707  -0.087633  0  3.746717  0
C  C61  1  0.78996381  0.55823880  0.54216408  1  0  -0.027204  0  3.502106  0  0  -0.084209  0  3.753197  0  0  -0.081419  0  3.762561  0  0.2153  0  -0.051185  -0.086078  0  3.747101  0
C  C62  1  0.10968078  0.05811477  0.04235497  1  0  -0.029039  0  3.501921  0  0  -0.085739  0  3.752744  0  0  -0.082814  0  3.761882  0  0.213748  0  -0.051675  -0.087594  0  3.746629  0
C  C63  1  0.21003655  0.44176076  0.45783591  1  0  -0.027153  0  3.502107  0  0  -0.084073  0  3.753133  0  0  -0.08128  0  3.762491  0  0.215315  0  -0.051169  -0.085941  0  3.747036  0
S  S64  1  0.71215893  0.59125028  0.85603121  1  0  1.672169  0  5.764588  0  0  1.5505  0  6.306357  0  0  1.607339  0  6.265919  0  3.850738  0  0.603643  1.510984  0  6.333426  0
S  S65  1  0.15937071  0.90869663  0.64404852  1  0  1.675286  0  5.7639  0  0  1.553522  0  6.305702  0  0  1.610487  0  6.265113  0  3.85203  0  0.604246  1.514016  0  6.332824  0
S  S66  1  0.28784305  0.40874845  0.14397073  1  0  1.672138  0  5.764691  0  0  1.55048  0  6.306438  0  0  1.607319  0  6.265996  0  3.850345  0  0.603619  1.510964  0  6.33351  0
S  S67  1  0.84062840  0.09130293  0.35594962  1  0  1.675322  0  5.763876  0  0  1.553566  0  6.305683  0  0  1.610531  0  6.265096  0  3.851976  0  0.604251  1.514062  0  6.332805  0
S  S68  1  0.23642554  0.75001597  0.24996542  1  0  1.628469  0  5.770928  0  0  1.501929  0  6.321805  0  0  1.558404  0  6.283037  0  3.820203  0  0.590965  1.462866  0  6.347482  0
S  S69  1  0.76357408  0.24998358  0.75003531  1  0  1.628335  0  5.771071  0  0  1.501795  0  6.321959  0  0  1.558267  0  6.283201  0  3.820182  0  0.590903  1.462732  0  6.347635  0
N  N70  1  0.08076051  0.88165324  0.00252478  1  0  -0.069281  0  3.376573  0  0  0.008091  0  3.591611  0  0  -0.00374  0  3.610003  0  -1.022203  0  -0.350121  0.016137  0  3.579074  0
N  N71  1  0.96520818  0.61835394  0.49740253  1  0  -0.07242  0  3.377548  0  0  0.004351  0  3.593838  0  0  -0.007391  0  3.612018  0  -1.011838  0  -0.351792  0.012369  0  3.581401  0
N  N72  1  0.91923802  0.11834880  0.99747565  1  0  -0.069385  0  3.376604  0  0  0.008013  0  3.591642  0  0  -0.003822  0  3.610035  0  -1.022198  0  -0.350149  0.016058  0  3.579107  0
N  N73  1  0.03478872  0.38164562  0.50259782  1  0  -0.072425  0  3.377572  0  0  0.004307  0  3.593842  0  0  -0.007434  0  3.612019  0  -1.011812  0  -0.351799  0.012324  0  3.581406  0
O  O74  1  0.90432509  0.71111566  0.08007630  1  0  -0.719378  0  2.009269  0  0  -0.67383  0  2.255282  0  0  -0.696822  0  2.242993  0  -1.207583  0  -0.369843  -0.657871  0  2.263452  0
O  O75  1  0.69577098  0.78895757  0.41978970  1  0  -0.721358  0  2.009195  0  0  -0.67525  0  2.254575  0  0  -0.698202  0  2.242315  0  -1.200904  0  -0.370451  -0.659284  0  2.26261  0
O  O76  1  0.09567680  0.28888638  0.91992543  1  0  -0.719301  0  2.00933  0  0  -0.673744  0  2.255339  0  0  -0.69674  0  2.243043  0  -1.207622  0  -0.369796  -0.657786  0  2.26351  0
O  O77  1  0.30423179  0.21103704  0.58020757  1  0  -0.72149  0  2.00891  0  0  -0.675305  0  2.254303  0  0  -0.69825  0  2.242028  0  -1.200649  0  -0.370425  -0.659346  0  2.262352  0
O  O78  1  0.12238579  0.59810339  0.97101890  1  0  -0.780324  0  2.14293  0  0  -0.741399  0  2.413585  0  0  -0.76456  0  2.399292  0  -1.222458  0  -0.403693  -0.725142  0  2.422787  0
O  O79  1  0.69184727  0.90190379  0.52892444  1  0  -0.78179  0  2.142591  0  0  -0.743158  0  2.413967  0  0  -0.766289  0  2.399629  0  -1.219874  0  -0.404327  -0.726868  0  2.423031  0
O  O80  1  0.87761499  0.40189782  0.02898441  1  0  -0.780419  0  2.14284  0  0  -0.74149  0  2.413491  0  0  -0.764658  0  2.399192  0  -1.222442  0  -0.403743  -0.725239  0  2.422709  0
O  O81  1  0.30814775  0.09809576  0.47107314  1  0  -0.781861  0  2.14272  0  0  -0.743179  0  2.414132  0  0  -0.766317  0  2.399804  0  -1.219805  0  -0.404289  -0.726879  0  2.423178  0
O  O82  1  0.67713287  0.63559362  0.95476347  1  0  -0.81853  0  1.986822  0  0  -0.769927  0  2.256516  0  0  -0.790243  0  2.237098  0  -1.353301  0  -0.416082  -0.755511  0  2.269565  0
O  O83  1  0.26734313  0.86444081  0.54528991  1  0  -0.820296  0  1.986814  0  0  -0.771456  0  2.256349  0  0  -0.791787  0  2.236856  0  -1.35571  0  -0.41613  -0.757025  0  2.269398  0
O  O84  1  0.32286529  0.36440759  0.04523779  1  0  -0.818516  0  1.986927  0  0  -0.769903  0  2.256636  0  0  -0.79022  0  2.237219  0  -1.353229  0  -0.416048  -0.755486  0  2.269684  0
O  O85  1  0.73265424  0.13555628  0.45470983  1  0  -0.820246  0  1.986831  0  0  -0.771407  0  2.256361  0  0  -0.791739  0  2.236868  0  -1.355653  0  -0.416095  -0.756976  0  2.269411  0
O  O86  1  0.59914180  0.50094135  0.87099600  1  0  -0.84066  0  2.048071  0  0  -0.794401  0  2.332928  0  0  -0.815023  0  2.313323  0  -1.361799  0  -0.445956  -0.779741  0  2.346102  0
O  O87  1  0.97094771  0.99900804  0.62913696  1  0  -0.840848  0  2.047894  0  0  -0.794979  0  2.333674  0  0  -0.815505  0  2.313771  0  -1.363265  0  -0.446393  -0.780391  0  2.347033  0
O  O88  1  0.40086217  0.49905738  0.12900705  1  0  -0.840656  0  2.048017  0  0  -0.794417  0  2.332902  0  0  -0.815039  0  2.313296  0  -1.36144  0  -0.445984  -0.779759  0  2.346077  0
O  O89  1  0.02904978  0.00099069  0.37086017  1  0  -0.840859  0  2.047862  0  0  -0.795001  0  2.333633  0  0  -0.815527  0  2.313728  0  -1.363219  0  -0.446381  -0.780415  0  2.346995  0
O  O90  1  0.62698798  0.68223701  0.77879711  1  0  -0.74941  0  1.938378  0  0  -0.67772  0  2.166901  0  0  -0.701169  0  2.149618  0  -1.356217  0  -0.341463  -0.661135  0  2.178551  0
O  O91  1  0.08804042  0.81767853  0.72121097  1  0  -0.750869  0  1.938448  0  0  -0.678806  0  2.166753  0  0  -0.702549  0  2.149547  0  -1.35227  0  -0.341422  -0.662259  0  2.178485  0
O  O92  1  0.37301002  0.31776172  0.22120260  1  0  -0.749408  0  1.938407  0  0  -0.677714  0  2.166957  0  0  -0.701161  0  2.149672  0  -1.356272  0  -0.341474  -0.661129  0  2.178607  0
O  O93  1  0.91196109  0.18232268  0.27879160  1  0  -0.750884  0  1.93848  0  0  -0.678814  0  2.166773  0  0  -0.702558  0  2.149568  0  -1.352281  0  -0.341422  -0.662275  0  2.178509  0
O  O94  1  0.94225414  0.54786461  0.81570681  1  0  -0.814635  0  1.989211  0  0  -0.763545  0  2.265262  0  0  -0.784806  0  2.246281  0  -1.361738  0  -0.430793  -0.74833  0  2.278015  0
O  O95  1  0.30584985  0.95202782  0.68444955  1  0  -0.814068  0  1.985925  0  0  -0.763321  0  2.262302  0  0  -0.784598  0  2.243313  0  -1.361384  0  -0.429699  -0.748074  0  2.274964  0
O  O96  1  0.05774846  0.45213412  0.18429606  1  0  -0.814601  0  1.989183  0  0  -0.763544  0  2.26525  0  0  -0.784804  0  2.246269  0  -1.361692  0  -0.430786  -0.748332  0  2.278005  0
O  O97  1  0.69415003  0.04797505  0.31554598  1  0  -0.814092  0  1.985883  0  0  -0.763351  0  2.26226  0  0  -0.784618  0  2.24325  0  -1.361382  0  -0.429711  -0.748104  0  2.274922  0
O  O98  1  0.42583088  0.72005169  0.16552082  1  0  -0.829061  0  1.959024  0  0  -0.778605  0  2.232345  0  0  -0.799175  0  2.212259  0  -1.361773  0  -0.415794  -0.763982  0  2.245822  0
O  O99  1  0.31145512  0.78000915  0.33445143  1  0  -0.82965  0  1.959229  0  0  -0.778923  0  2.232319  0  0  -0.799524  0  2.212259  0  -1.359119  0  -0.415759  -0.764272  0  2.24576  0
O  O100  1  0.57417159  0.27994787  0.83447862  1  0  -0.829046  0  1.959105  0  0  -0.778594  0  2.232439  0  0  -0.799165  0  2.212357  0  -1.361806  0  -0.415786  -0.763972  0  2.245917  0
O  O101  1  0.68854598  0.21999041  0.66554783  1  0  -0.829639  0  1.959234  0  0  -0.778907  0  2.232326  0  0  -0.799509  0  2.212268  0  -1.359121  0  -0.41577  -0.764257  0  2.245768  0
O  O102  1  0.13571585  0.65454554  0.29133929  1  0  -0.732782  0  1.987906  0  0  -0.670744  0  2.236027  0  0  -0.69335  0  2.219523  0  -1.355039  0  -0.337595  -0.65483  0  2.246876  0
O  O103  1  0.08155541  0.84548971  0.20857077  1  0  -0.733813  0  1.987886  0  0  -0.672881  0  2.237337  0  0  -0.695388  0  2.220586  0  -1.351908  0  -0.339626  -0.656969  0  2.248333  0
O  O104  1  0.86428279  0.34545484  0.70866041  1  0  -0.732726  0  1.987894  0  0  -0.670684  0  2.236  0  0  -0.693278  0  2.219474  0  -1.355034  0  -0.337597  -0.65477  0  2.246851  0
O  O105  1  0.91844806  0.15451067  0.79142876  1  0  -0.733763  0  1.987883  0  0  -0.672845  0  2.237359  0  0  -0.695353  0  2.220609  0  -1.351814  0  -0.339578  -0.656926  0  2.248341  0
O  O106  1  0.75075315  0.61994400  0.28974832  1  0  -0.901914  0  1.877093  0  0  -0.859319  0  2.074613  0  0  -0.875974  0  2.0424  0  -1.272102  0  -0.632882  -0.847539  0  2.097266  0
O  O107  1  0.66034200  0.88004750  0.21024473  1  0  -0.902583  0  1.876033  0  0  -0.859942  0  2.073804  0  0  -0.876644  0  2.041498  0  -1.28062  0  -0.633092  -0.848135  0  2.09654  0
O  O108  1  0.24924685  0.38005638  0.71025157  1  0  -0.901922  0  1.877086  0  0  -0.859341  0  2.074624  0  0  -0.875998  0  2.042412  0  -1.272111  0  -0.632881  -0.847559  0  2.097277  0
O  O109  1  0.33965873  0.11995289  0.78975443  1  0  -0.902567  0  1.876083  0  0  -0.85992  0  2.073842  0  0  -0.876622  0  2.041536  0  -1.280589  0  -0.63312  -0.848114  0  2.096578  0
O  O110  1  0.66047952  0.39353061  0.27583685  1  0  -0.916451  0  1.811568  0  0  -0.876569  0  1.999084  0  0  -0.893874  0  1.967915  0  -1.301664  0  -0.649091  -0.864195  0  2.020728  0
O  O111  1  0.32997808  0.10641262  0.22405596  1  0  -0.915679  0  1.812595  0  0  -0.875786  0  1.999464  0  0  -0.893131  0  1.968513  0  -1.274922  0  -0.647898  -0.863423  0  2.021072  0
O  O112  1  0.33951963  0.60646977  0.72416545  1  0  -0.916519  0  1.811519  0  0  -0.876645  0  1.999051  0  0  -0.893946  0  1.967871  0  -1.30161  0  -0.649108  -0.864289  0  2.020739  0
O  O113  1  0.67002302  0.89358694  0.77594329  1  0  -0.915688  0  1.81256  0  0  -0.875801  0  1.999434  0  0  -0.893143  0  1.968481  0  -1.274912  0  -0.647889  -0.86344  0  2.021041  0
