# generated using pymatgen
data_HgH3C4I2BrN2
_symmetry_space_group_name_H-M   'P 1'
_cell_length_a   4.43419887
_cell_length_b   14.07106221
_cell_length_c   15.74978323
_cell_angle_alpha   89.99918372
_cell_angle_beta   90.00103683
_cell_angle_gamma   93.08395682
_symmetry_Int_Tables_number   1
_chemical_formula_structural   HgH3C4I2BrN2
_chemical_formula_sum   'Hg4 H12 C16 I8 Br4 N8'
_cell_volume   981.26705447
_cell_formula_units_Z   4
loop_
 _symmetry_equiv_pos_site_id
 _symmetry_equiv_pos_as_xyz
  1  'x, y, z'
loop_
 _atom_site_type_symbol
 _atom_site_label
 _atom_site_symmetry_multiplicity
 _atom_site_fract_x
 _atom_site_fract_y
 _atom_site_fract_z
 _atom_site_occupancy
 _atom_site_hle17_bader_spin_density
 _atom_site_hle17_ddec_charge
 _atom_site_hle17_ddec_spin_density
 _atom_site_hle17_ddec_sum_bond_order
 _atom_site_hle17_magmom
 _atom_site_hse06_10hf_bader_spin_density
 _atom_site_hse06_10hf_ddec_charge
 _atom_site_hse06_10hf_ddec_spin_density
 _atom_site_hse06_10hf_ddec_sum_bond_order
 _atom_site_hse06_10hf_magmom
 _atom_site_hse06_bader_spin_density
 _atom_site_hse06_ddec_charge
 _atom_site_hse06_ddec_spin_density
 _atom_site_hse06_ddec_sum_bond_order
 _atom_site_hse06_magmom
 _atom_site_pbe_bader_spin_density
 _atom_site_pbe_cm5_charge
 _atom_site_pbe_ddec_charge
 _atom_site_pbe_ddec_spin_density
 _atom_site_pbe_ddec_sum_bond_order
 _atom_site_pbe_magmom
Hg  Hg0  1  0.49272782  0.96801289  0.76269752  1  0  0.486677  0  2.194937  0  0  0.374376  0  2.675989  0  0  0.418111  0  2.651577  0  0  0.328767  0.344619  0  2.693277  0
Hg  Hg1  1  0.50726195  0.53197918  0.26269284  1  0  0.486692  0  2.194987  0  0  0.374378  0  2.676063  0  0  0.418125  0  2.651631  0  0  0.328783  0.344626  0  2.693352  0
Hg  Hg2  1  0.50729143  0.03197607  0.23730968  1  0  0.486686  0  2.194939  0  0  0.374389  0  2.675976  0  0  0.418134  0  2.65153  0  0  0.328769  0.344637  0  2.693266  0
Hg  Hg3  1  0.49272684  0.46801753  0.73730674  1  0  0.48672  0  2.194916  0  0  0.374412  0  2.675972  0  0  0.418159  0  2.651532  0  0  0.328782  0.344657  0  2.693262  0
H  H4  1  0.26783148  0.17949204  0.67639420  1  0  0.0887  0  0.953948  0  0  0.09215  0  1.028924  0  0  0.095657  0  1.024839  0  0  0.098425  0.089577  0  1.031879  0
H  H5  1  0.73215226  0.32050949  0.17639451  1  0  0.088609  0  0.954034  0  0  0.092064  0  1.029017  0  0  0.09557  0  1.024934  0  0  0.098372  0.089494  0  1.03197  0
H  H6  1  0.73215321  0.82050751  0.32361491  1  0  0.088794  0  0.954094  0  0  0.092238  0  1.029067  0  0  0.095742  0  1.024984  0  0  0.098436  0.089666  0  1.032023  0
H  H7  1  0.26784258  0.67949791  0.82360634  1  0  0.088811  0  0.954106  0  0  0.092235  0  1.029115  0  0  0.095742  0  1.025027  0  0  0.098471  0.089661  0  1.032075  0
H  H8  1  0.71643491  0.22455193  0.43374403  1  0  0.084908  0  0.963533  0  0  0.087046  0  1.040292  0  0  0.091191  0  1.034919  0  0  0.09223  0.083981  0  1.044252  0
H  H9  1  0.28357707  0.27544728  0.93374065  1  0  0.084929  0  0.963551  0  0  0.087076  0  1.040317  0  0  0.091222  0  1.034942  0  0  0.0922  0.08401  0  1.044278  0
H  H10  1  0.28355931  0.77543554  0.56625745  1  0  0.084967  0  0.963648  0  0  0.08711  0  1.040393  0  0  0.091256  0  1.035016  0  0  0.092268  0.084048  0  1.044353  0
H  H11  1  0.71642167  0.72455586  0.06626083  1  0  0.084826  0  0.9635  0  0  0.08697  0  1.040251  0  0  0.091117  0  1.034874  0  0  0.092195  0.083904  0  1.044214  0
H  H12  1  0.84924907  0.98372686  0.57862781  1  0  0.061311  0  0.980014  0  0  0.055952  0  1.069734  0  0  0.059263  0  1.065631  0  0  0.108145  0.053572  0  1.072573  0
H  H13  1  0.15072708  0.51627217  0.07861145  1  0  0.061385  0  0.97985  0  0  0.05609  0  1.069468  0  0  0.059404  0  1.065359  0  0  0.108176  0.053708  0  1.072322  0
H  H14  1  0.15072803  0.01626697  0.42138257  1  0  0.061367  0  0.979836  0  0  0.055984  0  1.069548  0  0  0.05929  0  1.065455  0  0  0.108174  0.053603  0  1.072396  0
H  H15  1  0.84925597  0.48373164  0.92138051  1  0  0.061325  0  0.979907  0  0  0.055957  0  1.069613  0  0  0.059267  0  1.065511  0  0  0.108166  0.053577  0  1.072464  0
C  C16  1  0.47393484  0.21594471  0.55395785  1  0  -0.009347  0  3.705029  0  0  0.01325  0  3.970154  0  0  0.008236  0  3.991656  0  0  -0.017761  0.01587  0  3.955925  0
C  C17  1  0.52608206  0.28406228  0.05395701  1  0  -0.009264  0  3.705099  0  0  0.013299  0  3.970333  0  0  0.008287  0  3.991834  0  0  -0.017749  0.01592  0  3.956086  0
C  C18  1  0.52607570  0.78404637  0.44604172  1  0  -0.009301  0  3.704421  0  0  0.013092  0  3.969859  0  0  0.008065  0  3.99137  0  0  -0.017819  0.015714  0  3.955624  0
C  C19  1  0.47393002  0.71595512  0.94604003  1  0  -0.009387  0  3.704766  0  0  0.013014  0  3.97017  0  0  0.008005  0  3.991651  0  0  -0.01781  0.015634  0  3.955935  0
C  C20  1  0.41869638  0.15919196  0.62542447  1  0  0.118744  0  3.693802  0  0  0.078625  0  3.945463  0  0  0.088781  0  3.961593  0  0  0.045674  0.072182  0  3.934497  0
C  C21  1  0.58130978  0.34081679  0.12542316  1  0  0.118978  0  3.693778  0  0  0.078843  0  3.945444  0  0  0.088999  0  3.961571  0  0  0.045872  0.072402  0  3.934485  0
C  C22  1  0.58131364  0.84081121  0.37457384  1  0  0.118593  0  3.693998  0  0  0.078519  0  3.9457  0  0  0.08868  0  3.961843  0  0  0.045684  0.072078  0  3.934724  0
C  C23  1  0.41868383  0.65919772  0.87457071  1  0  0.118717  0  3.693707  0  0  0.078638  0  3.945374  0  0  0.088797  0  3.961499  0  0  0.045605  0.072197  0  3.934414  0
C  C24  1  0.66754263  0.18375240  0.49155005  1  0  0.115475  0  3.716533  0  0  0.077285  0  3.979279  0  0  0.087449  0  3.9926  0  0  0.047551  0.070893  0  3.970117  0
C  C25  1  0.33248276  0.31625025  0.99154194  1  0  0.115306  0  3.716639  0  0  0.07709  0  3.979412  0  0  0.087255  0  3.99273  0  0  0.047505  0.070681  0  3.970318  0
C  C26  1  0.33243744  0.81624642  0.50846032  1  0  0.115415  0  3.716505  0  0  0.077273  0  3.97929  0  0  0.087449  0  3.99261  0  0  0.047569  0.070849  0  3.970185  0
C  C27  1  0.66753987  0.68374655  0.00845383  1  0  0.115668  0  3.716654  0  0  0.077545  0  3.979434  0  0  0.087718  0  3.992745  0  0  0.047733  0.07113  0  3.970343  0
C  C28  1  0.73840508  0.05084902  0.57127725  1  0  0.277124  0  3.693385  0  0  0.229988  0  3.96494  0  0  0.244084  0  3.978054  0  0  0.164388  0.220772  0  3.955858  0
C  C29  1  0.26160319  0.44915271  0.07126539  1  0  0.276649  0  3.693677  0  0  0.229472  0  3.965261  0  0  0.243562  0  3.978376  0  0  0.164152  0.220246  0  3.956211  0
C  C30  1  0.26158515  0.94914200  0.42873693  1  0  0.276902  0  3.6937  0  0  0.229833  0  3.96517  0  0  0.243922  0  3.978296  0  0  0.164292  0.220604  0  3.956118  0
C  C31  1  0.73840765  0.55085615  0.92873927  1  0  0.277134  0  3.693786  0  0  0.230008  0  3.965284  0  0  0.244087  0  3.978433  0  0  0.164392  0.220788  0  3.956218  0
I  I32  1  0.09194617  0.07177608  0.84735936  1  0  -0.270946  0  1.396349  0  0  -0.223235  0  1.788909  0  0  -0.242756  0  1.767155  0  0  -0.146518  -0.209825  0  1.805248  0
I  I33  1  0.90808748  0.42824154  0.34737120  1  0  -0.27096  0  1.396423  0  0  -0.223257  0  1.789028  0  0  -0.242784  0  1.767266  0  0  -0.146533  -0.209849  0  1.805371  0
I  I34  1  0.90808457  0.92822999  0.15263578  1  0  -0.270979  0  1.396353  0  0  -0.223273  0  1.788915  0  0  -0.242801  0  1.767158  0  0  -0.146521  -0.20986  0  1.805255  0
I  I35  1  0.09191495  0.57175592  0.65262520  1  0  -0.270968  0  1.396366  0  0  -0.223267  0  1.788947  0  0  -0.24279  0  1.767188  0  0  -0.146539  -0.209856  0  1.805289  0
I  I36  1  0.78316201  0.81477931  0.71337789  1  0  -0.300246  0  1.297418  0  0  -0.26025  0  1.674591  0  0  -0.280011  0  1.656077  0  0  -0.153735  -0.246831  0  1.688052  0
I  I37  1  0.21683419  0.68521778  0.21337302  1  0  -0.300268  0  1.297369  0  0  -0.260299  0  1.67457  0  0  -0.280057  0  1.656036  0  0  -0.153784  -0.246882  0  1.688036  0
I  I38  1  0.21683919  0.18520960  0.28662550  1  0  -0.300235  0  1.29731  0  0  -0.26027  0  1.674538  0  0  -0.280008  0  1.655953  0  0  -0.153756  -0.246853  0  1.688004  0
I  I39  1  0.78317316  0.31478254  0.78662783  1  0  -0.300259  0  1.29736  0  0  -0.260293  0  1.674568  0  0  -0.280043  0  1.656021  0  0  -0.153766  -0.246876  0  1.688034  0
Br  Br40  1  0.29526000  0.33417118  0.54302254  1  0  -0.026148  0  1.431334  0  0  -0.019899  0  1.725882  0  0  -0.025658  0  1.719423  0  0  0.051465  -0.015733  0  1.730672  0
Br  Br41  1  0.70478787  0.16583676  0.04302726  1  0  -0.02619  0  1.431216  0  0  -0.01992  0  1.725737  0  0  -0.02568  0  1.719278  0  0  0.051462  -0.015752  0  1.730538  0
Br  Br42  1  0.70475351  0.66582488  0.45697196  1  0  -0.026096  0  1.43144  0  0  -0.019761  0  1.72604  0  0  -0.025517  0  1.719585  0  0  0.051554  -0.015585  0  1.730833  0
Br  Br43  1  0.29526430  0.83417719  0.95695518  1  0  -0.02611  0  1.431489  0  0  -0.019801  0  1.726097  0  0  -0.025559  0  1.719635  0  0  0.051529  -0.015624  0  1.73089  0
N  N44  1  0.55207663  0.07631207  0.63328702  1  0  -0.309192  0  3.196  0  0  -0.234825  0  3.460002  0  0  -0.257322  0  3.479556  0  0  -0.310088  -0.219717  0  3.446351  0
N  N45  1  0.44789722  0.42368794  0.13327892  1  0  -0.309107  0  3.196591  0  0  -0.234691  0  3.460533  0  0  -0.257194  0  3.480112  0  0  -0.310077  -0.219587  0  3.446888  0
N  N46  1  0.44789821  0.92368176  0.36671828  1  0  -0.309071  0  3.196236  0  0  -0.23468  0  3.460162  0  0  -0.25717  0  3.479702  0  0  -0.310035  -0.219572  0  3.44651  0
N  N47  1  0.55209054  0.57631731  0.86671241  1  0  -0.309346  0  3.195763  0  0  -0.234892  0  3.45966  0  0  -0.257395  0  3.479225  0  0  -0.310088  -0.219785  0  3.446018  0
N  N48  1  0.80021830  0.10095957  0.50066214  1  0  -0.317075  0  3.046477  0  0  -0.27047  0  3.315252  0  0  -0.287042  0  3.330754  0  0  -0.308529  -0.259357  0  3.304578  0
N  N49  1  0.19977604  0.39904103  0.00065125  1  0  -0.316785  0  3.046197  0  0  -0.270155  0  3.314958  0  0  -0.286725  0  3.330457  0  0  -0.3084  -0.259032  0  3.304246  0
N  N50  1  0.19976259  0.89902929  0.49933998  1  0  -0.317005  0  3.047227  0  0  -0.270419  0  3.315973  0  0  -0.286989  0  3.331472  0  0  -0.308606  -0.259305  0  3.30529  0
N  N51  1  0.80020537  0.60096704  0.99933943  1  0  -0.317125  0  3.04764  0  0  -0.270547  0  3.316422  0  0  -0.287121  0  3.331919  0  0  -0.308671  -0.259418  0  3.305708  0
