# generated using pymatgen
data_HgH10C6(NF3)2
_symmetry_space_group_name_H-M   'P 1'
_cell_length_a   7.78515894
_cell_length_b   8.95487830
_cell_length_c   9.37222269
_cell_angle_alpha   61.46326199
_cell_angle_beta   83.91711968
_cell_angle_gamma   77.18818154
_symmetry_Int_Tables_number   1
_chemical_formula_structural   HgH10C6(NF3)2
_chemical_formula_sum   'Hg2 H20 C12 N4 F12'
_cell_volume   559.71602153
_cell_formula_units_Z   2
loop_
 _symmetry_equiv_pos_site_id
 _symmetry_equiv_pos_as_xyz
  1  'x, y, z'
loop_
 _atom_site_type_symbol
 _atom_site_label
 _atom_site_symmetry_multiplicity
 _atom_site_fract_x
 _atom_site_fract_y
 _atom_site_fract_z
 _atom_site_occupancy
 _atom_site_hle17_bader_spin_density
 _atom_site_hle17_ddec_charge
 _atom_site_hle17_ddec_spin_density
 _atom_site_hle17_ddec_sum_bond_order
 _atom_site_hle17_magmom
 _atom_site_hse06_10hf_bader_spin_density
 _atom_site_hse06_10hf_ddec_charge
 _atom_site_hse06_10hf_ddec_spin_density
 _atom_site_hse06_10hf_ddec_sum_bond_order
 _atom_site_hse06_10hf_magmom
 _atom_site_hse06_bader_spin_density
 _atom_site_hse06_ddec_charge
 _atom_site_hse06_ddec_spin_density
 _atom_site_hse06_ddec_sum_bond_order
 _atom_site_hse06_magmom
 _atom_site_pbe_bader_spin_density
 _atom_site_pbe_cm5_charge
 _atom_site_pbe_ddec_charge
 _atom_site_pbe_ddec_spin_density
 _atom_site_pbe_ddec_sum_bond_order
 _atom_site_pbe_magmom
Hg  Hg0  1  0.25002633  0.39722952  0.20551452  1  0  0.422311  0  1.923618  0  0  0.218932  0  2.352408  0  0  0.251016  0  2.31769  0  0  0.437051  0.197214  0  2.376011  0
Hg  Hg1  1  0.74997467  0.60277066  0.79448408  1  0  0.422325  0  1.923566  0  0  0.218899  0  2.352411  0  0  0.250988  0  2.31769  0  0  0.437042  0.197181  0  2.376015  0
H  H2  1  0.24911625  0.02327433  0.47837861  1  0  0.237412  0  0.934127  0  0  0.228404  0  0.995401  0  0  0.233248  0  0.992652  0  0  0.277536  0.224971  0  0.997385  0
H  H3  1  0.25088865  0.49834227  0.47837327  1  0  0.237496  0  0.933935  0  0  0.228587  0  0.995038  0  0  0.23341  0  0.992319  0  0  0.277477  0.224971  0  0.99728  0
H  H4  1  0.75088451  0.97672552  0.52162163  1  0  0.237392  0  0.934124  0  0  0.228384  0  0.995396  0  0  0.233227  0  0.992648  0  0  0.27752  0.224951  0  0.997378  0
H  H5  1  0.74911057  0.50165948  0.52162637  1  0  0.237492  0  0.933932  0  0  0.228586  0  0.995037  0  0  0.233407  0  0.99232  0  0  0.277488  0.224969  0  0.997278  0
H  H6  1  0.15029453  0.02130899  0.24926100  1  0  0.068068  0  0.919089  0  0  0.087502  0  0.975967  0  0  0.088116  0  0.975737  0  0  0.100572  0.087077  0  0.976047  0
H  H7  1  0.34971398  0.72942191  0.24927008  1  0  0.068119  0  0.919288  0  0  0.087433  0  0.976349  0  0  0.088099  0  0.976047  0  0  0.100609  0.08713  0  0.976029  0
H  H8  1  0.84970753  0.97869074  0.75073934  1  0  0.068079  0  0.919113  0  0  0.087517  0  0.975998  0  0  0.088128  0  0.975773  0  0  0.100581  0.087094  0  0.976076  0
H  H9  1  0.65028523  0.27057984  0.75072956  1  0  0.068133  0  0.919298  0  0  0.087458  0  0.976351  0  0  0.088126  0  0.976045  0  0  0.100613  0.087151  0  0.976043  0
H  H10  1  0.94372763  0.14450622  0.26331707  1  0  0.067606  0  0.935843  0  0  0.08201  0  1.004036  0  0  0.083149  0  1.00285  0  0  0.093219  0.081079  0  1.005002  0
H  H11  1  0.55628034  0.59218175  0.26331035  1  0  0.067694  0  0.935833  0  0  0.081809  0  1.004456  0  0  0.082978  0  1.003213  0  0  0.093197  0.081077  0  1.004933  0
H  H12  1  0.05627183  0.85549480  0.73668200  1  0  0.067653  0  0.935798  0  0  0.082044  0  1.00402  0  0  0.083181  0  1.002834  0  0  0.09322  0.081112  0  1.004987  0
H  H13  1  0.44371887  0.40782107  0.73668822  1  0  0.067701  0  0.93583  0  0  0.081821  0  1.00445  0  0  0.082988  0  1.003211  0  0  0.093208  0.081093  0  1.004923  0
H  H14  1  0.90425268  0.23107692  0.48991723  1  0  0.051584  0  0.934502  0  0  0.067152  0  1.005132  0  0  0.067725  0  1.004512  0  0  0.092162  0.066704  0  1.005631  0
H  H15  1  0.59575382  0.27900544  0.48990172  1  0  0.051733  0  0.934465  0  0  0.067457  0  1.004981  0  0  0.067998  0  1.004393  0  0  0.092197  0.066789  0  1.0056  0
H  H16  1  0.09574807  0.76892399  0.51008194  1  0  0.051581  0  0.93453  0  0  0.067149  0  1.005156  0  0  0.067723  0  1.004536  0  0  0.092156  0.0667  0  1.005656  0
H  H17  1  0.40424668  0.72099727  0.51009695  1  0  0.05173  0  0.934453  0  0  0.067469  0  1.004969  0  0  0.068013  0  1.004381  0  0  0.092205  0.0668  0  1.005589  0
H  H18  1  0.08520222  0.16115864  0.62204461  1  0  0.073014  0  0.928656  0  0  0.088282  0  0.990754  0  0  0.08955  0  0.989622  0  0  0.098747  0.087312  0  0.991678  0
H  H19  1  0.41479022  0.21680635  0.62203049  1  0  0.073106  0  0.928592  0  0  0.088468  0  0.990574  0  0  0.08976  0  0.98942  0  0  0.098753  0.087307  0  0.991716  0
H  H20  1  0.91479983  0.83884109  0.37795572  1  0  0.073034  0  0.928667  0  0  0.088305  0  0.990758  0  0  0.089573  0  0.989627  0  0  0.098757  0.087335  0  0.991679  0
H  H21  1  0.58521051  0.78319669  0.37796654  1  0  0.073095  0  0.928585  0  0  0.088516  0  0.990524  0  0  0.089808  0  0.989367  0  0  0.098741  0.08735  0  0.991671  0
C  C22  1  0.00818003  0.57648012  0.18446941  1  0  0.503459  0  3.549532  0  0  0.463802  0  3.954689  0  0  0.484669  0  3.931931  0  0  0.164589  0.448614  0  3.970661  0
C  C23  1  0.49187054  0.23903801  0.18446416  1  0  0.503327  0  3.549975  0  0  0.463853  0  3.954812  0  0  0.484728  0  3.932047  0  0  0.164544  0.448686  0  3.970562  0
C  C24  1  0.99182075  0.42351759  0.81553296  1  0  0.503521  0  3.549474  0  0  0.463862  0  3.954627  0  0  0.484728  0  3.931871  0  0  0.164602  0.448673  0  3.970602  0
C  C25  1  0.50813044  0.76096324  0.81553337  1  0  0.503297  0  3.550194  0  0  0.463818  0  3.955046  0  0  0.484693  0  3.932278  0  0  0.164563  0.44865  0  3.970797  0
C  C26  1  0.05345914  0.04201085  0.33566521  1  0  -0.00753  0  3.674344  0  0  -0.064644  0  3.942978  0  0  -0.061717  0  3.955958  0  0  -0.084302  -0.066516  0  3.93392  0
C  C27  1  0.44655471  0.62232486  0.33566883  1  0  -0.00765  0  3.674546  0  0  -0.064504  0  3.942955  0  0  -0.061602  0  3.95595  0  0  -0.084288  -0.06647  0  3.933898  0
C  C28  1  0.94654291  0.95798995  0.66433406  1  0  -0.007613  0  3.674309  0  0  -0.064763  0  3.943013  0  0  -0.061836  0  3.955993  0  0  -0.084332  -0.066634  0  3.933958  0
C  C29  1  0.55344580  0.37767677  0.66433091  1  0  -0.007737  0  3.67466  0  0  -0.064616  0  3.943092  0  0  -0.061713  0  3.956087  0  0  -0.084349  -0.066585  0  3.934039  0
C  C30  1  0.01560430  0.12365114  0.55190494  1  0  0.005586  0  3.670345  0  0  -0.053447  0  3.944835  0  0  -0.049943  0  3.957242  0  0  -0.081284  -0.055753  0  3.936212  0
C  C31  1  0.48440114  0.32444860  0.55189245  1  0  0.005553  0  3.67032  0  0  -0.053565  0  3.944573  0  0  -0.050073  0  3.957019  0  0  -0.081352  -0.055913  0  3.936477  0
C  C32  1  0.98439774  0.87634966  0.44809433  1  0  0.00552  0  3.670472  0  0  -0.053528  0  3.944941  0  0  -0.050025  0  3.95735  0  0  -0.081306  -0.055832  0  3.936313  0
C  C33  1  0.51559936  0.67555411  0.44810622  1  0  0.005534  0  3.670301  0  0  -0.053651  0  3.94456  0  0  -0.050163  0  3.957015  0  0  -0.081381  -0.055999  0  3.93646  0
N  N34  1  0.13432460  0.10656853  0.42525627  1  0  -0.399921  0  3.165721  0  0  -0.335791  0  3.425053  0  0  -0.352898  0  3.43645  0  0  -0.486039  -0.323754  0  3.416778  0
N  N35  1  0.36568682  0.46817690  0.42525166  1  0  -0.399648  0  3.165786  0  0  -0.335136  0  3.424725  0  0  -0.352285  0  3.436307  0  0  -0.485982  -0.323769  0  3.416955  0
N  N36  1  0.86567744  0.89343226  0.57474300  1  0  -0.399865  0  3.165708  0  0  -0.335694  0  3.425014  0  0  -0.352802  0  3.436412  0  0  -0.485996  -0.323658  0  3.416737  0
N  N37  1  0.63431263  0.53182413  0.57474741  1  0  -0.399593  0  3.165794  0  0  -0.33508  0  3.424764  0  0  -0.35223  0  3.43635  0  0  -0.485961  -0.323711  0  3.416992  0
F  F38  1  0.00863712  0.74493758  0.06898858  1  0  -0.259755  0  1.17835  0  0  -0.21778  0  1.343272  0  0  -0.228997  0  1.329258  0  0  -0.133277  -0.210029  0  1.353234  0
F  F39  1  0.49143889  0.18609772  0.06894928  1  0  -0.260021  0  1.178731  0  0  -0.21819  0  1.343955  0  0  -0.229362  0  1.329868  0  0  -0.133386  -0.210107  0  1.353108  0
F  F40  1  0.99136269  0.25506198  0.93101714  1  0  -0.259745  0  1.178325  0  0  -0.21779  0  1.343265  0  0  -0.229012  0  1.329258  0  0  -0.133291  -0.210037  0  1.353228  0
F  F41  1  0.50855640  0.81389446  0.93105353  1  0  -0.260029  0  1.178883  0  0  -0.218187  0  1.344106  0  0  -0.229373  0  1.330038  0  0  -0.133415  -0.210106  0  1.353258  0
F  F42  1  0.96304533  0.58539727  0.32877967  1  0  -0.27764  0  1.208057  0  0  -0.227032  0  1.38253  0  0  -0.238737  0  1.368436  0  0  -0.126622  -0.218446  0  1.392037  0
F  F43  1  0.53697798  0.08579776  0.32875887  1  0  -0.277599  0  1.208195  0  0  -0.226817  0  1.382477  0  0  -0.238572  0  1.368392  0  0  -0.126531  -0.21841  0  1.392002  0
F  F44  1  0.03695079  0.41459518  0.67122545  1  0  -0.277685  0  1.208199  0  0  -0.227032  0  1.382635  0  0  -0.238737  0  1.368542  0  0  -0.126592  -0.218445  0  1.392143  0
F  F45  1  0.46301662  0.91420652  0.67124218  1  0  -0.277582  0  1.208246  0  0  -0.226784  0  1.382514  0  0  -0.238538  0  1.368428  0  0  -0.126515  -0.218379  0  1.392037  0
F  F46  1  0.86411290  0.53322748  0.14951322  1  0  -0.273247  0  1.219937  0  0  -0.228425  0  1.406072  0  0  -0.24016  0  1.39032  0  0  -0.133809  -0.219849  0  1.416474  0
F  F47  1  0.63592240  0.31726338  0.14953216  1  0  -0.273007  0  1.219865  0  0  -0.228305  0  1.405882  0  0  -0.240036  0  1.390115  0  0  -0.133751  -0.219856  0  1.416401  0
F  F48  1  0.13589092  0.46677281  0.85048394  1  0  -0.273279  0  1.219798  0  0  -0.228459  0  1.40593  0  0  -0.240191  0  1.390177  0  0  -0.133829  -0.219883  0  1.416333  0
F  F49  1  0.36408241  0.68273080  0.85046593  1  0  -0.273008  0  1.21992  0  0  -0.228301  0  1.405936  0  0  -0.240029  0  1.39017  0  0  -0.133753  -0.219851  0  1.416457  0
