# generated using pymatgen
data_CuH6C12N5O4
_symmetry_space_group_name_H-M   'P 1'
_cell_length_a   4.77727532
_cell_length_b   10.78950199
_cell_length_c   34.00506164
_cell_angle_alpha   89.99993519
_cell_angle_beta   89.99588989
_cell_angle_gamma   96.01991823
_symmetry_Int_Tables_number   1
_chemical_formula_structural   CuH6C12N5O4
_chemical_formula_sum   'Cu4 H24 C48 N20 O16'
_cell_volume   1743.10556440
_cell_formula_units_Z   4
loop_
 _symmetry_equiv_pos_site_id
 _symmetry_equiv_pos_as_xyz
  1  'x, y, z'
loop_
 _atom_site_type_symbol
 _atom_site_label
 _atom_site_symmetry_multiplicity
 _atom_site_fract_x
 _atom_site_fract_y
 _atom_site_fract_z
 _atom_site_occupancy
 _atom_site_pbe_bader_charge
 _atom_site_pbe_bader_spin_density
 _atom_site_pbe_cm5_charge
 _atom_site_pbe_ddec_charge
 _atom_site_pbe_ddec_spin_density
 _atom_site_pbe_ddec_sum_bond_order
 _atom_site_pbe_magmom
Cu  Cu0  1  0.17131351  0.13096415  0.80329271  1  1.078355  0.557647  0.752285  0.774698  0.719728  2.299488  0.557
Cu  Cu1  1  0.82867011  0.36905675  0.30328807  1  1.078674  0.557726  0.752237  0.775052  0.71984  2.299068  0.557
Cu  Cu2  1  0.82875543  0.86906471  0.19671171  1  1.078687  0.55766  0.75227  0.774525  0.719789  2.299852  0.557
Cu  Cu3  1  0.17129486  0.63092177  0.69670988  1  1.078966  0.557721  0.752192  0.774743  0.719843  2.299434  0.557
H  H4  1  0.01420116  0.05179151  0.71684613  1  0.199898  0.002265  0.126982  0.12346  0.001127  1.030533  0.002
H  H5  1  0.98590415  0.44812893  0.21683745  1  0.199686  0.002262  0.127091  0.123746  0.001125  1.030166  0.002
H  H6  1  0.98589634  0.94820753  0.28316093  1  0.200999  0.002263  0.127007  0.123498  0.001127  1.030373  0.002
H  H7  1  0.01413385  0.55186638  0.78317021  1  0.200017  0.002262  0.127092  0.123765  0.001125  1.030011  0.002
H  H8  1  0.22153299  0.13620075  0.65254960  1  0.089074  0.00142  0.125964  0.096221  0.00075  0.95506  0.001
H  H9  1  0.77884484  0.36368397  0.15253842  1  0.086656  0.001421  0.125806  0.096059  0.000751  0.955658  0.001
H  H10  1  0.77856253  0.86377219  0.34745364  1  0.089191  0.001418  0.125885  0.096184  0.00075  0.955238  0.001
H  H11  1  0.22137441  0.63630764  0.84745894  1  0.089441  0.00142  0.125844  0.096204  0.000751  0.955295  0.001
H  H12  1  0.76358286  0.24900864  0.93242743  1  0.120167  0.000924  0.117473  0.124262  0.000494  0.996855  0.0
H  H13  1  0.23588391  0.25100914  0.43245696  1  0.1203  0.000924  0.117581  0.12453  0.000494  0.996783  0.0
H  H14  1  0.23619964  0.75101272  0.06755464  1  0.12017  0.000925  0.1175  0.124375  0.000494  0.997059  0.0
H  H15  1  0.76403491  0.74894234  0.56753805  1  0.120797  0.000924  0.117656  0.124672  0.000493  0.996804  0.0
H  H16  1  0.00790123  0.28461518  0.86703549  1  0.148831  0.001478  0.130977  0.113796  0.000553  0.977885  0.001
H  H17  1  0.99161404  0.21542651  0.36706572  1  0.149268  0.001476  0.130948  0.11358  0.000552  0.978091  0.001
H  H18  1  0.99182784  0.71540151  0.13294599  1  0.149203  0.001477  0.130863  0.11355  0.000553  0.978273  0.001
H  H19  1  0.00845571  0.78454364  0.63291694  1  0.149353  0.001476  0.130847  0.113634  0.000553  0.977766  0.001
H  H20  1  0.11393446  0.91069369  0.85579787  1  0.146956  0.001739  0.12068  0.094531  0.000779  1.029141  0.001
H  H21  1  0.88644713  0.58944287  0.35579399  1  0.146557  0.001739  0.120856  0.09485  0.000778  1.028839  0.001
H  H22  1  0.88623826  0.08934917  0.14421919  1  0.146941  0.001742  0.12075  0.094678  0.000779  1.028995  0.001
H  H23  1  0.11337538  0.41052631  0.64421013  1  0.146006  0.001742  0.120836  0.094652  0.000779  1.02896  0.001
H  H24  1  0.86660160  0.85779751  0.91972917  1  0.121465  0.00093  0.116877  0.124912  0.000503  0.994723  0.0
H  H25  1  0.13368497  0.64228347  0.41972278  1  0.121343  0.000931  0.116953  0.124845  0.000504  0.994966  0.0
H  H26  1  0.13354016  0.14224720  0.08028525  1  0.12147  0.00093  0.116905  0.124953  0.000503  0.994753  0.0
H  H27  1  0.86612730  0.35768663  0.58028752  1  0.121367  0.00093  0.117063  0.124937  0.000503  0.995442  0.0
C  C28  1  0.46766013  0.36076327  0.78809748  1  1.627083  -0.00119  0.204652  0.546019  -0.001068  4.241308  -0.002
C  C29  1  0.53215140  0.13926821  0.28810283  1  1.626938  -0.001192  0.204501  0.545509  -0.001065  4.241752  -0.002
C  C30  1  0.53237377  0.63929447  0.21189694  1  1.626062  -0.001195  0.204537  0.545833  -0.001066  4.241596  -0.002
C  C31  1  0.46785875  0.86068888  0.71188689  1  1.625696  -0.001199  0.204584  0.545528  -0.001069  4.241927  -0.002
C  C32  1  0.41413591  0.29950266  0.74853278  1  0.551152  0.001411  0.121041  0.051318  0.000444  3.89369  0.001
C  C33  1  0.58573943  0.20047664  0.24852754  1  0.550599  0.00141  0.121171  0.0513  0.000441  3.893791  0.001
C  C34  1  0.58589492  0.70052432  0.25146899  1  0.55195  0.001406  0.121188  0.05141  0.00044  3.893787  0.001
C  C35  1  0.41426608  0.79951400  0.75146335  1  0.550585  0.001406  0.121149  0.051133  0.000437  3.89382  0.001
C  C36  1  0.16400558  0.13518091  0.71549464  1  0.537801  0.001929  0.066893  0.075411  0.00139  3.850273  0.002
C  C37  1  0.83611716  0.36473956  0.21548816  1  0.516332  0.001988  0.066751  0.075251  0.001389  3.850262  0.002
C  C38  1  0.83606989  0.86481347  0.28450860  1  0.535557  0.001932  0.066945  0.075573  0.001386  3.850732  0.002
C  C39  1  0.16392536  0.63526599  0.78451214  1  0.516141  0.001984  0.066679  0.074903  0.001387  3.850663  0.002
C  C40  1  0.27740612  0.18399461  0.68017018  1  0.536338  0.005942  0.066785  0.08122  0.00411  3.936184  0.005
C  C41  1  0.72275292  0.31594348  0.18016550  1  0.538241  0.005938  0.066952  0.08106  0.004107  3.937835  0.005
C  C42  1  0.72267209  0.81602028  0.31982689  1  0.537287  0.005934  0.066749  0.080951  0.004107  3.937469  0.005
C  C43  1  0.27738502  0.68404065  0.81982863  1  0.535829  0.005941  0.066946  0.081049  0.004107  3.937103  0.005
C  C44  1  0.52257115  0.34643488  0.71269489  1  0.525823  0.010308  0.135818  0.097617  0.007409  3.905503  0.008
C  C45  1  0.47744962  0.15352665  0.21268698  1  0.526796  0.010303  0.135797  0.097321  0.007408  3.905541  0.008
C  C46  1  0.47747742  0.65358745  0.28730717  1  0.525225  0.010313  0.135945  0.097942  0.007411  3.904824  0.008
C  C47  1  0.52255598  0.84649102  0.78729979  1  0.526491  0.010307  0.135622  0.097396  0.007411  3.905909  0.008
C  C48  1  0.70876174  0.46809178  0.70878653  1  1.625024  -0.000182  0.210136  0.564343  -0.000924  4.223216  -0.002
C  C49  1  0.29120159  0.03189313  0.20877269  1  1.624491  -0.000183  0.209987  0.564332  -0.000927  4.223411  -0.002
C  C50  1  0.29127350  0.53191843  0.29120937  1  1.625233  -0.000184  0.210246  0.564526  -0.000924  4.222746  -0.002
C  C51  1  0.70884456  0.96811895  0.79121350  1  1.62471  -0.000184  0.209883  0.563964  -0.000928  4.223259  -0.002
C  C52  1  0.83820005  0.17190168  0.91626448  1  -0.025651  0.004907  -0.070395  -0.143506  0.003274  3.91602  0.004
C  C53  1  0.16152492  0.32812956  0.41627149  1  -0.024111  0.004897  -0.070432  -0.144178  0.003268  3.916414  0.004
C  C54  1  0.16172546  0.82812249  0.08372847  1  -0.025873  0.004909  -0.070358  -0.143628  0.003274  3.91634  0.004
C  C55  1  0.83834862  0.67181632  0.58372528  1  -0.024568  0.004897  -0.07037  -0.144108  0.003267  3.916877  0.004
C  C56  1  0.97249192  0.19237900  0.88028619  1  0.539426  -0.000707  0.061267  0.1135  -0.001216  3.888047  0.0
C  C57  1  0.02723849  0.30768850  0.38029902  1  0.53923  -0.00072  0.061385  0.11431  -0.001227  3.888799  0.0
C  C58  1  0.02739436  0.80763864  0.11970647  1  0.539721  -0.000705  0.061532  0.114065  -0.001214  3.887691  0.0
C  C59  1  0.97273663  0.69226206  0.61968776  1  0.540329  -0.00072  0.061602  0.114299  -0.001226  3.888534  0.0
C  C60  1  0.03222711  0.98211558  0.87382823  1  0.485708  -0.001252  0.055114  0.104743  -0.00176  3.910988  -0.001
C  C61  1  0.96801005  0.51800562  0.37382738  1  0.487905  -0.001257  0.054887  0.104456  -0.001764  3.910115  -0.001
C  C62  1  0.96789681  0.01792447  0.12618442  1  0.485796  -0.001253  0.054907  0.104553  -0.001761  3.910426  -0.001
C  C63  1  0.03190005  0.48197102  0.62617410  1  0.488775  -0.001259  0.054871  0.104729  -0.001767  3.909659  -0.001
C  C64  1  0.89652842  0.95361432  0.90930318  1  0.029341  0.004842  -0.071331  -0.144568  0.003228  3.922484  0.004
C  C65  1  0.10368637  0.54645106  0.40930187  1  0.028056  0.004842  -0.071425  -0.14426  0.003227  3.921768  0.004
C  C66  1  0.10357666  0.04642573  0.09070094  1  0.028838  0.004847  -0.071271  -0.144488  0.003232  3.9214  0.004
C  C67  1  0.89613604  0.45349109  0.59070226  1  0.026912  0.004846  -0.071395  -0.144209  0.00323  3.921469  0.004
C  C68  1  0.79412318  0.04986260  0.93095639  1  -0.114573  -0.002594  0.007166  0.045882  -0.002989  3.99707  -0.002
C  C69  1  0.20597804  0.45019725  0.43094639  1  -0.11504  -0.002609  0.006981  0.045812  -0.003006  3.996985  -0.002
C  C70  1  0.20593673  0.95016346  0.06904921  1  -0.113924  -0.002591  0.00691  0.045601  -0.002986  3.996747  -0.002
C  C71  1  0.79377386  0.54974768  0.56906245  1  -0.112896  -0.002609  0.006899  0.045764  -0.003006  3.997376  -0.002
C  C72  1  0.63879258  0.02333905  0.96785524  1  0.99275  0.00038  0.244427  0.239565  0.00018  3.986505  0.0
C  C73  1  0.36124720  0.47669756  0.46784861  1  0.974324  0.000364  0.244758  0.239504  0.000164  3.98667  0.0
C  C74  1  0.36136625  0.97671591  0.03216036  1  0.992864  0.000381  0.244839  0.240017  0.00018  3.985647  0.0
C  C75  1  0.63850096  0.52323153  0.53216434  1  0.992707  0.000361  0.244684  0.239279  0.000165  3.987453  0.0
N  N76  1  0.23797896  0.19358034  0.74909806  1  -1.216504  0.084073  -0.330329  -0.199868  0.056269  3.628512  0.072
N  N77  1  0.76194370  0.30637007  0.24909503  1  -1.19344  0.084046  -0.330308  -0.199735  0.05629  3.628278  0.073
N  N78  1  0.76206641  0.80643734  0.25090312  1  -1.217148  0.084046  -0.330486  -0.199943  0.056252  3.628926  0.072
N  N79  1  0.23804848  0.69360845  0.75090115  1  -1.193488  0.084037  -0.330102  -0.199081  0.056284  3.627814  0.073
N  N80  1  0.45590207  0.28782610  0.67847124  1  -1.169111  0.000947  -0.300634  -0.258696  -0.000589  3.285051  0.0
N  N81  1  0.54428227  0.21212694  0.17845818  1  -1.169725  0.000935  -0.30076  -0.258423  -0.000596  3.285377  0.0
N  N82  1  0.54418748  0.71219251  0.32153495  1  -1.169131  0.00094  -0.300719  -0.258827  -0.000593  3.285047  0.0
N  N83  1  0.45584607  0.78787863  0.82152918  1  -1.169561  0.00093  -0.300662  -0.258439  -0.000601  3.284998  0.0
N  N84  1  0.06473056  0.09882917  0.85931582  1  -1.20232  0.074105  -0.33713  -0.202427  0.049909  3.580541  0.064
N  N85  1  0.93536421  0.40130133  0.35931034  1  -1.203901  0.074063  -0.3371  -0.202962  0.049882  3.581118  0.064
N  N86  1  0.93530181  0.90120434  0.14068566  1  -1.202766  0.074145  -0.3373  -0.202716  0.049936  3.58081  0.064
N  N87  1  0.06455019  0.59866693  0.64068643  1  -1.205295  0.074059  -0.337404  -0.203289  0.04988  3.581429  0.064
N  N88  1  0.58558036  0.12128564  0.99056710  1  -0.567512  -0.000522  -0.148442  -0.140588  -0.000718  3.204969  -0.001
N  N89  1  0.41393749  0.37875128  0.49059175  1  -0.546984  -0.000522  -0.148858  -0.140757  -0.000714  3.204146  -0.001
N  N90  1  0.41465659  0.87877214  0.00945673  1  -0.568501  -0.000521  -0.148987  -0.141118  -0.000717  3.204309  -0.001
N  N91  1  0.58573310  0.62118619  0.50943091  1  -0.565984  -0.000519  -0.148789  -0.141006  -0.000714  3.204678  -0.001
N  N92  1  0.55625047  0.90254073  0.97663494  1  -0.530279  0.00157  -0.149193  -0.139811  0.000992  3.202875  0.001
N  N93  1  0.44421123  0.59747931  0.47660448  1  -0.5339  0.001571  -0.149335  -0.139586  0.000992  3.202958  0.001
N  N94  1  0.44399926  0.09751798  0.02338947  1  -0.532697  0.00157  -0.149596  -0.140393  0.000992  3.203735  0.001
N  N95  1  0.55544680  0.40245815  0.52341818  1  -0.535327  0.001569  -0.149334  -0.139934  0.000991  3.203187  0.001
O  O96  1  0.34343372  0.30072459  0.81734497  1  -1.103993  0.121699  -0.332617  -0.544908  0.077399  2.297965  0.11
O  O97  1  0.65630475  0.19936024  0.31734752  1  -1.103657  0.121679  -0.332452  -0.544535  0.077369  2.297953  0.11
O  O98  1  0.65666652  0.69931266  0.18265093  1  -1.10429  0.121709  -0.332603  -0.544869  0.077406  2.297869  0.11
O  O99  1  0.34360381  0.80062758  0.68264279  1  -1.103646  0.121718  -0.332576  -0.544708  0.077397  2.297857  0.11
O  O100  1  0.61399021  0.46271419  0.79063748  1  -1.151023  0.029364  -0.300448  -0.502053  0.018344  2.150699  0.025
O  O101  1  0.38585806  0.03730978  0.29065560  1  -1.151406  0.029363  -0.30047  -0.501969  0.018343  2.151449  0.025
O  O102  1  0.38604138  0.53734262  0.20935576  1  -1.149834  0.029369  -0.300321  -0.501867  0.018344  2.151195  0.025
O  O103  1  0.61414834  0.96264917  0.70932647  1  -1.150755  0.029368  -0.300456  -0.501849  0.018344  2.151474  0.025
O  O104  1  0.59978035  0.56363139  0.69848947  1  -1.164585  0.002972  -0.313757  -0.570593  0.000791  2.341982  0.005
O  O105  1  0.40013244  0.93634384  0.19847629  1  -1.164874  0.002969  -0.313767  -0.570591  0.00079  2.342065  0.005
O  O106  1  0.40025787  0.43638256  0.30150112  1  -1.164652  0.00297  -0.313733  -0.570658  0.000791  2.342188  0.005
O  O107  1  0.59987660  0.06364400  0.80151490  1  -1.164774  0.00297  -0.313727  -0.570446  0.00079  2.342333  0.005
O  O108  1  0.97415583  0.46327145  0.71292542  1  -1.108056  0.095608  -0.309909  -0.524128  0.061569  2.324517  0.086
O  O109  1  0.02578801  0.03674598  0.21289316  1  -1.108014  0.095569  -0.309647  -0.523855  0.061544  2.323962  0.086
O  O110  1  0.02585430  0.53672105  0.28707283  1  -1.107928  0.09563  -0.310058  -0.524477  0.061583  2.323934  0.086
O  O111  1  0.97428964  0.96327543  0.78709744  1  -1.1082  0.095609  -0.309616  -0.523853  0.061568  2.32336  0.086
