# generated using pymatgen
data_CuH8(C3O4)2
_symmetry_space_group_name_H-M   'P 1'
_cell_length_a   6.90238547
_cell_length_b   8.11013609
_cell_length_c   15.12291624
_cell_angle_alpha   89.99986117
_cell_angle_beta   90.00006213
_cell_angle_gamma   95.40745655
_symmetry_Int_Tables_number   1
_chemical_formula_structural   CuH8(C3O4)2
_chemical_formula_sum   'Cu4 H32 C24 O32'
_cell_volume   842.80256198
_cell_formula_units_Z   4
loop_
 _symmetry_equiv_pos_site_id
 _symmetry_equiv_pos_as_xyz
  1  'x, y, z'
loop_
 _atom_site_type_symbol
 _atom_site_label
 _atom_site_symmetry_multiplicity
 _atom_site_fract_x
 _atom_site_fract_y
 _atom_site_fract_z
 _atom_site_occupancy
 _atom_site_hle17_ddec_charge
 _atom_site_hle17_ddec_spin_density
 _atom_site_hle17_ddec_sum_bond_order
 _atom_site_hle17_magmom
 _atom_site_hse06_10hf_bader_charge
 _atom_site_hse06_10hf_bader_spin_density
 _atom_site_hse06_10hf_ddec_charge
 _atom_site_hse06_10hf_ddec_spin_density
 _atom_site_hse06_10hf_ddec_sum_bond_order
 _atom_site_hse06_10hf_magmom
 _atom_site_hse06_ddec_charge
 _atom_site_hse06_ddec_spin_density
 _atom_site_hse06_ddec_sum_bond_order
 _atom_site_hse06_magmom
 _atom_site_pbe_cm5_charge
 _atom_site_pbe_ddec_charge
 _atom_site_pbe_ddec_spin_density
 _atom_site_pbe_ddec_sum_bond_order
 _atom_site_pbe_magmom
Cu  Cu0  1  0.74777818  0.33273443  0.31849217  1  1.093729  0.73896  1.617789  0.582  1.249261  0.716547  1.101676  0.834441  1.995515  0.714  1.183226  0.886358  1.936918  0.792  0.721183  1.04357  0.791828  2.038042  0.654
Cu  Cu1  1  0.25222419  0.16726330  0.81849488  1  1.093744  0.738971  1.617765  0.582  1.249308  0.71655  1.101638  0.834445  1.995561  0.714  1.183201  0.886352  1.936929  0.792  0.721163  1.043527  0.791831  2.038091  0.654
Cu  Cu2  1  0.25222328  0.66726852  0.68150842  1  1.093685  0.738965  1.617843  0.582  1.249346  0.716551  1.101693  0.834445  1.995477  0.714  1.183212  0.886354  1.936906  0.792  0.721212  1.043589  0.791831  2.038013  0.655
Cu  Cu3  1  0.74777814  0.83273347  0.18150768  1  1.093735  0.738967  1.617773  0.582  1.249231  0.716544  1.10168  0.834439  1.995474  0.714  1.183222  0.886352  1.936899  0.792  0.721203  1.043582  0.791827  2.038  0.654
H  H4  1  0.76951006  0.77905099  0.52693978  1  0.143683  0.00025  0.934967  0.0  0.165123  0.000317  0.155305  0.000288  0.988778  0.0  0.159185  0.00021  0.985925  0.0  0.119759  0.152608  0.000362  0.990779  0.0
H  H5  1  0.23048311  0.72094293  0.02694414  1  0.143731  0.000254  0.934955  0.0  0.165154  0.000317  0.155344  0.000288  0.98879  0.0  0.159221  0.00021  0.985935  0.0  0.119783  0.152643  0.000362  0.990782  0.0
H  H6  1  0.23048804  0.22094697  0.47305816  1  0.143706  0.00025  0.934999  0.0  0.165105  0.000317  0.155318  0.000288  0.988831  0.0  0.159195  0.00021  0.985975  0.0  0.119779  0.152614  0.000362  0.990829  0.0
H  H7  1  0.76951098  0.27905870  0.97305511  1  0.143736  0.000249  0.934969  0.0  0.165196  0.000316  0.155341  0.000288  0.988797  0.0  0.159226  0.00021  0.985949  0.0  0.119796  0.152649  0.000362  0.990793  0.0
H  H8  1  0.78070889  0.98278992  0.66916883  1  0.133366  -1e-06  0.969372  0.0  0.131407  5.1e-05  0.141944  3.7e-05  1.028514  0.0  0.146341  1.9e-05  1.025263  0.0  0.113516  0.138886  6e-05  1.030885  0.0
H  H9  1  0.21929001  0.51720097  0.16916949  1  0.133333  -4e-06  0.969468  0.0  0.131472  5.1e-05  0.14191  3.7e-05  1.028616  0.0  0.146306  1.9e-05  1.025368  0.0  0.113492  0.138852  6e-05  1.030987  0.0
H  H10  1  0.21929622  0.01720565  0.33083043  1  0.133335  -3e-06  0.969433  0.0  0.131479  5.1e-05  0.141914  3.7e-05  1.028576  0.0  0.14631  1.9e-05  1.025326  0.0  0.113505  0.138855  6e-05  1.030945  0.0
H  H11  1  0.78070565  0.48280192  0.83082845  1  0.133337  1e-06  0.96943  0.0  0.131472  5.1e-05  0.141935  3.7e-05  1.028539  0.0  0.146334  1.9e-05  1.025284  0.0  0.113505  0.138879  6e-05  1.03091  0.0
H  H12  1  0.39455674  0.27256365  0.28056224  1  0.432336  1.2e-05  0.847138  0.0  0.677715  0.000496  0.405712  0.00063  0.914942  0.001  0.416556  0.000409  0.899481  0.001  0.30628  0.397657  0.000798  0.926485  0.001
H  H13  1  0.60544146  0.22743668  0.78056114  1  0.43232  1.1e-05  0.847155  0.0  0.677896  0.000497  0.40569  0.00063  0.914976  0.001  0.416536  0.000408  0.899512  0.001  0.30627  0.397638  0.000798  0.926516  0.001
H  H14  1  0.60544350  0.72744176  0.71943834  1  0.432283  1.2e-05  0.847199  0.0  0.677907  0.000497  0.405656  0.00063  0.915022  0.001  0.4165  0.000409  0.899563  0.001  0.306258  0.397603  0.000798  0.926565  0.001
H  H15  1  0.39455953  0.77256132  0.21943944  1  0.432314  1.1e-05  0.847157  0.0  0.677897  0.000497  0.405687  0.00063  0.91498  0.001  0.416532  0.000409  0.89952  0.001  0.306277  0.397632  0.000798  0.926525  0.001
H  H16  1  0.40480446  0.40513748  0.36340134  1  0.430517  9e-06  0.87364  0.0  0.702997  0.000391  0.398032  0.000564  0.940204  0.001  0.41131  0.000371  0.921129  0.001  0.295625  0.388517  0.000724  0.953897  0.001
H  H17  1  0.59519855  0.09486625  0.86340172  1  0.430558  9e-06  0.873587  0.0  0.702989  0.000391  0.398078  0.000564  0.940143  0.001  0.411354  0.000372  0.921069  0.001  0.295634  0.388559  0.000723  0.953838  0.001
H  H18  1  0.59519567  0.59486669  0.63659991  1  0.430497  9e-06  0.87365  0.0  0.703011  0.000391  0.398001  0.000564  0.940236  0.001  0.411278  0.000371  0.921161  0.001  0.295624  0.388486  0.000724  0.953929  0.001
H  H19  1  0.40480558  0.90513426  0.13659886  1  0.430471  9e-06  0.87369  0.0  0.703003  0.000391  0.397964  0.000564  0.940295  0.001  0.411242  0.000372  0.921219  0.001  0.2956  0.388447  0.000724  0.95399  0.001
H  H20  1  0.08050116  0.28102386  0.25446069  1  0.425415  -0.000323  0.875059  0.0  0.665364  0.000258  0.396902  0.000422  0.938232  0.001  0.408993  0.00029  0.921124  0.001  0.296683  0.388069  0.000521  0.95075  0.001
H  H21  1  0.91950136  0.21897664  0.75446178  1  0.425414  -0.000324  0.874938  0.0  0.665502  0.000257  0.396896  0.000423  0.938212  0.001  0.408988  0.000291  0.921103  0.001  0.296672  0.38807  0.000521  0.950721  0.001
H  H22  1  0.91949716  0.71897658  0.74553990  1  0.425391  -0.000324  0.875088  0.0  0.665356  0.000258  0.396873  0.000423  0.938278  0.001  0.408964  0.000291  0.92117  0.001  0.296669  0.388042  0.000521  0.950794  0.001
H  H23  1  0.08050277  0.78102387  0.24554079  1  0.42536  -0.000324  0.875108  0.0  0.665517  0.000256  0.396844  0.000422  0.93831  0.001  0.408935  0.00029  0.921201  0.001  0.296653  0.388015  0.000521  0.950822  0.001
H  H24  1  0.09077039  0.46279346  0.29970317  1  0.420124  -0.000323  0.876945  0.0  0.647832  0.00022  0.38977  0.000325  0.949407  0.001  0.40135  0.00014  0.932834  0.0  0.297101  0.38139  0.000482  0.961435  0.001
H  H25  1  0.90923195  0.03720436  0.79970251  1  0.420088  -0.000325  0.876983  0.0  0.647829  0.00022  0.389726  0.000325  0.94947  0.001  0.401306  0.00014  0.932896  0.0  0.297079  0.381336  0.000482  0.961512  0.001
H  H26  1  0.90923350  0.53720457  0.70029741  1  0.420107  -0.000325  0.87695  0.0  0.64785  0.00022  0.389742  0.000325  0.949447  0.001  0.401321  0.00014  0.932874  0.0  0.297084  0.381357  0.000482  0.96148  0.001
H  H27  1  0.09076904  0.96279364  0.20029874  1  0.420112  -0.000326  0.876906  0.0  0.648135  0.000219  0.389764  0.000325  0.949399  0.001  0.401343  0.00014  0.932827  0.0  0.297106  0.381378  0.000482  0.961434  0.001
H  H28  1  0.73460835  0.49955095  0.46225467  1  0.430055  -0.000195  0.867569  0.0  0.675774  0.000144  0.398449  0.00036  0.933349  0.001  0.410372  0.000195  0.916171  0.0  0.293571  0.38981  0.000507  0.945818  0.001
H  H29  1  0.26539140  0.00044735  0.96225365  1  0.430029  -0.000193  0.867605  0.0  0.675783  0.000144  0.398428  0.00036  0.933376  0.001  0.410351  0.000196  0.916198  0.0  0.293579  0.389795  0.000506  0.945837  0.001
H  H30  1  0.26539154  0.50045075  0.53774657  1  0.429974  -0.000194  0.867663  0.0  0.67579  0.000144  0.398379  0.00036  0.93343  0.001  0.410301  0.000195  0.916254  0.0  0.293565  0.389741  0.000507  0.945898  0.001
H  H31  1  0.73461347  0.99954574  0.03774561  1  0.430038  -0.000194  0.867591  0.0  0.67578  0.000144  0.398453  0.00036  0.933333  0.001  0.410375  0.000196  0.916158  0.0  0.293576  0.389815  0.000506  0.945802  0.001
H  H32  1  0.74583100  0.63509939  0.38220918  1  0.437137  -0.000252  0.861008  -0.001  0.673458  4.9e-05  0.409277  0.000318  0.921587  0.0  0.421641  0.000113  0.903911  0.0  0.292929  0.400279  0.000557  0.934396  0.0
H  H33  1  0.25416874  0.86489674  0.88220833  1  0.437101  -0.00025  0.861047  -0.001  0.673438  4.9e-05  0.409241  0.000318  0.921628  0.0  0.421605  0.000113  0.903952  0.0  0.292913  0.400239  0.000556  0.93444  0.0
H  H34  1  0.25416901  0.36490354  0.61779273  1  0.437124  -0.000251  0.861022  -0.001  0.673494  4.9e-05  0.409279  0.000318  0.921574  0.0  0.421635  0.000113  0.903907  0.0  0.292947  0.400276  0.000557  0.934388  0.0
H  H35  1  0.74583880  0.13509391  0.11779026  1  0.437217  -0.000252  0.86088  -0.001  0.673557  4.9e-05  0.409366  0.000318  0.921448  0.0  0.421727  0.000113  0.903774  0.0  0.292987  0.400364  0.000556  0.93426  0.0
C  C36  1  0.72767273  0.96951052  0.35844370  1  0.604869  -0.008796  3.976646  -0.007  1.634192  -0.001328  0.563724  -0.001376  4.282254  -0.001  0.600468  -0.00101  4.275041  0.0  0.200908  0.537988  -0.001648  4.285775  -0.002
C  C37  1  0.27233395  0.53049817  0.85844528  1  0.604737  -0.008802  3.976798  -0.007  1.634219  -0.001328  0.563692  -0.001376  4.282326  -0.001  0.600418  -0.001011  4.27511  0.0  0.200953  0.537977  -0.001647  4.285829  -0.002
C  C38  1  0.27232716  0.03049118  0.64155755  1  0.604871  -0.008784  3.97644  -0.007  1.634218  -0.001329  0.563717  -0.001377  4.282057  -0.001  0.600459  -0.001011  4.274849  0.0  0.200925  0.538002  -0.001648  4.285562  -0.002
C  C39  1  0.72766896  0.46950479  0.14155199  1  0.604722  -0.008799  3.976679  -0.007  1.634861  -0.001328  0.563627  -0.001375  4.282246  -0.001  0.60036  -0.001011  4.275036  0.0  0.200856  0.537907  -0.001647  4.285751  -0.002
C  C40  1  0.73909595  0.00927902  0.45321771  1  0.075127  0.003316  3.690104  0.004  0.373115  0.001995  0.070535  0.001135  3.957695  0.002  0.069932  0.000645  3.973396  0.001  0.066774  0.070574  0.001751  3.947483  0.002
C  C41  1  0.26090658  0.49071811  0.95321803  1  0.075394  0.00334  3.689852  0.004  0.373209  0.001994  0.070692  0.001135  3.95753  0.002  0.070142  0.000644  3.973169  0.001  0.066807  0.070719  0.00175  3.94732  0.002
C  C42  1  0.26089802  0.99072136  0.54678419  1  0.0751  0.003333  3.689984  0.004  0.373526  0.001994  0.070557  0.001135  3.957594  0.002  0.069949  0.000644  3.973304  0.001  0.066779  0.070577  0.00175  3.947386  0.002
C  C43  1  0.73909575  0.50927866  0.04677924  1  0.07538  0.003313  3.689912  0.004  0.373331  0.001995  0.070759  0.001135  3.957572  0.002  0.070189  0.000644  3.97323  0.001  0.06683  0.070788  0.00175  3.947364  0.002
C  C44  1  0.75995608  0.91149408  0.52635118  1  -0.105555  -0.001782  3.677636  -0.001  0.0226  -0.000328  -0.142873  -0.000333  3.943815  0.0  -0.142399  -0.000461  3.959526  0.0  -0.095236  -0.142684  -0.000199  3.932931  0.0
C  C45  1  0.24002728  0.58850344  0.02635242  1  -0.105728  -0.001833  3.677584  -0.001  0.022268  -0.000328  -0.143036  -0.000333  3.943803  0.0  -0.142573  -0.000461  3.959492  0.0  -0.095297  -0.142831  -0.0002  3.93291  0.0
C  C46  1  0.24003088  0.08850870  0.47364808  1  -0.105544  -0.001803  3.677535  -0.001  0.022677  -0.000328  -0.142867  -0.000333  3.943715  0.0  -0.142384  -0.000462  3.959418  0.0  -0.095228  -0.142664  -0.000199  3.93282  0.0
C  C47  1  0.75996112  0.41149935  0.97364684  1  -0.105784  -0.001771  3.67762  -0.001  0.022258  -0.000329  -0.143078  -0.000334  3.943805  0.0  -0.142629  -0.000462  3.959519  0.0  -0.095316  -0.142886  -0.000199  3.93292  0.0
C  C48  1  0.76905900  0.01842809  0.60053454  1  -0.121856  0.000916  3.692611  0.001  0.046662  0.000477  -0.1554  0.000299  3.96094  0.0  -0.156585  0.000271  3.976823  0.0  -0.099532  -0.154514  0.000387  3.950069  0.0
C  C49  1  0.23093562  0.48156804  0.10053659  1  -0.121828  0.000944  3.692621  0.001  0.046596  0.000477  -0.155361  0.000299  3.960943  0.0  -0.156538  0.000271  3.976834  0.0  -0.099521  -0.154476  0.000387  3.950074  0.0
C  C50  1  0.23094199  0.98156990  0.39946472  1  -0.121785  0.000933  3.692769  0.001  0.046486  0.000477  -0.155356  0.0003  3.961068  0.0  -0.15654  0.000271  3.976958  0.0  -0.099548  -0.154468  0.000387  3.950186  0.0
C  C51  1  0.76905737  0.51843728  0.89946333  1  -0.121777  0.00091  3.692672  0.001  0.04662  0.000478  -0.155303  0.0003  3.960969  0.0  -0.156487  0.000271  3.976854  0.0  -0.099509  -0.154424  0.000387  3.950115  0.0
C  C52  1  0.75149796  0.17572717  0.56898166  1  0.07724  -0.000605  3.670814  0.0  0.363267  -0.000397  0.067762  -0.00042  3.948117  0.0  0.069435  -0.000588  3.961612  0.0  0.065657  0.066722  -0.000229  3.939019  0.0
C  C53  1  0.24850968  0.32426926  0.06898127  1  0.077227  -0.000649  3.670797  0.0  0.363366  -0.000398  0.067754  -0.00042  3.948077  0.0  0.069405  -0.000588  3.961606  0.0  0.065643  0.066719  -0.00023  3.938978  0.0
C  C54  1  0.24850605  0.82427210  0.43101893  1  0.077048  -0.000633  3.670969  0.0  0.363353  -0.000398  0.067719  -0.00042  3.948144  0.0  0.069386  -0.000588  3.961647  0.0  0.065683  0.066679  -0.000229  3.939046  0.0
C  C55  1  0.75149167  0.67573245  0.93101799  1  0.07727  -0.000597  3.670979  0.0  0.363304  -0.000398  0.067821  -0.000421  3.948298  0.0  0.069489  -0.000589  3.961796  0.0  0.065695  0.066784  -0.000229  3.939195  0.0
C  C56  1  0.73499131  0.33383400  0.61433457  1  0.644823  -0.000848  3.913166  -0.001  1.635275  -2.8e-05  0.582999  1.5e-05  4.219686  0.0  0.617786  -2.5e-05  4.209696  0.0  0.219198  0.559191  0.000121  4.225547  0.0
C  C57  1  0.26501093  0.16616588  0.11433507  1  0.644734  -0.000838  3.913265  -0.001  1.635149  -2.8e-05  0.582888  1.5e-05  4.219825  0.0  0.61768  -2.4e-05  4.209838  0.0  0.219124  0.559076  0.000121  4.225685  0.0
C  C58  1  0.26501427  0.66616653  0.38566667  1  0.64483  -0.000857  3.913205  -0.001  1.634582  -2.8e-05  0.58301  1.6e-05  4.219686  0.0  0.6178  -2.3e-05  4.209693  0.0  0.21914  0.559199  0.000121  4.22555  0.0
C  C59  1  0.73498630  0.83383826  0.88566617  1  0.644745  -0.000846  3.913229  -0.001  1.634578  -2.8e-05  0.582902  1.5e-05  4.219798  0.0  0.617691  -2.3e-05  4.209804  0.0  0.219141  0.559088  0.000122  4.225655  0.0
O  O60  1  0.70809134  0.81752325  0.33653995  1  -0.618565  0.027266  2.043663  0.041  -1.200274  0.020536  -0.580961  0.011854  2.287803  0.02  -0.613472  0.00587  2.279999  0.011  -0.30621  -0.555866  0.018993  2.291653  0.029
O  O61  1  0.29190400  0.68247304  0.83654201  1  -0.618494  0.027247  2.044041  0.041  -1.200357  0.020526  -0.580902  0.011848  2.28811  0.02  -0.613414  0.005868  2.280338  0.011  -0.306215  -0.555817  0.018981  2.291959  0.029
O  O62  1  0.29190722  0.18247967  0.66346064  1  -0.61861  0.027263  2.04365  0.041  -1.200319  0.020534  -0.580963  0.011853  2.287749  0.02  -0.613476  0.00587  2.279957  0.011  -0.306239  -0.555869  0.018991  2.291594  0.029
O  O63  1  0.70810135  0.31752501  0.16345328  1  -0.618516  0.027254  2.043795  0.041  -1.200335  0.02053  -0.580961  0.01185  2.287989  0.02  -0.613452  0.005869  2.280145  0.011  -0.306237  -0.555874  0.018987  2.291841  0.029
O  O64  1  0.73929685  0.08373114  0.29982794  1  -0.599093  0.070572  2.070162  0.104  -1.14424  0.059275  -0.591192  0.034481  2.364378  0.057  -0.629476  0.022233  2.352957  0.04  -0.321766  -0.56206  0.045951  2.370527  0.07
O  O65  1  0.26070404  0.41626666  0.79982703  1  -0.599099  0.070599  2.069948  0.104  -1.144177  0.059284  -0.591246  0.034487  2.364156  0.057  -0.629533  0.022236  2.352743  0.04  -0.321779  -0.562112  0.045958  2.370296  0.07
O  O66  1  0.26069869  0.91627050  0.70017331  1  -0.599075  0.070563  2.070051  0.104  -1.144284  0.059271  -0.591172  0.034479  2.364246  0.057  -0.629453  0.022231  2.352847  0.04  -0.321759  -0.562044  0.045948  2.370392  0.07
O  O67  1  0.73929236  0.58372881  0.20017025  1  -0.599061  0.070586  2.069934  0.104  -1.144772  0.059278  -0.591173  0.034483  2.364133  0.057  -0.629451  0.022233  2.352703  0.04  -0.321731  -0.562043  0.045954  2.370277  0.07
O  O68  1  0.73341743  0.17130086  0.47858573  1  -0.20088  -0.001581  2.456347  0.0  -1.072476  -0.001177  -0.136871  -0.001703  2.687562  0.0  -0.153296  -0.001807  2.69548  0.0  -0.109819  -0.125857  -0.001423  2.682571  0.0
O  O69  1  0.26658669  0.32869742  0.97858428  1  -0.20094  -0.00158  2.456333  0.0  -1.072214  -0.001177  -0.136872  -0.001702  2.687549  0.0  -0.153313  -0.001807  2.695465  0.0  -0.109795  -0.125855  -0.001423  2.682562  0.0
O  O70  1  0.26657956  0.82870080  0.52141618  1  -0.20072  -0.001582  2.456363  0.0  -1.072736  -0.001177  -0.136864  -0.001702  2.687643  0.0  -0.153284  -0.001806  2.695563  0.0  -0.109805  -0.125838  -0.001423  2.682652  0.0
O  O71  1  0.73342034  0.67130312  0.02141432  1  -0.200902  -0.001583  2.45619  0.0  -1.072376  -0.001176  -0.13696  -0.001702  2.687494  0.0  -0.153386  -0.001806  2.695394  0.0  -0.10984  -0.125945  -0.001423  2.682508  0.0
O  O72  1  0.67759414  0.45506637  0.57195641  1  -0.592647  0.003751  2.006164  0.006  -1.198591  0.00291  -0.526138  0.001617  2.217898  0.003  -0.551663  0.00069  2.206315  0.001  -0.291888  -0.507748  0.002777  2.225232  0.004
O  O73  1  0.32240660  0.04493368  0.07195709  1  -0.592605  0.003745  2.006202  0.006  -1.198596  0.00291  -0.526087  0.001617  2.217954  0.003  -0.551611  0.000691  2.206367  0.001  -0.291881  -0.507698  0.002776  2.225285  0.004
O  O74  1  0.32240987  0.54493290  0.42804616  1  -0.592597  0.003752  2.006199  0.006  -1.198098  0.00291  -0.52612  0.001617  2.217938  0.003  -0.551644  0.00069  2.206356  0.001  -0.291845  -0.507728  0.002777  2.225267  0.004
O  O75  1  0.67759329  0.95506801  0.92804283  1  -0.59266  0.003746  2.00631  0.006  -1.198077  0.002909  -0.52617  0.001616  2.21807  0.003  -0.551691  0.000691  2.206486  0.001  -0.291912  -0.507779  0.002776  2.225404  0.004
O  O76  1  0.77849812  0.34044587  0.69738933  1  -0.659779  0.003975  2.01218  0.006  -1.234422  0.003482  -0.585683  0.001928  2.222812  0.003  -0.612779  0.000891  2.21109  0.002  -0.312165  -0.566057  0.003173  2.230317  0.005
O  O77  1  0.22150277  0.15955362  0.19738981  1  -0.659732  0.003973  2.012092  0.006  -1.234428  0.003482  -0.58565  0.001928  2.222741  0.003  -0.612747  0.00089  2.21102  0.002  -0.31211  -0.566023  0.003173  2.230241  0.005
O  O78  1  0.22150722  0.65955218  0.30261257  1  -0.659828  0.003974  2.012172  0.006  -1.234349  0.003482  -0.585764  0.001928  2.222825  0.003  -0.612863  0.00089  2.211101  0.002  -0.312186  -0.566141  0.003173  2.230329  0.005
O  O79  1  0.77849689  0.84044560  0.80260945  1  -0.659716  0.003976  2.012046  0.006  -1.234435  0.003482  -0.585617  0.001928  2.222692  0.003  -0.612714  0.00089  2.210971  0.002  -0.312116  -0.565987  0.003174  2.230191  0.005
O  O80  1  0.46753881  0.31191801  0.33365583  1  -0.820226  0.056201  2.019137  0.081  -1.301616  0.067255  -0.790052  0.039654  2.263256  0.06  -0.821796  0.029503  2.225111  0.048  -0.58169  -0.76897  0.046224  2.290879  0.066
O  O81  1  0.53246427  0.18808708  0.83365672  1  -0.820253  0.056205  2.019114  0.081  -1.301814  0.067256  -0.790088  0.039655  2.263273  0.06  -0.821833  0.029504  2.225125  0.048  -0.581688  -0.769015  0.046226  2.290926  0.066
O  O82  1  0.53246311  0.68808989  0.66634343  1  -0.820114  0.056204  2.019161  0.081  -1.301824  0.067256  -0.789962  0.039655  2.263294  0.06  -0.821695  0.029503  2.225154  0.048  -0.581651  -0.768876  0.046224  2.290921  0.066
O  O83  1  0.46753817  0.81191093  0.16634320  1  -0.820123  0.056208  2.01915  0.081  -1.301814  0.067261  -0.789944  0.039658  2.263285  0.06  -0.821686  0.029506  2.225149  0.048  -0.581654  -0.768854  0.046228  2.290897  0.066
O  O84  1  0.02903973  0.34688770  0.30374345  1  -0.809271  0.057133  2.005232  0.082  -1.235828  0.068135  -0.778758  0.040181  2.242153  0.061  -0.810737  0.030019  2.20523  0.049  -0.585211  -0.757532  0.046791  2.269115  0.067
O  O85  1  0.97096117  0.15311009  0.80374466  1  -0.809234  0.057137  2.0051  0.082  -1.23595  0.068136  -0.77872  0.040181  2.242134  0.061  -0.810706  0.030019  2.205221  0.049  -0.585172  -0.757486  0.046793  2.269095  0.067
O  O86  1  0.97095993  0.65311152  0.69625713  1  -0.809229  0.057139  2.005252  0.082  -1.235841  0.068137  -0.778727  0.040182  2.242189  0.061  -0.810697  0.03002  2.20527  0.049  -0.585181  -0.757495  0.046791  2.269154  0.067
O  O87  1  0.02904406  0.84688672  0.19625724  1  -0.809215  0.057138  2.005195  0.082  -1.236203  0.068138  -0.778697  0.040181  2.242156  0.061  -0.810673  0.03002  2.205241  0.049  -0.585195  -0.757469  0.046791  2.269117  0.067
O  O88  1  0.78991950  0.52743531  0.40262728  1  -0.820566  0.052353  1.912391  0.076  -1.276638  0.060724  -0.79413  0.035281  2.127029  0.055  -0.824368  0.025667  2.089299  0.044  -0.58567  -0.773957  0.041497  2.154394  0.061
O  O89  1  0.21007917  0.97256443  0.90262759  1  -0.820496  0.052342  1.912447  0.075  -1.276647  0.060717  -0.794053  0.035277  2.127086  0.055  -0.82429  0.025664  2.089353  0.044  -0.585648  -0.773877  0.041494  2.154446  0.061
O  O90  1  0.21007906  0.47256760  0.59737396  1  -0.820469  0.052354  1.912452  0.076  -1.276703  0.060724  -0.794076  0.035281  2.127072  0.055  -0.824298  0.025667  2.089356  0.044  -0.585709  -0.773898  0.041497  2.15444  0.061
O  O91  1  0.78992872  0.02742994  0.09737167  1  -0.820643  0.052344  1.912327  0.075  -1.276707  0.060718  -0.794216  0.035278  2.12695  0.055  -0.824451  0.025665  2.089224  0.044  -0.58574  -0.774044  0.041493  2.154319  0.061
