# generated using pymatgen
data_ZnH22C22SN4O5
_symmetry_space_group_name_H-M   'P 1'
_cell_length_a   8.17153253
_cell_length_b   16.29095767
_cell_length_c   17.88158071
_cell_angle_alpha   90.00019733
_cell_angle_beta   89.99958991
_cell_angle_gamma   89.99997413
_symmetry_Int_Tables_number   1
_chemical_formula_structural   ZnH22C22SN4O5
_chemical_formula_sum   'Zn4 H88 C88 S4 N16 O20'
_cell_volume   2380.43340591
_cell_formula_units_Z   4
loop_
 _symmetry_equiv_pos_site_id
 _symmetry_equiv_pos_as_xyz
  1  'x, y, z'
loop_
 _atom_site_type_symbol
 _atom_site_label
 _atom_site_symmetry_multiplicity
 _atom_site_fract_x
 _atom_site_fract_y
 _atom_site_fract_z
 _atom_site_occupancy
 _atom_site_pbe_bader_charge
 _atom_site_pbe_bader_spin_density
 _atom_site_pbe_cm5_charge
 _atom_site_pbe_ddec_charge
 _atom_site_pbe_ddec_spin_density
 _atom_site_pbe_ddec_sum_bond_order
 _atom_site_pbe_magmom
Zn  Zn0  1  0.95424230  0.18271152  0.89549898  1  1.252013  0  0.70057  0.747318  0  2.448383  0
Zn  Zn1  1  0.54575708  0.81729088  0.39550066  1  1.252046  0  0.700589  0.747406  0  2.448221  0
Zn  Zn2  1  0.04575504  0.68270931  0.60450069  1  1.25196  0  0.700545  0.747259  0  2.448367  0
Zn  Zn3  1  0.45423942  0.31728781  0.10450059  1  1.252023  0  0.700576  0.747332  0  2.448318  0
H  H4  1  0.83991585  0.59654420  0.90817263  1  0.447885  0  0.32023  0.32718  0  0.914472  0
H  H5  1  0.66007721  0.40345273  0.40817152  1  0.447839  0  0.320251  0.327196  0  0.914476  0
H  H6  1  0.16007912  0.09654668  0.59182565  1  0.447855  0  0.320267  0.327237  0  0.914394  0
H  H7  1  0.33992900  0.90345285  0.09182496  1  0.447853  0  0.320251  0.327219  0  0.914421  0
H  H8  1  0.77912212  0.49881387  0.88128458  1  0.427967  0  0.314399  0.317489  0  0.939911  0
H  H9  1  0.72088115  0.50118234  0.38128246  1  0.427965  0  0.314383  0.317453  0  0.939945  0
H  H10  1  0.22087494  0.99881658  0.61871497  1  0.428032  0  0.314398  0.317402  0  0.940033  0
H  H11  1  0.27913031  0.00118183  0.11871500  1  0.428071  0  0.314409  0.317431  0  0.940075  0
H  H12  1  0.35396905  0.28796636  0.92621217  1  0.110785  0  0.112733  0.087846  0  1.018842  0
H  H13  1  0.14603137  0.71203014  0.42621320  1  0.110837  0  0.112744  0.08793  0  1.018764  0
H  H14  1  0.64602819  0.78796880  0.57379006  1  0.110761  0  0.112723  0.087874  0  1.01874  0
H  H15  1  0.85397133  0.21203300  0.07378995  1  0.110751  0  0.112723  0.087848  0  1.018834  0
H  H16  1  0.24494237  0.40583558  0.99894157  1  0.044976  0  0.090132  0.081967  0  1.037647  0
H  H17  1  0.25506915  0.59416672  0.49894522  1  0.044541  0  0.090138  0.08198  0  1.037715  0
H  H18  1  0.75505600  0.90583649  0.50106160  1  0.044994  0  0.090121  0.08192  0  1.037673  0
H  H19  1  0.74494467  0.09416626  0.00105868  1  0.044979  0  0.090131  0.081999  0  1.037619  0
H  H20  1  0.26179064  0.41913173  0.90184947  1  0.046431  0  0.091753  0.089427  0  0.999099  0
H  H21  1  0.23821629  0.58086468  0.40185482  1  0.046891  0  0.091786  0.089486  0  0.999153  0
H  H22  1  0.73821261  0.91913485  0.59815373  1  0.046556  0  0.091757  0.08942  0  0.999164  0
H  H23  1  0.76179265  0.08086704  0.09815016  1  0.046448  0  0.09177  0.089437  0  0.999138  0
H  H24  1  0.94159881  0.38644803  0.98753816  1  0.075379  0  0.102145  0.121966  0  0.986507  0
H  H25  1  0.55840891  0.61355349  0.48753805  1  0.075303  0  0.102147  0.121907  0  0.986526  0
H  H26  1  0.05839957  0.88644793  0.51246159  1  0.075395  0  0.102162  0.121974  0  0.986475  0
H  H27  1  0.44160245  0.11355192  0.01246256  1  0.075374  0  0.102153  0.121986  0  0.986512  0
H  H28  1  0.95682072  0.38785476  0.88963013  1  0.041093  0  0.096481  0.112105  0  0.996081  0
H  H29  1  0.54318732  0.61214578  0.38963006  1  0.041053  0  0.096507  0.112101  0  0.995977  0
H  H30  1  0.04318501  0.88785687  0.61036962  1  0.041132  0  0.096508  0.112094  0  0.996071  0
H  H31  1  0.45681915  0.11214458  0.11037055  1  0.041128  0  0.096483  0.11211  0  0.996044  0
H  H32  1  0.13891314  0.09878928  0.72409084  1  0.089602  0  0.096246  0.094878  0  1.053245  0
H  H33  1  0.36109168  0.90120645  0.22409231  1  0.089536  0  0.096254  0.094855  0  1.05339  0
H  H34  1  0.86108672  0.59879182  0.77590913  1  0.090299  0  0.09629  0.094909  0  1.053319  0
H  H35  1  0.63890964  0.40121136  0.27590808  1  0.089568  0  0.096229  0.094871  0  1.053266  0
H  H36  1  0.21730912  0.95310312  0.74900987  1  0.043972  0  0.096034  0.09677  0  1.007681  0
H  H37  1  0.28270142  0.04689455  0.24900724  1  0.044026  0  0.096042  0.096832  0  1.007594  0
H  H38  1  0.78269654  0.45310483  0.75099009  1  0.044038  0  0.096047  0.096827  0  1.007578  0
H  H39  1  0.71730387  0.54689703  0.25098869  1  0.043992  0  0.096022  0.096813  0  1.007628  0
H  H40  1  0.57627155  0.03560790  0.90732886  1  0.078521  0  0.099939  0.105952  0  1.033677  0
H  H41  1  0.92372396  0.96439455  0.40732474  1  0.076955  0  0.099952  0.105944  0  1.033726  0
H  H42  1  0.42372591  0.53560924  0.59267370  1  0.076971  0  0.099961  0.105954  0  1.03371  0
H  H43  1  0.07627852  0.46439153  0.09267138  1  0.076891  0  0.099941  0.105943  0  1.033672  0
H  H44  1  0.50719409  0.18085714  0.87875119  1  0.12098  0  0.103841  0.112293  0  1.031694  0
H  H45  1  0.99279942  0.81914213  0.37875086  1  0.120793  0  0.103837  0.112264  0  1.031649  0
H  H46  1  0.49279835  0.68086164  0.62125239  1  0.121061  0  0.103845  0.112293  0  1.031641  0
H  H47  1  0.00719707  0.31914169  0.12124928  1  0.12092  0  0.103857  0.112297  0  1.031631  0
H  H48  1  0.50470158  0.86608375  0.80380587  1  0.100225  0  0.090556  0.148107  0  1.041765  0
H  H49  1  0.99530290  0.13391524  0.30380282  1  0.100413  0  0.090586  0.148151  0  1.041802  0
H  H50  1  0.49530171  0.36608532  0.69619437  1  0.10022  0  0.090521  0.148046  0  1.041844  0
H  H51  1  0.00470721  0.63391338  0.19619505  1  0.100283  0  0.090606  0.148142  0  1.04179  0
H  H52  1  0.32762786  0.86257580  0.86097784  1  0.017097  0  0.082868  0.112296  0  1.038074  0
H  H53  1  0.17237603  0.13742352  0.36097361  1  0.017286  0  0.082873  0.112317  0  1.038035  0
H  H54  1  0.67237666  0.36257895  0.63902240  1  0.017084  0  0.082855  0.112268  0  1.038084  0
H  H55  1  0.82763897  0.63742494  0.13902204  1  0.017158  0  0.082856  0.11232  0  1.038071  0
H  H56  1  0.51806428  0.89357342  0.90047688  1  0.047739  0  0.087838  0.138093  0  1.022636  0
H  H57  1  0.98194114  0.10642655  0.40047379  1  0.047852  0  0.087847  0.138095  0  1.022601  0
H  H58  1  0.48194267  0.39357462  0.59952401  1  0.047797  0  0.087853  0.138099  0  1.0226  0
H  H59  1  0.01807512  0.60642494  0.09952345  1  0.047706  0  0.087828  0.138045  0  1.022608  0
H  H60  1  0.77145016  0.27001494  0.76394617  1  0.109104  0  0.124867  0.095724  0  0.968069  0
H  H61  1  0.72854516  0.72998574  0.26394698  1  0.109595  0  0.124881  0.095739  0  0.968065  0
H  H62  1  0.22854221  0.77000889  0.73605377  1  0.109159  0  0.124884  0.09579  0  0.96809  0
H  H63  1  0.27144896  0.22998628  0.23605623  1  0.10907  0  0.124873  0.095705  0  0.96815  0
H  H64  1  0.62029584  0.22662319  0.64844593  1  0.064537  0  0.112605  0.117864  0  1.001456  0
H  H65  1  0.87970496  0.77337890  0.14844583  1  0.064559  0  0.112607  0.117858  0  1.001437  0
H  H66  1  0.37969656  0.72661876  0.85155611  1  0.064622  0  0.112585  0.117795  0  1.001407  0
H  H67  1  0.12028790  0.27338114  0.35155640  1  0.064532  0  0.112592  0.117873  0  1.001383  0
H  H68  1  0.60649947  0.07575109  0.61789137  1  0.07695  0  0.110428  0.10478  0  0.989009  0
H  H69  1  0.89350426  0.92425026  0.11789114  1  0.076905  0  0.110431  0.104768  0  0.989028  0
H  H70  1  0.39349674  0.57574493  0.88210852  1  0.077176  0  0.110418  0.104783  0  0.989039  0
H  H71  1  0.10648969  0.42425324  0.38210877  1  0.076841  0  0.110419  0.104744  0  0.989034  0
H  H72  1  0.72487273  0.97535889  0.70786898  1  0.099016  0  0.112375  0.12265  0  1.01436  0
H  H73  1  0.77512836  0.02464342  0.20786854  1  0.098965  0  0.112364  0.122619  0  1.014359  0
H  H74  1  0.27513046  0.47535412  0.79212770  1  0.098924  0  0.112387  0.122682  0  1.014319  0
H  H75  1  0.22486105  0.52464433  0.29212955  1  0.098984  0  0.112399  0.122711  0  1.014297  0
H  H76  1  0.82604533  0.89920451  0.78740361  1  0.119739  0  0.111184  0.119736  0  1.03828  0
H  H77  1  0.67396063  0.10079933  0.28740486  1  0.119638  0  0.111154  0.119677  0  1.038296  0
H  H78  1  0.17395671  0.39919701  0.71259003  1  0.119759  0  0.111167  0.119689  0  1.038267  0
H  H79  1  0.32604095  0.60079807  0.21259627  1  0.119662  0  0.111166  0.119699  0  1.0383  0
H  H80  1  0.96274235  0.81704499  0.88349263  1  0.118296  0  0.114087  0.120727  0  0.985557  0
H  H81  1  0.53726578  0.18296228  0.38349571  1  0.11813  0  0.114066  0.120778  0  0.985484  0
H  H82  1  0.03725242  0.31703593  0.61650242  1  0.118083  0  0.114049  0.120744  0  0.985525  0
H  H83  1  0.46273818  0.68295695  0.11650568  1  0.118252  0  0.114057  0.120702  0  0.985538  0
H  H84  1  0.10783208  0.88983966  0.99055851  1  0.061475  0  0.107993  0.106236  0  1.003582  0
H  H85  1  0.39217101  0.11016690  0.49056187  1  0.061159  0  0.108014  0.106254  0  1.003617  0
H  H86  1  0.89215774  0.38983491  0.50944014  1  0.061048  0  0.108013  0.106264  0  1.003637  0
H  H87  1  0.60783056  0.61016052  0.00943929  1  0.061462  0  0.108048  0.106315  0  1.003625  0
H  H88  1  0.09931628  0.04426691  0.99362347  1  0.147858  0  0.117798  0.090578  0  1.018771  0
H  H89  1  0.40068065  0.95573905  0.49362499  1  0.147588  0  0.117745  0.090537  0  1.018779  0
H  H90  1  0.90067507  0.54426106  0.50637576  1  0.147812  0  0.117737  0.090505  0  1.018775  0
H  H91  1  0.59931328  0.45573313  0.00637445  1  0.147783  0  0.117786  0.090577  0  1.018724  0
C  C92  1  0.18071260  0.24377571  0.00392312  1  1.5846  0  0.213921  0.580296  0  4.113536  0
C  C93  1  0.31928099  0.75622595  0.50392536  1  1.584864  0  0.213781  0.580053  0  4.113645  0
C  C94  1  0.81928641  0.74377725  0.49607902  1  1.584669  0  0.213872  0.580245  0  4.113491  0
C  C95  1  0.68071751  0.25622369  0.99607678  1  1.584617  0  0.213934  0.580379  0  4.113518  0
C  C96  1  0.22070513  0.29436073  0.93356242  1  0.284819  0  -0.00864  0.009444  0  3.899698  0
C  C97  1  0.27929763  0.70563947  0.43356411  1  0.284655  0  -0.008566  0.00949  0  3.899583  0
C  C98  1  0.77929334  0.79436128  0.56643983  1  0.284817  0  -0.00864  0.009419  0  3.899663  0
C  C99  1  0.72070753  0.20564050  0.06643846  1  0.284804  0  -0.008617  0.00945  0  3.899623  0
C  C100  1  0.19187442  0.38693236  0.94532220  1  -0.023502  0  -0.164196  -0.1509  0  3.909222  0
C  C101  1  0.30813305  0.61306851  0.44532630  1  -0.023467  0  -0.164247  -0.15106  0  3.909495  0
C  C102  1  0.80812641  0.88693408  0.55468090  1  -0.023686  0  -0.164189  -0.150814  0  3.909149  0
C  C103  1  0.69187708  0.11306765  0.05467878  1  -0.023535  0  -0.164251  -0.151003  0  3.909208  0
C  C104  1  0.01280154  0.41255886  0.94084922  1  -0.033965  0  -0.166523  -0.29192  0  3.909045  0
C  C105  1  0.48720477  0.58744383  0.44085209  1  -0.033983  0  -0.16651  -0.291732  0  3.908814  0
C  C106  1  0.98719804  0.91255994  0.55915061  1  -0.033985  0  -0.1665  -0.29183  0  3.909015  0
C  C107  1  0.51280416  0.08744181  0.05915123  1  -0.033994  0  -0.166468  -0.291831  0  3.908964  0
C  C108  1  0.99297502  0.50515552  0.94408965  1  1.404133  0  0.236342  0.599668  0  4.100671  0
C  C109  1  0.50703338  0.49484891  0.44408877  1  1.403798  0  0.236317  0.599733  0  4.100371  0
C  C110  1  0.00703104  0.00515237  0.55591114  1  1.403753  0  0.236198  0.599506  0  4.100674  0
C  C111  1  0.49298009  0.99484703  0.05591192  1  1.404429  0  0.236293  0.599539  0  4.100716  0
C  C112  1  0.31503248  0.14811370  0.80087467  1  -0.140223  0  -0.032455  -0.100943  0  4.010643  0
C  C113  1  0.18496991  0.85188417  0.30087712  1  -0.140275  0  -0.032492  -0.100883  0  4.01052  0
C  C114  1  0.68496122  0.64811661  0.69912769  1  -0.140472  0  -0.032419  -0.10085  0  4.010559  0
C  C115  1  0.81503267  0.35188629  0.19912424  1  -0.140192  0  -0.032428  -0.100819  0  4.010555  0
C  C116  1  0.23726404  0.08413766  0.76288029  1  -0.113288  0  -0.105289  -0.122588  0  4.072484  0
C  C117  1  0.26274384  0.91585761  0.26288157  1  -0.043105  0  -0.105264  -0.12248  0  4.072584  0
C  C118  1  0.76273706  0.58414191  0.73712187  1  -0.114062  0  -0.105359  -0.122616  0  4.072684  0
C  C119  1  0.73726235  0.41586235  0.23711831  1  -0.113239  0  -0.105267  -0.122586  0  4.072539  0
C  C120  1  0.28118351  0.00305221  0.77753260  1  -0.016147  0  -0.102862  -0.157459  0  3.987468  0
C  C121  1  0.21882659  0.99694373  0.27753204  1  -0.086278  0  -0.102936  -0.157663  0  3.987427  0
C  C122  1  0.71881888  0.50305642  0.72246707  1  -0.01616  0  -0.102915  -0.157603  0  3.987467  0
C  C123  1  0.78118076  0.49694779  0.22246586  1  -0.016299  0  -0.102841  -0.157549  0  3.987467  0
C  C124  1  0.40064127  0.98422972  0.83116735  1  -0.037314  0  -0.007341  0.184383  0  3.961279  0
C  C125  1  0.09936309  0.01576948  0.33116466  1  -0.037288  0  -0.007298  0.184458  0  3.961308  0
C  C126  1  0.59935947  0.48423301  0.66883327  1  -0.037127  0  -0.007303  0.184444  0  3.961366  0
C  C127  1  0.90064346  0.51576977  0.16883229  1  -0.037139  0  -0.007345  0.18444  0  3.961235  0
C  C128  1  0.48071819  0.04965735  0.86674873  1  -0.038307  0  -0.096456  -0.146082  0  3.94767  0
C  C129  1  0.01927950  0.95034445  0.36674645  1  -0.036604  0  -0.09647  -0.146088  0  3.947741  0
C  C130  1  0.51928049  0.54965881  0.63325164  1  -0.036671  0  -0.096485  -0.146082  0  3.947873  0
C  C131  1  0.98072177  0.45034321  0.13325075  1  -0.036749  0  -0.096478  -0.146154  0  3.94775  0
C  C132  1  0.44056301  0.13108654  0.85169209  1  -0.096426  0  -0.091507  -0.089639  0  3.988306  0
C  C133  1  0.05943369  0.86891397  0.35169054  1  -0.096209  0  -0.091498  -0.089663  0  3.988225  0
C  C134  1  0.55943193  0.63108806  0.64831189  1  -0.096372  0  -0.091519  -0.089703  0  3.988282  0
C  C135  1  0.94056643  0.36891341  0.14830752  1  -0.096401  0  -0.091547  -0.089656  0  3.988219  0
C  C136  1  0.44112316  0.89691199  0.85025382  1  -0.074914  0  -0.251217  -0.441093  0  3.953818  0
C  C137  1  0.05888212  0.10308667  0.35025042  1  -0.07552  0  -0.251258  -0.441169  0  3.953891  0
C  C138  1  0.55888133  0.39691583  0.64974652  1  -0.075043  0  -0.251168  -0.441006  0  3.953878  0
C  C139  1  0.94112435  0.60308872  0.14974680  1  -0.07502  0  -0.251235  -0.441095  0  3.953788  0
C  C140  1  0.75926410  0.20552638  0.74880816  1  0.507304  0  0.06709  0.132755  0  3.919615  0
C  C141  1  0.74073513  0.79447424  0.24881026  1  0.50684  0  0.067075  0.132728  0  3.919365  0
C  C142  1  0.24072955  0.70552345  0.75118990  1  0.507415  0  0.067023  0.132507  0  3.919387  0
C  C143  1  0.25925527  0.29447178  0.25119260  1  0.507337  0  0.067038  0.132733  0  3.919462  0
C  C144  1  0.67634993  0.18087456  0.68460420  1  0.053676  0  -0.07455  -0.123559  0  3.945765  0
C  C145  1  0.82365030  0.81912644  0.18460499  1  0.053708  0  -0.074619  -0.123623  0  3.945665  0
C  C146  1  0.32365108  0.68086878  0.81539378  1  0.053321  0  -0.074554  -0.123403  0  3.945597  0
C  C147  1  0.17634130  0.31912853  0.31539515  1  0.053208  0  -0.074575  -0.123561  0  3.945776  0
C  C148  1  0.66652942  0.09724654  0.66865751  1  -0.032457  0  -0.058811  -0.005597  0  3.956755  0
C  C149  1  0.83347352  0.90275378  0.16865797  1  -0.032391  0  -0.05878  -0.00554  0  3.956811  0
C  C150  1  0.33346310  0.59724205  0.83134021  1  -0.032195  0  -0.058852  -0.005743  0  3.956983  0
C  C151  1  0.16652535  0.40275471  0.33134355  1  -0.031923  0  -0.058753  -0.005541  0  3.956749  0
C  C152  1  0.73550755  0.04102832  0.71810204  1  0.04476  0  -0.07337  -0.147206  0  3.913605  0
C  C153  1  0.76449828  0.95897341  0.21810066  1  0.044698  0  -0.073359  -0.14718  0  3.913634  0
C  C154  1  0.26449236  0.54102182  0.78189662  1  0.044628  0  -0.073274  -0.147087  0  3.913537  0
C  C155  1  0.23549686  0.45897352  0.28189656  1  0.044681  0  -0.073345  -0.147212  0  3.913673  0
C  C156  1  0.81587140  0.07037048  0.78176691  1  0.397488  0  0.123363  0.162073  0  4.00061  0
C  C157  1  0.68412976  0.92963211  0.28176794  1  0.397154  0  0.123339  0.162053  0  4.000785  0
C  C158  1  0.18412849  0.57036498  0.71822961  1  0.396512  0  0.123333  0.162019  0  4.00077  0
C  C159  1  0.31586174  0.42962951  0.21823199  1  0.397118  0  0.123318  0.161983  0  4.000937  0
C  C160  1  0.89085936  0.01574211  0.83848429  1  0.467307  0  0.124688  0.162302  0  3.993978  0
C  C161  1  0.60914458  0.98426253  0.33848517  1  0.467691  0  0.124638  0.16228  0  3.994087  0
C  C162  1  0.10914180  0.51573457  0.66151150  1  0.468458  0  0.12465  0.162283  0  3.99392  0
C  C163  1  0.39084687  0.48425970  0.16151381  1  0.467755  0  0.124674  0.162324  0  3.993984  0
C  C164  1  0.88734313  0.93023223  0.83336650  1  0.02483  0  -0.070275  -0.136225  0  3.900264  0
C  C165  1  0.61266211  0.06977301  0.33336785  1  0.024767  0  -0.070246  -0.136118  0  3.900198  0
C  C166  1  0.11265644  0.43022457  0.66662836  1  0.024667  0  -0.07025  -0.136143  0  3.900202  0
C  C167  1  0.38733705  0.56976911  0.16663374  1  0.024785  0  -0.070291  -0.136251  0  3.90035  0
C  C168  1  0.96460118  0.88370836  0.88834074  1  -0.012225  0  -0.055868  -0.007963  0  3.925588  0
C  C169  1  0.53540565  0.11629770  0.38834361  1  -0.012309  0  -0.055846  -0.008085  0  3.925513  0
C  C170  1  0.03540455  0.38369928  0.61165453  1  -0.012322  0  -0.055846  -0.008014  0  3.925496  0
C  C171  1  0.46459591  0.61629296  0.11165812  1  -0.01236  0  -0.055825  -0.007872  0  3.925463  0
C  C172  1  0.04349196  0.92366817  0.94706083  1  -0.061601  0  -0.077497  -0.124027  0  3.976338  0
C  C173  1  0.45651548  0.07633946  0.44706500  1  -0.061273  0  -0.07746  -0.123992  0  3.97636  0
C  C174  1  0.95650883  0.42366172  0.55293288  1  -0.061211  0  -0.077454  -0.124066  0  3.976447  0
C  C175  1  0.54348612  0.57633387  0.05293717  1  -0.061453  0  -0.077534  -0.124167  0  3.976362  0
C  C176  1  0.04060672  0.00912218  0.94923203  1  0.503403  0  0.058538  0.111164  0  3.92727  0
C  C177  1  0.45939334  0.99088545  0.44923402  1  0.503752  0  0.058559  0.111248  0  3.927197  0
C  C178  1  0.95938587  0.50911464  0.55076542  1  0.503341  0  0.058592  0.111357  0  3.927424  0
C  C179  1  0.54060422  0.49088032  0.05076609  1  0.503456  0  0.058513  0.111177  0  3.927177  0
S  S180  1  0.23514050  0.24957305  0.79365412  1  2.938542  0  0.521815  1.065881  0  6.086168  0
S  S181  1  0.26486078  0.75042418  0.29365655  1  2.938857  0  0.52173  1.065866  0  6.086223  0
S  S182  1  0.76485678  0.74957473  0.70634800  1  2.938923  0  0.521908  1.06592  0  6.086142  0
S  S183  1  0.73513944  0.25042696  0.20634616  1  2.938768  0  0.521856  1.065874  0  6.086389  0
N  N184  1  0.13063687  0.26371110  0.86799449  1  -1.33866  0  -0.451992  -0.607239  0  3.428693  0
N  N185  1  0.36936569  0.73628886  0.36799710  1  -1.338704  0  -0.45203  -0.607319  0  3.428752  0
N  N186  1  0.86936040  0.76371187  0.63200655  1  -1.338975  0  -0.451944  -0.60719  0  3.428712  0
N  N187  1  0.63063577  0.23628954  0.13200557  1  -1.338684  0  -0.45203  -0.607272  0  3.428745  0
N  N188  1  0.85167250  0.53483022  0.91345225  1  -1.248982  0  -0.578044  -0.666857  0  3.316082  0
N  N189  1  0.64832782  0.46516673  0.41345194  1  -1.248968  0  -0.57802  -0.666833  0  3.31613  0
N  N190  1  0.14832252  0.03483330  0.58654583  1  -1.24898  0  -0.578003  -0.666717  0  3.316324  0
N  N191  1  0.35168323  0.96516683  0.08654642  1  -1.249277  0  -0.57805  -0.666777  0  3.316393  0
N  N192  1  0.82819330  0.15152350  0.79554600  1  -1.219353  0  -0.318742  -0.258183  0  3.531936  0
N  N193  1  0.67180520  0.84848037  0.29554738  1  -1.219338  0  -0.318644  -0.258103  0  3.531863  0
N  N194  1  0.17180284  0.65151672  0.70445301  1  -1.219384  0  -0.318618  -0.257927  0  3.531752  0
N  N195  1  0.32818760  0.34847894  0.20445341  1  -1.219193  0  -0.318705  -0.258172  0  3.531852  0
N  N196  1  0.96521336  0.05372525  0.89648804  1  -1.249398  0  -0.320776  -0.262089  0  3.542694  0
N  N197  1  0.53478478  0.94628023  0.39648849  1  -1.249197  0  -0.320779  -0.262199  0  3.542717  0
N  N198  1  0.03478164  0.55371996  0.60350786  1  -1.24908  0  -0.320855  -0.262282  0  3.542868  0
N  N199  1  0.46520793  0.44627655  0.10351037  1  -1.249266  0  -0.320708  -0.262027  0  3.542577  0
O  O200  1  0.07884265  0.18518252  0.99940510  1  -1.187512  0  -0.313578  -0.522118  0  2.307861  0
O  O201  1  0.42114684  0.81481978  0.49940611  1  -1.18754  0  -0.313535  -0.522054  0  2.307873  0
O  O202  1  0.92115713  0.68518339  0.50059570  1  -1.187452  0  -0.313533  -0.522062  0  2.307749  0
O  O203  1  0.57884721  0.31481507  0.00059402  1  -1.187444  0  -0.31357  -0.522161  0  2.308098  0
O  O204  1  0.25027066  0.26195155  0.06551435  1  -1.20358  0  -0.329867  -0.546137  0  2.379467  0
O  O205  1  0.24972441  0.73804666  0.56551731  1  -1.203691  0  -0.329761  -0.545966  0  2.37949  0
O  O206  1  0.74972833  0.76195471  0.43448785  1  -1.20361  0  -0.329862  -0.546155  0  2.37949  0
O  O207  1  0.75027166  0.23804232  0.93448421  1  -1.203652  0  -0.329857  -0.546149  0  2.3793  0
O  O208  1  0.09452763  0.55132116  0.97364338  1  -1.165377  0  -0.316944  -0.528503  0  2.078805  0
O  O209  1  0.40546960  0.44867981  0.47364553  1  -1.16494  0  -0.317017  -0.528665  0  2.078567  0
O  O210  1  0.90546370  0.05132384  0.52635308  1  -1.165059  0  -0.316957  -0.528551  0  2.078434  0
O  O211  1  0.59454146  0.94867840  0.02635501  1  -1.165424  0  -0.316973  -0.528499  0  2.078656  0
O  O212  1  0.12433315  0.24813042  0.72980424  1  -1.330933  0  -0.341601  -0.582933  0  2.222992  0
O  O213  1  0.37566791  0.75186595  0.22980464  1  -1.330912  0  -0.341571  -0.582977  0  2.223046  0
O  O214  1  0.87566536  0.74813355  0.77019732  1  -1.330983  0  -0.341662  -0.582976  0  2.222991  0
O  O215  1  0.62432864  0.25187022  0.27019697  1  -1.330931  0  -0.341594  -0.582934  0  2.222976  0
O  O216  1  0.37352702  0.30639289  0.79087850  1  -1.328318  0  -0.33447  -0.560684  0  2.174456  0
O  O217  1  0.12647430  0.69360432  0.29088345  1  -1.328639  0  -0.334419  -0.56064  0  2.174452  0
O  O218  1  0.62646898  0.80639523  0.70912212  1  -1.32844  0  -0.334516  -0.560742  0  2.17449  0
O  O219  1  0.87352230  0.19360708  0.20912133  1  -1.328533  0  -0.33451  -0.560725  0  2.17465  0
