# generated using pymatgen
data_NaZnH3(C3O2)3
_symmetry_space_group_name_H-M   'P 1'
_cell_length_a   6.89898334
_cell_length_b   9.80227650
_cell_length_c   12.39475709
_cell_angle_alpha   89.99997101
_cell_angle_beta   89.99996393
_cell_angle_gamma   91.63620511
_symmetry_Int_Tables_number   1
_chemical_formula_structural   NaZnH3(C3O2)3
_chemical_formula_sum   'Na4 Zn4 H12 C36 O24'
_cell_volume   837.86288883
_cell_formula_units_Z   4
loop_
 _symmetry_equiv_pos_site_id
 _symmetry_equiv_pos_as_xyz
  1  'x, y, z'
loop_
 _atom_site_type_symbol
 _atom_site_label
 _atom_site_symmetry_multiplicity
 _atom_site_fract_x
 _atom_site_fract_y
 _atom_site_fract_z
 _atom_site_occupancy
 _atom_site_hle17_bader_spin_density
 _atom_site_hle17_ddec_charge
 _atom_site_hle17_ddec_spin_density
 _atom_site_hle17_ddec_sum_bond_order
 _atom_site_hle17_magmom
 _atom_site_hse06_10hf_bader_spin_density
 _atom_site_hse06_10hf_ddec_charge
 _atom_site_hse06_10hf_ddec_spin_density
 _atom_site_hse06_10hf_ddec_sum_bond_order
 _atom_site_hse06_10hf_magmom
 _atom_site_hse06_bader_spin_density
 _atom_site_hse06_ddec_charge
 _atom_site_hse06_ddec_spin_density
 _atom_site_hse06_ddec_sum_bond_order
 _atom_site_hse06_magmom
 _atom_site_pbe_bader_spin_density
 _atom_site_pbe_cm5_charge
 _atom_site_pbe_ddec_charge
 _atom_site_pbe_ddec_spin_density
 _atom_site_pbe_ddec_sum_bond_order
 _atom_site_pbe_magmom
Na  Na0  1  0.97025574  0.35005965  0.74093320  1  0  0.913316  0  0.375303  0  0  0.876206  0  0.52294  0  0  0.886044  0  0.502299  0  0  0.693375  0.868942  0  0.537444  0
Na  Na1  1  0.47025599  0.35006006  0.75906676  1  0  0.913309  0  0.375311  0  0  0.876201  0  0.522951  0  0  0.886037  0  0.502313  0  0  0.693375  0.868936  0  0.537454  0
Na  Na2  1  0.02974524  0.64994050  0.25906666  1  0  0.913311  0  0.3753  0  0  0.876222  0  0.522924  0  0  0.886056  0  0.502287  0  0  0.693388  0.868957  0  0.537426  0
Na  Na3  1  0.52974500  0.64994009  0.24093310  1  0  0.913315  0  0.375308  0  0  0.876221  0  0.522925  0  0  0.886057  0  0.502286  0  0  0.693376  0.868958  0  0.537427  0
Zn  Zn4  1  0.17726900  0.59203214  0.93124924  1  0  1.216965  0  1.69029  0  0  1.051391  0  2.158691  0  0  1.101983  0  2.092937  0  0  0.719848  1.013465  0  2.206184  0
Zn  Zn5  1  0.67726895  0.59203184  0.56875153  1  0  1.216965  0  1.69028  0  0  1.051385  0  2.158678  0  0  1.101977  0  2.092924  0  0  0.719848  1.013453  0  2.206161  0
Zn  Zn6  1  0.82273198  0.40796802  0.06875142  1  0  1.217016  0  1.690269  0  0  1.051426  0  2.158663  0  0  1.102016  0  2.09291  0  0  0.71987  1.013499  0  2.206153  0
Zn  Zn7  1  0.32273058  0.40796832  0.43124914  1  0  1.216945  0  1.690316  0  0  1.051363  0  2.158718  0  0  1.101956  0  2.092968  0  0  0.719824  1.013433  0  2.206205  0
H  H8  1  0.31697694  0.96012767  0.44696696  1  0  0.111597  0  0.946355  0  0  0.121054  0  1.010099  0  0  0.12409  0  1.008531  0  0  0.111189  0.118659  0  1.011666  0
H  H9  1  0.81697691  0.96012738  0.05303338  1  0  0.111598  0  0.946347  0  0  0.121056  0  1.010085  0  0  0.124094  0  1.008515  0  0  0.111195  0.118663  0  1.011653  0
H  H10  1  0.68302255  0.03987146  0.55303290  1  0  0.111591  0  0.946358  0  0  0.121051  0  1.0101  0  0  0.124088  0  1.008531  0  0  0.111193  0.118656  0  1.011667  0
H  H11  1  0.18302403  0.03987175  0.94696648  1  0  0.111612  0  0.946329  0  0  0.121067  0  1.010071  0  0  0.124104  0  1.008504  0  0  0.111194  0.118673  0  1.011639  0
H  H12  1  0.11438113  0.09177835  0.75667473  1  0  0.094535  0  0.972058  0  0  0.102449  0  1.039942  0  0  0.10646  0  1.036524  0  0  0.110439  0.099381  0  1.042741  0
H  H13  1  0.61438092  0.09177896  0.74332465  1  0  0.094526  0  0.97208  0  0  0.102438  0  1.039969  0  0  0.106451  0  1.03655  0  0  0.110436  0.099371  0  1.042767  0
H  H14  1  0.88561841  0.90822180  0.24332512  1  0  0.094538  0  0.972041  0  0  0.102443  0  1.039932  0  0  0.106453  0  1.036516  0  0  0.11044  0.099377  0  1.042731  0
H  H15  1  0.38561862  0.90822119  0.25667521  1  0  0.094526  0  0.972071  0  0  0.10244  0  1.039953  0  0  0.106452  0  1.036534  0  0  0.110441  0.099373  0  1.04275  0
H  H16  1  0.03347171  0.85152676  0.80549846  1  0  0.104832  0  0.976883  0  0  0.111814  0  1.043391  0  0  0.114587  0  1.043272  0  0  0.103309  0.109588  0  1.043866  0
H  H17  1  0.53347155  0.85152740  0.69450225  1  0  0.104831  0  0.976881  0  0  0.111811  0  1.04339  0  0  0.114587  0  1.043266  0  0  0.103309  0.109584  0  1.043864  0
H  H18  1  0.96652779  0.14847238  0.19450220  1  0  0.104834  0  0.976876  0  0  0.111817  0  1.043382  0  0  0.114592  0  1.04326  0  0  0.103315  0.109592  0  1.043857  0
H  H19  1  0.46652799  0.14847276  0.30549841  1  0  0.104834  0  0.976882  0  0  0.111815  0  1.043391  0  0  0.114592  0  1.043263  0  0  0.103308  0.109588  0  1.043863  0
C  C20  1  0.13330239  0.76898507  0.65512521  1  0  -0.048271  0  3.674435  0  0  -0.035739  0  3.905867  0  0  -0.038943  0  3.925188  0  0  0.000743  -0.033193  0  3.892506  0
C  C21  1  0.63330202  0.76898459  0.84487390  1  0  -0.048429  0  3.674451  0  0  -0.03589  0  3.905905  0  0  -0.039095  0  3.925229  0  0  0.000683  -0.033347  0  3.89254  0
C  C22  1  0.86669570  0.23101508  0.34487465  1  0  -0.048303  0  3.674521  0  0  -0.035778  0  3.905958  0  0  -0.038987  0  3.925276  0  0  0.000737  -0.033228  0  3.8926  0
C  C23  1  0.36669743  0.23101352  0.15512516  1  0  -0.048386  0  3.674412  0  0  -0.035879  0  3.905854  0  0  -0.039102  0  3.925161  0  0  0.000686  -0.033328  0  3.892497  0
C  C24  1  0.21866844  0.79980319  0.55396386  1  0  -0.072967  0  3.692177  0  0  -0.055514  0  3.924165  0  0  -0.062854  0  3.945365  0  0  -0.006894  -0.051211  0  3.910629  0
C  C25  1  0.71866945  0.79980367  0.94603439  1  0  -0.072932  0  3.692153  0  0  -0.055514  0  3.924196  0  0  -0.06286  0  3.945406  0  0  -0.006903  -0.05119  0  3.910636  0
C  C26  1  0.78132965  0.20019696  0.44603599  1  0  -0.073001  0  3.692237  0  0  -0.055556  0  3.924265  0  0  -0.06288  0  3.945442  0  0  -0.006901  -0.051265  0  3.910744  0
C  C27  1  0.28133158  0.20019751  0.05396386  1  0  -0.073052  0  3.692283  0  0  -0.055551  0  3.924216  0  0  -0.062829  0  3.945334  0  0  -0.006928  -0.051262  0  3.910699  0
C  C28  1  0.25479025  0.93614529  0.52560103  1  0  -0.050523  0  3.672457  0  0  -0.087537  0  3.921859  0  0  -0.085281  0  3.940821  0  0  -0.067937  -0.089348  0  3.910539  0
C  C29  1  0.75479118  0.93614472  0.97439877  1  0  -0.050511  0  3.672442  0  0  -0.087508  0  3.921852  0  0  -0.085251  0  3.940813  0  0  -0.067934  -0.089327  0  3.910528  0
C  C30  1  0.74520784  0.06385487  0.47439883  1  0  -0.050505  0  3.672495  0  0  -0.087509  0  3.921898  0  0  -0.085259  0  3.940856  0  0  -0.067942  -0.089319  0  3.910581  0
C  C31  1  0.24520981  0.06385543  0.02560109  1  0  -0.050515  0  3.672466  0  0  -0.087529  0  3.921847  0  0  -0.085292  0  3.940794  0  0  -0.067928  -0.089337  0  3.910533  0
C  C32  1  0.21493631  0.04216082  0.59709677  1  0  -0.072037  0  3.745745  0  0  -0.046205  0  3.977751  0  0  -0.054644  0  4.000473  0  0  -0.012533  -0.041071  0  3.962694  0
C  C33  1  0.71493447  0.04216132  0.90290421  1  0  -0.072063  0  3.745722  0  0  -0.046237  0  3.977724  0  0  -0.054674  0  4.000445  0  0  -0.012553  -0.041103  0  3.962671  0
C  C34  1  0.78506464  0.95783831  0.40290390  1  0  -0.072082  0  3.745732  0  0  -0.046268  0  3.977748  0  0  -0.054707  0  4.000469  0  0  -0.012563  -0.041133  0  3.96269  0
C  C35  1  0.28506503  0.95783781  0.09709646  1  0  -0.072018  0  3.74567  0  0  -0.046207  0  3.977683  0  0  -0.054647  0  4.000409  0  0  -0.012548  -0.041074  0  3.962628  0
C  C36  1  0.13891502  0.01019753  0.69905038  1  0  -0.047567  0  3.70345  0  0  -0.073407  0  3.953202  0  0  -0.072016  0  3.971377  0  0  -0.067678  -0.073858  0  3.940749  0
C  C37  1  0.63891330  0.01019810  0.80095064  1  0  -0.04754  0  3.703429  0  0  -0.073379  0  3.95318  0  0  -0.071988  0  3.971355  0  0  -0.067649  -0.073827  0  3.940723  0
C  C38  1  0.86108597  0.98980262  0.30095028  1  0  -0.047575  0  3.703465  0  0  -0.073397  0  3.953208  0  0  -0.072004  0  3.971382  0  0  -0.067679  -0.073849  0  3.940756  0
C  C39  1  0.36108624  0.98980205  0.19905003  1  0  -0.047565  0  3.703441  0  0  -0.073401  0  3.953189  0  0  -0.072011  0  3.971366  0  0  -0.067679  -0.073849  0  3.940731  0
C  C40  1  0.09640746  0.87517948  0.72703301  1  0  -0.070574  0  3.708795  0  0  -0.093165  0  3.961287  0  0  -0.09606  0  3.982607  0  0  -0.080384  -0.091286  0  3.946994  0
C  C41  1  0.59640576  0.87518007  0.77296686  1  0  -0.070494  0  3.708648  0  0  -0.093079  0  3.961129  0  0  -0.095973  0  3.982447  0  0  -0.080344  -0.091197  0  3.946834  0
C  C42  1  0.90359353  0.12482067  0.27296765  1  0  -0.070545  0  3.708913  0  0  -0.093137  0  3.961397  0  0  -0.096033  0  3.982718  0  0  -0.08038  -0.091258  0  3.947104  0
C  C43  1  0.40359378  0.12482008  0.22703299  1  0  -0.070494  0  3.708702  0  0  -0.093082  0  3.961186  0  0  -0.095978  0  3.98251  0  0  -0.080332  -0.091199  0  3.946887  0
C  C44  1  0.05915783  0.62814857  0.68315323  1  0  0.711751  0  3.839021  0  0  0.658155  0  4.133826  0  0  0.694343  0  4.121968  0  0  0.225616  0.633611  0  4.140557  0
C  C45  1  0.55915754  0.62814913  0.81684757  1  0  0.711792  0  3.838961  0  0  0.658208  0  4.133751  0  0  0.694397  0  4.121891  0  0  0.225615  0.633663  0  4.140485  0
C  C46  1  0.94084026  0.37185158  0.31684824  1  0  0.711828  0  3.839024  0  0  0.658264  0  4.133771  0  0  0.694452  0  4.121911  0  0  0.225655  0.63372  0  4.140502  0
C  C47  1  0.44084196  0.37185000  0.18315229  1  0  0.711909  0  3.838953  0  0  0.658313  0  4.133743  0  0  0.6945  0  4.121887  0  0  0.22565  0.633768  0  4.140477  0
C  C48  1  0.28229679  0.69265639  0.47625602  1  0  0.696693  0  3.862223  0  0  0.643859  0  4.155565  0  0  0.679047  0  4.145981  0  0  0.222848  0.61986  0  4.161288  0
C  C49  1  0.78229828  0.69265714  0.02374202  1  0  0.696689  0  3.8621  0  0  0.643843  0  4.155464  0  0  0.679031  0  4.145877  0  0  0.222843  0.619839  0  4.161188  0
C  C50  1  0.71770275  0.30734377  0.52374384  1  0  0.696785  0  3.862076  0  0  0.643904  0  4.155494  0  0  0.679088  0  4.145907  0  0  0.222859  0.619909  0  4.161216  0
C  C51  1  0.21770270  0.30734301  0.97625542  1  0  0.696784  0  3.862154  0  0  0.643911  0  4.155518  0  0  0.679083  0  4.145932  0  0  0.22288  0.619918  0  4.161241  0
C  C52  1  0.25286654  0.18827605  0.56607797  1  0  0.669067  0  3.905506  0  0  0.620056  0  4.196348  0  0  0.653998  0  4.189338  0  0  0.214086  0.597577  0  4.199374  0
C  C53  1  0.75286611  0.18827653  0.93392374  1  0  0.669061  0  3.905522  0  0  0.620054  0  4.196358  0  0  0.653996  0  4.18935  0  0  0.21411  0.597577  0  4.199384  0
C  C54  1  0.74713585  0.81172308  0.43392269  1  0  0.669087  0  3.905544  0  0  0.620093  0  4.196366  0  0  0.654035  0  4.189356  0  0  0.214126  0.597613  0  4.199392  0
C  C55  1  0.24713483  0.81172260  0.06607773  1  0  0.669072  0  3.905479  0  0  0.620091  0  4.196288  0  0  0.654033  0  4.189278  0  0  0.214115  0.597613  0  4.199315  0
O  O56  1  0.08808290  0.57690974  0.77634183  1  0  -0.70715  0  2.091806  0  0  -0.643339  0  2.38281  0  0  -0.670055  0  2.361783  0  0  -0.366541  -0.624134  0  2.396894  0
O  O57  1  0.58807982  0.57691036  0.72365817  1  0  -0.707168  0  2.091779  0  0  -0.643355  0  2.382772  0  0  -0.670073  0  2.361745  0  0  -0.366533  -0.624146  0  2.396852  0
O  O58  1  0.91191664  0.42309041  0.22365964  1  0  -0.707152  0  2.091801  0  0  -0.643378  0  2.382843  0  0  -0.670094  0  2.361816  0  0  -0.366568  -0.624172  0  2.396926  0
O  O59  1  0.41192117  0.42308979  0.27634088  1  0  -0.707197  0  2.091806  0  0  -0.643396  0  2.382808  0  0  -0.670113  0  2.361782  0  0  -0.366541  -0.624186  0  2.39689  0
O  O60  1  0.96038711  0.56266449  0.61272330  1  0  -0.666001  0  2.080032  0  0  -0.604128  0  2.356666  0  0  -0.631393  0  2.340512  0  0  -0.331897  -0.585124  0  2.366155  0
O  O61  1  0.46038572  0.56266379  0.88727577  1  0  -0.665992  0  2.080006  0  0  -0.604136  0  2.356651  0  0  -0.6314  0  2.340497  0  0  -0.331898  -0.585133  0  2.366144  0
O  O62  1  0.03961106  0.43733771  0.38727736  1  0  -0.666035  0  2.079984  0  0  -0.604172  0  2.356604  0  0  -0.631436  0  2.340449  0  0  -0.331895  -0.585169  0  2.366093  0
O  O63  1  0.53961378  0.43733534  0.11272409  1  0  -0.666104  0  2.080094  0  0  -0.604195  0  2.356696  0  0  -0.63146  0  2.340544  0  0  -0.331903  -0.585191  0  2.366189  0
O  O64  1  0.34439579  0.58007901  0.51826976  1  0  -0.698766  0  2.119077  0  0  -0.616729  0  2.407087  0  0  -0.647062  0  2.386915  0  0  -0.309918  -0.595232  0  2.421304  0
O  O65  1  0.84439382  0.58007844  0.98172934  1  0  -0.698732  0  2.119027  0  0  -0.616673  0  2.407042  0  0  -0.647  0  2.386862  0  0  -0.309874  -0.595178  0  2.421263  0
O  O66  1  0.65560669  0.41992217  0.48173010  1  0  -0.698798  0  2.118989  0  0  -0.616724  0  2.407009  0  0  -0.647054  0  2.386834  0  0  -0.309913  -0.595228  0  2.421225  0
O  O67  1  0.15560427  0.41992172  0.01826890  1  0  -0.698797  0  2.119044  0  0  -0.616745  0  2.407077  0  0  -0.647078  0  2.38691  0  0  -0.309913  -0.595248  0  2.421296  0
O  O68  1  0.28146318  0.71679537  0.37695112  1  0  -0.703323  0  1.973114  0  0  -0.664038  0  2.224875  0  0  -0.685062  0  2.211596  0  0  -0.404421  -0.649166  0  2.23362  0
O  O69  1  0.78146153  0.71679299  0.12304933  1  0  -0.703351  0  1.97305  0  0  -0.664074  0  2.224854  0  0  -0.685099  0  2.211572  0  0  -0.404457  -0.649201  0  2.233603  0
O  O70  1  0.71853487  0.28320377  0.62304954  1  0  -0.703358  0  1.97308  0  0  -0.664055  0  2.224869  0  0  -0.685082  0  2.211593  0  0  -0.404428  -0.649183  0  2.233613  0
O  O71  1  0.21853643  0.28320410  0.87695053  1  0  -0.703349  0  1.973119  0  0  -0.664051  0  2.224897  0  0  -0.685077  0  2.211627  0  0  -0.404429  -0.649177  0  2.23364  0
O  O72  1  0.31016239  0.21146548  0.46865854  1  0  -0.6565  0  2.073701  0  0  -0.582491  0  2.343739  0  0  -0.614211  0  2.333187  0  0  -0.311058  -0.559142  0  2.349974  0
O  O73  1  0.81016097  0.21146623  0.03134291  1  0  -0.6565  0  2.073757  0  0  -0.582482  0  2.343766  0  0  -0.614201  0  2.333215  0  0  -0.311077  -0.559134  0  2.350003  0
O  O74  1  0.68984295  0.78853468  0.53134212  1  0  -0.656473  0  2.07373  0  0  -0.582467  0  2.34375  0  0  -0.614186  0  2.333197  0  0  -0.311071  -0.559119  0  2.349983  0
O  O75  1  0.18983861  0.78853495  0.96865857  1  0  -0.656516  0  2.073687  0  0  -0.582527  0  2.343723  0  0  -0.614246  0  2.333171  0  0  -0.311072  -0.559178  0  2.349961  0
O  O76  1  0.22868945  0.28175590  0.63439313  1  0  -0.725061  0  1.957411  0  0  -0.682678  0  2.210633  0  0  -0.702962  0  2.195673  0  0  -0.442198  -0.66831  0  2.219847  0
O  O77  1  0.72868914  0.28175745  0.86560774  1  0  -0.725073  0  1.95738  0  0  -0.682693  0  2.210603  0  0  -0.702977  0  2.195642  0  0  -0.4422  -0.668323  0  2.219816  0
O  O78  1  0.77131295  0.71824324  0.36560672  1  0  -0.7251  0  1.95741  0  0  -0.682725  0  2.210628  0  0  -0.703008  0  2.195666  0  0  -0.442223  -0.668357  0  2.219843  0
O  O79  1  0.27131036  0.71824169  0.13439373  1  0  -0.725069  0  1.957424  0  0  -0.682699  0  2.210642  0  0  -0.702982  0  2.19568  0  0  -0.44221  -0.66833  0  2.219855  0
