# generated using pymatgen
data_CaCdH12(C4O3)4
_symmetry_space_group_name_H-M   'P 1'
_cell_length_a   14.07252042
_cell_length_b   15.73169897
_cell_length_c   15.73171392
_cell_angle_alpha   78.46013030
_cell_angle_beta   63.43019167
_cell_angle_gamma   63.42988781
_symmetry_Int_Tables_number   1
_chemical_formula_structural   CaCdH12(C4O3)4
_chemical_formula_sum   'Ca4 Cd4 H48 C64 O48'
_cell_volume   2785.96931044
_cell_formula_units_Z   4
loop_
 _symmetry_equiv_pos_site_id
 _symmetry_equiv_pos_as_xyz
  1  'x, y, z'
loop_
 _atom_site_type_symbol
 _atom_site_label
 _atom_site_symmetry_multiplicity
 _atom_site_fract_x
 _atom_site_fract_y
 _atom_site_fract_z
 _atom_site_occupancy
 _atom_site_pbe_bader_charge
 _atom_site_pbe_bader_spin_density
 _atom_site_pbe_cm5_charge
 _atom_site_pbe_ddec_charge
 _atom_site_pbe_ddec_spin_density
 _atom_site_pbe_ddec_sum_bond_order
 _atom_site_pbe_magmom
Ca  Ca0  1  0.04369847  0.41266372  0.99996563  1  1.658472  0  0.901129  1.446064  0  1.479744  0
Ca  Ca1  1  0.45639341  0.58722895  0.00002592  1  1.65803  0  0.900934  1.445548  0  1.479336  0
Ca  Ca2  1  0.95639460  0.00002267  0.58722912  1  1.658032  0  0.900908  1.445512  0  1.479386  0
Ca  Ca3  1  0.54370055  0.99996533  0.41266265  1  1.658416  0  0.901157  1.446139  0  1.479665  0
Cd  Cd4  1  0.26723442  0.50002718  0.96556101  1  1.303842  0  0.801524  0.971237  0  2.055652  0
Cd  Cd5  1  0.73286162  0.49997712  0.03441835  1  1.295096  0  0.801285  0.97158  0  2.054005  0
Cd  Cd6  1  0.76723402  0.96556326  0.50002572  1  1.303835  0  0.801515  0.97126  0  2.055678  0
Cd  Cd7  1  0.23286446  0.03441758  0.49997622  1  1.295055  0  0.801273  0.971563  0  2.053973  0
H  H8  1  0.12238454  0.26625578  0.64571719  1  0.651919  0  0.298113  0.356855  0  0.985586  0
H  H9  1  0.03432269  0.73372490  0.35437078  1  0.644605  0  0.297623  0.355641  0  0.986323  0
H  H10  1  0.23188068  0.64584825  0.73380847  1  0.652834  0  0.297516  0.355304  0  0.987006  0
H  H11  1  0.61149192  0.35438285  0.26596762  1  0.64692  0  0.297752  0.3553  0  0.988264  0
H  H12  1  0.62238487  0.64571899  0.26625533  1  0.65183  0  0.298135  0.356916  0  0.985494  0
H  H13  1  0.53432315  0.35437477  0.73372654  1  0.644701  0  0.297621  0.355676  0  0.986382  0
H  H14  1  0.73188560  0.73380313  0.64584864  1  0.652898  0  0.297524  0.35528  0  0.987105  0
H  H15  1  0.11149382  0.26596600  0.35438169  1  0.646952  0  0.297762  0.355299  0  0.988248  0
H  H16  1  0.13363943  0.27150468  0.13495983  1  0.622323  0  0.32004  0.399069  0  0.904859  0
H  H17  1  0.54015395  0.72839762  0.86499826  1  0.605288  0  0.320395  0.399356  0  0.904335  0
H  H18  1  0.73127771  0.13501404  0.72839305  1  0.613762  0  0.32068  0.401026  0  0.902056  0
H  H19  1  0.59462802  0.86512425  0.27150144  1  0.599044  0  0.320351  0.399479  0  0.904138  0
H  H20  1  0.63363818  0.13495853  0.27150421  1  0.622476  0  0.320067  0.399118  0  0.904788  0
H  H21  1  0.04015472  0.86499635  0.72839760  1  0.605256  0  0.320416  0.399387  0  0.904311  0
H  H22  1  0.23127814  0.72839285  0.13501268  1  0.613774  0  0.320674  0.401008  0  0.90207  0
H  H23  1  0.09462924  0.27150086  0.86512464  1  0.599047  0  0.320357  0.399485  0  0.90413  0
H  H24  1  0.22001467  0.32129875  0.08325302  1  0.65709  0  0.302204  0.405946  0  0.922763  0
H  H25  1  0.62460548  0.67865514  0.91673364  1  0.657481  0  0.302017  0.405408  0  0.923052  0
H  H26  1  0.69671276  0.08328632  0.67851478  1  0.666162  0  0.302331  0.404981  0  0.923423  0
H  H27  1  0.45845983  0.91683163  0.32133940  1  0.663322  0  0.302509  0.406274  0  0.922031  0
H  H28  1  0.72001585  0.08325161  0.32129624  1  0.657116  0  0.30224  0.406006  0  0.922676  0
H  H29  1  0.12460572  0.91673285  0.67865577  1  0.657497  0  0.302015  0.405378  0  0.923087  0
H  H30  1  0.19671271  0.67851511  0.08328514  1  0.666161  0  0.302329  0.40498  0  0.923425  0
H  H31  1  0.95846127  0.32133916  0.91683128  1  0.663339  0  0.30254  0.406314  0  0.921977  0
H  H32  1  0.14505417  0.40992853  0.77558720  1  0.139594  0  0.118223  0.123483  0  1.021603  0
H  H33  1  0.33052105  0.58992611  0.22466453  1  0.109876  0  0.118243  0.123258  0  1.020811  0
H  H34  1  0.07932177  0.77559288  0.59015363  1  0.112215  0  0.117717  0.121813  0  1.022493  0
H  H35  1  0.44522406  0.22453468  0.40975150  1  0.11291  0  0.118106  0.123145  0  1.021949  0
H  H36  1  0.64505847  0.77558760  0.40992719  1  0.139635  0  0.118211  0.123438  0  1.021589  0
H  H37  1  0.83051731  0.22466584  0.58992917  1  0.109812  0  0.118213  0.123271  0  1.020825  0
H  H38  1  0.57932181  0.59015404  0.77559532  1  0.112415  0  0.117719  0.121818  0  1.022526  0
H  H39  1  0.94522077  0.40975330  0.22453805  1  0.113113  0  0.118101  0.123144  0  1.021969  0
H  H40  1  0.32704478  0.16989387  0.58813666  1  0.113503  0  0.114226  0.129962  0  1.024141  0
H  H41  1  0.08502232  0.83028006  0.41168303  1  0.104704  0  0.114162  0.129949  0  1.022604  0
H  H42  1  0.08480460  0.58820824  0.83022041  1  0.090555  0  0.11375  0.128528  0  1.022903  0
H  H43  1  0.50306503  0.41192199  0.16962310  1  0.108731  0  0.114119  0.129543  0  1.023064  0
H  H44  1  0.82704506  0.58813707  0.16989702  1  0.113541  0  0.114198  0.129881  0  1.024155  0
H  H45  1  0.58502671  0.41168799  0.83027845  1  0.104553  0  0.114129  0.129933  0  1.022636  0
H  H46  1  0.58481325  0.83021627  0.58820599  1  0.090406  0  0.113776  0.128555  0  1.02285  0
H  H47  1  0.00306586  0.16962186  0.41192237  1  0.108614  0  0.114112  0.129516  0  1.02304  0
H  H48  1  0.50484513  0.22616781  0.71885734  1  0.087112  0  0.104849  0.106242  0  1.044894  0
H  H49  1  0.44987943  0.77385631  0.28102550  1  0.120686  0  0.105476  0.107451  0  1.042379  0
H  H50  1  0.77616910  0.71903587  0.77408658  1  0.092153  0  0.105859  0.108299  0  1.041729  0
H  H51  1  0.26914688  0.28095357  0.22610029  1  0.109617  0  0.105604  0.108031  0  1.042472  0
H  H52  1  0.00484542  0.71885797  0.22616751  1  0.087086  0  0.104829  0.10621  0  1.044913  0
H  H53  1  0.94988450  0.28102401  0.77385363  1  0.120634  0  0.105502  0.107488  0  1.042464  0
H  H54  1  0.27617123  0.77408897  0.71903471  1  0.092186  0  0.105856  0.108287  0  1.041729  0
H  H55  1  0.76914935  0.22609876  0.28095418  1  0.109594  0  0.105611  0.108048  0  1.042482  0
C  C56  1  0.31841035  0.37978063  0.82446601  1  1.529131  0  0.227377  0.61282  0  4.136976  0
C  C57  1  0.52264227  0.62022449  0.17550934  1  1.522863  0  0.227553  0.614473  0  4.134969  0
C  C58  1  0.85703215  0.82455741  0.62041428  1  1.534741  0  0.225705  0.609484  0  4.136328  0
C  C59  1  0.30204704  0.17543824  0.37968377  1  1.547365  0  0.227669  0.613149  0  4.133095  0
C  C60  1  0.81841431  0.82446656  0.37978035  1  1.529045  0  0.227384  0.612864  0  4.136939  0
C  C61  1  0.02264223  0.17551013  0.62022332  1  1.522904  0  0.227545  0.614426  0  4.134894  0
C  C62  1  0.35703262  0.62041468  0.82456164  1  1.534802  0  0.225592  0.60934  0  4.136305  0
C  C63  1  0.80204264  0.37968473  0.17544170  1  1.547941  0  0.227658  0.613204  0  4.133225  0
C  C64  1  0.53549043  0.10798271  0.59541016  1  1.557159  0  0.227374  0.620924  0  4.140643  0
C  C65  1  0.23896124  0.89208661  0.40446441  1  1.558913  0  0.228998  0.625277  0  4.139108  0
C  C66  1  0.86898875  0.59547731  0.89212467  1  1.561817  0  0.227754  0.62325  0  4.138329  0
C  C67  1  0.35642232  0.40449111  0.10787054  1  1.567011  0  0.228153  0.624019  0  4.141857  0
C  C68  1  0.03549040  0.59541289  0.10798144  1  1.556905  0  0.227268  0.620768  0  4.140842  0
C  C69  1  0.73896856  0.40446169  0.89208549  1  1.559835  0  0.228968  0.625245  0  4.138925  0
C  C70  1  0.36899539  0.89212263  0.59547569  1  1.561878  0  0.227693  0.623099  0  4.138315  0
C  C71  1  0.85642597  0.10786924  0.40449067  1  1.566981  0  0.228218  0.624161  0  4.141761  0
C  C72  1  0.32437711  0.32313481  0.75555893  1  -0.030076  0  -0.015666  -0.026195  0  4.028807  0
C  C73  1  0.40305298  0.67685202  0.24442189  1  -0.032893  0  -0.015942  -0.026729  0  4.027795  0
C  C74  1  0.91996883  0.75567643  0.67708800  1  -0.082573  0  -0.015835  -0.02394  0  4.028594  0
C  C75  1  0.35272936  0.24434676  0.32298064  1  -0.038387  0  -0.016026  -0.026815  0  4.028301  0
C  C76  1  0.82437888  0.75556026  0.32313508  1  -0.029606  0  -0.01562  -0.026068  0  4.028656  0
C  C77  1  0.90305460  0.24442168  0.67685215  1  -0.03294  0  -0.01593  -0.026675  0  4.027858  0
C  C78  1  0.41996952  0.67708588  0.75567787  1  -0.082717  0  -0.015785  -0.023888  0  4.028361  0
C  C79  1  0.85273047  0.32298279  0.24434757  1  -0.03829  0  -0.01607  -0.02682  0  4.028354  0
C  C80  1  0.22391824  0.34741774  0.74137636  1  -0.044405  0  -0.088511  -0.227186  0  3.940409  0
C  C81  1  0.31269563  0.65251919  0.25871714  1  0.014685  0  -0.089184  -0.227737  0  3.940852  0
C  C82  1  0.03462590  0.74146954  0.65273465  1  0.002815  0  -0.088453  -0.226407  0  3.941908  0
C  C83  1  0.42890159  0.25861340  0.34720325  1  -0.041139  0  -0.087517  -0.225108  0  3.93958  0
C  C84  1  0.72392092  0.74137805  0.34741531  1  -0.044862  0  -0.088569  -0.227226  0  3.940451  0
C  C85  1  0.81269537  0.25871959  0.65252092  1  0.014745  0  -0.089191  -0.227859  0  3.941025  0
C  C86  1  0.53462853  0.65273368  0.74147235  1  0.002459  0  -0.088443  -0.22641  0  3.941792  0
C  C87  1  0.92890352  0.34720295  0.25861407  1  -0.04139  0  -0.087454  -0.225026  0  3.939677  0
C  C88  1  0.22327066  0.29201084  0.68213759  1  0.529333  0  0.08358  0.321511  0  4.117253  0
C  C89  1  0.19740558  0.70796256  0.31790430  1  0.444174  0  0.082903  0.320353  0  4.112436  0
C  C90  1  0.09455865  0.68222020  0.70809820  1  0.509172  0  0.082773  0.319551  0  4.118112  0
C  C91  1  0.48488000  0.31789309  0.29174798  1  0.469883  0  0.08427  0.322  0  4.113511  0
C  C92  1  0.72327238  0.68213828  0.29201048  1  0.5293  0  0.083534  0.321353  0  4.117388  0
C  C93  1  0.69740611  0.31790769  0.70796281  1  0.444712  0  0.082921  0.320433  0  4.1124  0
C  C94  1  0.59456545  0.70809157  0.68221990  1  0.50947  0  0.082695  0.319548  0  4.118171  0
C  C95  1  0.98488076  0.29174890  0.31789431  1  0.469918  0  0.084259  0.321893  0  4.113797  0
C  C96  1  0.32558166  0.21308356  0.63528442  1  -0.022285  0  -0.089569  -0.220484  0  3.901863  0
C  C97  1  0.17393091  0.78698893  0.36463536  1  0.009057  0  -0.089435  -0.219345  0  3.898887  0
C  C98  1  0.03907624  0.63539661  0.78706946  1  -0.004044  0  -0.089501  -0.217723  0  3.898787  0
C  C99  1  0.46144195  0.36469577  0.21281631  1  0.027473  0  -0.090104  -0.220568  0  3.897374  0
C  C100  1  0.82558367  0.63528542  0.21308401  1  -0.022225  0  -0.089531  -0.220331  0  3.901802  0
C  C101  1  0.67393345  0.36463720  0.78698842  1  0.008771  0  -0.089433  -0.219313  0  3.899091  0
C  C102  1  0.53908350  0.78706323  0.63539658  1  -0.003975  0  -0.089397  -0.2177  0  3.898839  0
C  C103  1  0.96144450  0.21281531  0.36469428  1  0.027725  0  -0.090113  -0.220513  0  3.897374  0
C  C104  1  0.42644594  0.19009696  0.64860807  1  -0.072656  0  -0.014382  -0.010663  0  3.997  0
C  C105  1  0.26513205  0.80998703  0.35127183  1  0.023383  0  -0.01435  -0.014334  0  3.996701  0
C  C106  1  0.92487529  0.64873143  0.81009182  1  -0.061841  0  -0.014032  -0.013131  0  3.998252  0
C  C107  1  0.38356135  0.35129338  0.18991009  1  -0.064749  0  -0.015036  -0.013845  0  3.997548  0
C  C108  1  0.92644706  0.64860908  0.19009673  1  -0.07269  0  -0.014356  -0.010667  0  3.997047  0
C  C109  1  0.76513521  0.35127315  0.80998539  1  0.023398  0  -0.014361  -0.01443  0  3.996956  0
C  C110  1  0.42488115  0.81008852  0.64872882  1  -0.061814  0  -0.013993  -0.013004  0  3.998107  0
C  C111  1  0.88356349  0.18991000  0.35129315  1  -0.064962  0  -0.015042  -0.013893  0  3.997578  0
C  C112  1  0.42627407  0.24461406  0.70895350  1  0.025611  0  -0.085815  -0.127975  0  3.942588  0
C  C113  1  0.37984341  0.75540505  0.29097181  1  -0.069252  0  -0.085337  -0.126701  0  3.938437  0
C  C114  1  0.86465215  0.70910940  0.75562198  1  0.060091  0  -0.086593  -0.130145  0  3.943265  0
C  C115  1  0.32927828  0.29092130  0.24447987  1  0.006352  0  -0.086565  -0.129432  0  3.942098  0
C  C116  1  0.92627546  0.70895331  0.24461526  1  0.025582  0  -0.085828  -0.127999  0  3.942592  0
C  C117  1  0.87984666  0.29096995  0.75540515  1  -0.069343  0  -0.085317  -0.126664  0  3.938525  0
C  C118  1  0.36465657  0.75562046  0.70911021  1  0.060104  0  -0.086656  -0.130216  0  3.94326  0
C  C119  1  0.82927776  0.24448131  0.29092111  1  0.006304  0  -0.086604  -0.129511  0  3.942138  0
O  O120  1  0.21679078  0.42483317  0.88992114  1  -1.211783  0  -0.380032  -0.645644  0  2.3367  0
O  O121  1  0.53150823  0.57514625  0.11009035  1  -1.198425  0  -0.379935  -0.64542  0  2.336222  0
O  O122  1  0.89326873  0.88994389  0.57524335  1  -1.203863  0  -0.379741  -0.644458  0  2.33473  0
O  O123  1  0.35852505  0.11009167  0.42485562  1  -1.201507  0  -0.380529  -0.646001  0  2.334884  0
O  O124  1  0.71679341  0.88992009  0.42483437  1  -1.211702  0  -0.380039  -0.645731  0  2.336762  0
O  O125  1  0.03150862  0.11009203  0.57514537  1  -1.198409  0  -0.379908  -0.645419  0  2.336321  0
O  O126  1  0.39327353  0.57524143  0.88994487  1  -1.203956  0  -0.379675  -0.644335  0  2.33468  0
O  O127  1  0.85852522  0.42485241  0.11009278  1  -1.201414  0  -0.380528  -0.646  0  2.334868  0
O  O128  1  0.40734900  0.38414812  0.82164764  1  -1.168324  0  -0.299275  -0.534606  0  2.205535  0
O  O129  1  0.61312092  0.61600016  0.17823796  1  -1.165258  0  -0.299257  -0.535845  0  2.205849  0
O  O130  1  0.77083645  0.82177119  0.61612359  1  -1.162713  0  -0.297029  -0.531864  0  2.207529  0
O  O131  1  0.20882109  0.17813958  0.38396320  1  -1.163816  0  -0.298348  -0.53356  0  2.205742  0
O  O132  1  0.90735307  0.82164805  0.38414706  1  -1.168358  0  -0.299274  -0.534601  0  2.205606  0
O  O133  1  0.11312789  0.17823798  0.61599290  1  -1.165304  0  -0.299269  -0.535784  0  2.205605  0
O  O134  1  0.27083763  0.61612601  0.82177313  1  -1.162544  0  -0.297009  -0.531857  0  2.207525  0
O  O135  1  0.70881998  0.38396457  0.17814270  1  -1.164412  0  -0.298339  -0.533601  0  2.20592  0
O  O136  1  0.62292915  0.07660351  0.61754242  1  -1.168377  0  -0.310197  -0.560891  0  2.247514  0
O  O137  1  0.31726637  0.92334264  0.38233186  1  -1.159429  0  -0.311813  -0.563864  0  2.245632  0
O  O138  1  0.75941229  0.61763768  0.92338194  1  -1.161537  0  -0.310748  -0.563166  0  2.245378  0
O  O139  1  0.30029238  0.38230963  0.07661866  1  -1.164676  0  -0.310586  -0.562363  0  2.24842  0
O  O140  1  0.12292896  0.61754459  0.07660214  1  -1.168402  0  -0.31014  -0.560795  0  2.247541  0
O  O141  1  0.81727127  0.38233191  0.92334371  1  -1.159298  0  -0.311857  -0.563907  0  2.245606  0
O  O142  1  0.25942028  0.92338082  0.61763538  1  -1.161407  0  -0.310685  -0.563099  0  2.245384  0
O  O143  1  0.80029259  0.07661908  0.38231062  1  -1.164583  0  -0.310647  -0.562462  0  2.248439  0
O  O144  1  0.54023618  0.07138689  0.52783693  1  -1.225061  0  -0.384924  -0.650214  0  2.275738  0
O  O145  1  0.13959308  0.92872569  0.47208301  1  -1.231432  0  -0.384865  -0.650509  0  2.27568  0
O  O146  1  0.93173555  0.52782150  0.92872417  1  -1.237342  0  -0.384181  -0.648977  0  2.275824  0
O  O147  1  0.38811300  0.47215411  0.07123596  1  -1.226582  0  -0.384851  -0.650676  0  2.27733  0
O  O148  1  0.04023633  0.52783858  0.07138651  1  -1.224787  0  -0.384874  -0.65013  0  2.275781  0
O  O149  1  0.63959790  0.47207785  0.92872799  1  -1.232512  0  -0.384799  -0.650449  0  2.275558  0
O  O150  1  0.43174408  0.92872040  0.52781643  1  -1.237509  0  -0.384247  -0.648999  0  2.275786  0
O  O151  1  0.88811403  0.07123460  0.47215391  1  -1.226579  0  -0.384835  -0.650686  0  2.277311  0
O  O152  1  0.12216250  0.31834280  0.67415818  1  -1.175473  0  -0.365811  -0.470275  0  2.302482  0
O  O153  1  0.11463010  0.68161614  0.32596792  1  -1.172929  0  -0.365481  -0.468741  0  2.299311  0
O  O154  1  0.20365427  0.67422583  0.68171629  1  -1.178253  0  -0.364973  -0.468598  0  2.304174  0
O  O155  1  0.55952796  0.32604833  0.31810699  1  -1.172325  0  -0.366148  -0.469254  0  2.30305  0
O  O156  1  0.62216408  0.67415922  0.31834303  1  -1.175348  0  -0.365756  -0.470201  0  2.30246  0
O  O157  1  0.61462789  0.32597464  0.68161786  1  -1.17297  0  -0.365455  -0.468777  0  2.299288  0
O  O158  1  0.70366066  0.68171109  0.67422676  1  -1.178381  0  -0.365002  -0.468599  0  2.304266  0
O  O159  1  0.05952994  0.31810537  0.32604792  1  -1.172397  0  -0.366116  -0.469176  0  2.303229  0
O  O160  1  0.16825904  0.29982021  0.07460609  1  -1.280473  0  -0.613328  -0.811349  0  1.920601  0
O  O161  1  0.54274313  0.70010217  0.92535599  1  -1.262088  0  -0.613328  -0.810656  0  1.920148  0
O  O162  1  0.75711128  0.07468734  0.69997907  1  -1.280304  0  -0.613657  -0.812353  0  1.917443  0
O  O163  1  0.53170253  0.92546071  0.29987980  1  -1.262606  0  -0.61396  -0.811902  0  1.920019  0
O  O164  1  0.66826126  0.07460426  0.29981790  1  -1.280662  0  -0.613392  -0.811454  0  1.920463  0
O  O165  1  0.04274349  0.92535508  0.70010286  1  -1.262061  0  -0.613327  -0.810622  0  1.920201  0
O  O166  1  0.25711118  0.69997923  0.07468718  1  -1.280329  0  -0.613656  -0.812347  0  1.917463  0
O  O167  1  0.03170318  0.29987946  0.92546060  1  -1.262626  0  -0.613994  -0.811934  0  1.920044  0
