# generated using pymatgen
data_AgP2H13C10(NO4)2
_symmetry_space_group_name_H-M   'P 1'
_cell_length_a   8.04731385
_cell_length_b   10.32387358
_cell_length_c   10.62755928
_cell_angle_alpha   63.91642835
_cell_angle_beta   66.43311362
_cell_angle_gamma   74.99620945
_symmetry_Int_Tables_number   1
_chemical_formula_structural   AgP2H13C10(NO4)2
_chemical_formula_sum   'Ag2 P4 H26 C20 N4 O16'
_cell_volume   723.15502803
_cell_formula_units_Z   2
loop_
 _symmetry_equiv_pos_site_id
 _symmetry_equiv_pos_as_xyz
  1  'x, y, z'
loop_
 _atom_site_type_symbol
 _atom_site_label
 _atom_site_symmetry_multiplicity
 _atom_site_fract_x
 _atom_site_fract_y
 _atom_site_fract_z
 _atom_site_occupancy
 _atom_site_pbe_bader_spin_density
 _atom_site_pbe_cm5_charge
 _atom_site_pbe_ddec_charge
 _atom_site_pbe_ddec_spin_density
 _atom_site_pbe_ddec_sum_bond_order
 _atom_site_pbe_magmom
Ag  Ag0  1  0.83761503  0.93749897  0.01042267  1  0  0.487404  0.352509  0  1.922853  0
Ag  Ag1  1  0.16238265  0.06250321  0.98957796  1  0  0.487395  0.352539  0  1.922863  0
P  P2  1  0.06615679  0.10435567  0.59148740  1  0  0.440023  1.540089  0  5.372902  0
P  P3  1  0.93384414  0.89564214  0.40851974  1  0  0.440073  1.540145  0  5.372473  0
P  P4  1  0.52685113  0.30014601  0.50101145  1  0  0.457915  1.545486  0  5.337105  0
P  P5  1  0.47315566  0.69985101  0.49898114  1  0  0.458082  1.545793  0  5.336525  0
H  H6  1  0.60633754  0.14821290  0.82102851  1  0  0.116033  0.098611  0  1.021764  0
H  H7  1  0.39366168  0.85178823  0.17897117  1  0  0.116036  0.098621  0  1.021735  0
H  H8  1  0.37324371  0.35454858  0.82200426  1  0  0.110162  0.121285  0  1.032771  0
H  H9  1  0.62675571  0.64545150  0.17799391  1  0  0.110117  0.121298  0  1.032678  0
H  H10  1  0.40469309  0.30028625  0.24126630  1  0  0.115301  0.132674  0  1.014966  0
H  H11  1  0.59530414  0.69971922  0.75873027  1  0  0.11528  0.132662  0  1.015013  0
H  H12  1  0.63116711  0.09190886  0.22526213  1  0  0.120419  0.104537  0  1.0091  0
H  H13  1  0.36883158  0.90809551  0.77473730  1  0  0.120387  0.10454  0  1.009058  0
H  H14  1  0.24801384  0.55398371  0.80149707  1  0  0.110825  0.113907  0  1.033264  0
H  H15  1  0.75198521  0.44601850  0.19850220  1  0  0.110828  0.113882  0  1.033295  0
H  H16  1  0.95821237  0.22372408  0.19616390  1  0  0.118156  0.095685  0  1.005705  0
H  H17  1  0.04178918  0.77627924  0.80383607  1  0  0.11815  0.095677  0  1.005686  0
H  H18  1  0.81190706  0.54506635  0.74225778  1  0  0.113299  0.13507  0  1.012259  0
H  H19  1  0.18808579  0.45493254  0.25774186  1  0  0.113278  0.135059  0  1.012297  0
H  H20  1  0.00783335  0.31347783  0.76285390  1  0  0.120817  0.104934  0  1.008868  0
H  H21  1  0.99216602  0.68652221  0.23714713  1  0  0.120843  0.104964  0  1.00884  0
H  H22  1  0.87527163  0.29281058  0.50249775  1  0  0.306367  0.410456  0  0.923459  0
H  H23  1  0.12473371  0.70718633  0.49750000  1  0  0.306349  0.410375  0  0.92358  0
H  H24  1  0.84568995  0.99335573  0.62200253  1  0  0.307323  0.397756  0  0.944032  0
H  H25  1  0.15431229  0.00664207  0.37800611  1  0  0.307303  0.397786  0  0.943988  0
H  H26  1  0.28637773  0.17792032  0.66943768  1  0  0.301395  0.405888  0  0.942463  0
H  H27  1  0.71362682  0.82208085  0.33056419  1  0  0.30136  0.405831  0  0.942542  0
H  H28  1  0.68040885  0.09796870  0.45845874  1  0  0.307452  0.40912  0  0.931398  0
H  H29  1  0.31959272  0.90202596  0.54154294  1  0  0.307501  0.409156  0  0.931359  0
H  H30  1  0.37524492  0.51382987  0.43526442  1  0  0.310096  0.404242  0  0.931336  0
H  H31  1  0.62476171  0.48616823  0.56472777  1  0  0.31005  0.404196  0  0.931393  0
C  C32  1  0.55729711  0.18490973  0.91250696  1  0  0.037074  0.073175  0  3.949925  0
C  C33  1  0.44269978  0.81508922  0.08749242  1  0  0.037074  0.073167  0  3.949989  0
C  C34  1  0.42622937  0.30236364  0.91401944  1  0  -0.084441  -0.169364  0  3.960671  0
C  C35  1  0.57376987  0.69763750  0.08597929  1  0  -0.084375  -0.169299  0  3.960621  0
C  C36  1  0.36808392  0.35102244  0.03078009  1  0  0.013212  0.099022  0  3.952465  0
C  C37  1  0.63190839  0.64897967  0.96922025  1  0  0.013181  0.098942  0  3.952608  0
C  C38  1  0.44167582  0.27125468  0.14604767  1  0  -0.073316  -0.144013  0  3.885854  0
C  C39  1  0.55831957  0.72874534  0.85395076  1  0  -0.073276  -0.14387  0  3.885681  0
C  C40  1  0.57067080  0.15369714  0.13804157  1  0  0.045012  0.09553  0  3.895036  0
C  C41  1  0.42932910  0.84630835  0.86195610  1  0  0.045092  0.09554  0  3.89484  0
C  C42  1  0.24030026  0.48298158  0.02935236  1  0  0.01428  0.100561  0  3.963961  0
C  C43  1  0.75969456  0.51702165  0.97064772  1  0  0.014222  0.100389  0  3.9641  0
C  C44  1  0.19401402  0.57629338  0.90217970  1  0  -0.07634  -0.154449  0  3.937099  0
C  C45  1  0.80598351  0.42370989  0.09781958  1  0  -0.076346  -0.154407  0  3.937119  0
C  C46  1  0.92076818  0.29770466  0.09846455  1  0  0.04551  0.082988  0  3.941152  0
C  C47  1  0.07922967  0.70229643  0.90153649  1  0  0.045527  0.082991  0  3.941133  0
C  C48  1  0.83663209  0.47721232  0.84675471  1  0  -0.072663  -0.14905  0  3.88985  0
C  C49  1  0.16336220  0.52278545  0.15324874  1  0  -0.072656  -0.149119  0  3.8898  0
C  C50  1  0.94919039  0.34874161  0.85587799  1  0  0.041843  0.084886  0  3.908017  0
C  C51  1  0.05080357  0.65125833  0.14412466  1  0  0.041855  0.084891  0  3.907904  0
N  N52  1  0.63095509  0.11202433  0.02194279  1  0  -0.352838  -0.189543  0  3.628147  0
N  N53  1  0.36904276  0.88797676  0.97805824  1  0  -0.352858  -0.189618  0  3.628258  0
N  N54  1  0.99083906  0.25918887  0.98003288  1  0  -0.352296  -0.194487  0  3.642079  0
N  N55  1  0.00916101  0.74081554  0.01996519  1  0  -0.352369  -0.194497  0  3.642064  0
O  O56  1  0.13471472  0.11001683  0.70245710  1  0  -0.373037  -0.799757  0  2.26274  0
O  O57  1  0.86528050  0.88999175  0.29754629  1  0  -0.373025  -0.799734  0  2.26268  0
O  O58  1  0.01057583  0.26032032  0.48535107  1  0  -0.394038  -0.703036  0  2.184118  0
O  O59  1  0.98942934  0.73967649  0.51465431  1  0  -0.394032  -0.70298  0  2.184073  0
O  O60  1  0.20762288  0.02983658  0.48854664  1  0  -0.366236  -0.770214  0  2.21512  0
O  O61  1  0.79238032  0.97016337  0.51146366  1  0  -0.36625  -0.770212  0  2.215122  0
O  O62  1  0.88860839  0.02041835  0.68617271  1  0  -0.394775  -0.724363  0  2.253693  0
O  O63  1  0.11138925  0.97958260  0.31383785  1  0  -0.394763  -0.72442  0  2.253612  0
O  O64  1  0.39564438  0.22479077  0.66105626  1  0  -0.384127  -0.732241  0  2.285214  0
O  O65  1  0.60436449  0.77520946  0.33894004  1  0  -0.384102  -0.732254  0  2.28516  0
O  O66  1  0.60148017  0.19644872  0.41585795  1  0  -0.371588  -0.699488  0  2.252782  0
O  O67  1  0.39851943  0.80354160  0.58414328  1  0  -0.371691  -0.6996  0  2.252689  0
O  O68  1  0.67384779  0.35724278  0.51387658  1  0  -0.360568  -0.782567  0  2.179432  0
O  O69  1  0.32616175  0.64275431  0.48611330  1  0  -0.360633  -0.782657  0  2.179341  0
O  O70  1  0.41631052  0.42593109  0.40464383  1  0  -0.383641  -0.695793  0  2.206698  0
O  O71  1  0.58369914  0.57406488  0.59534836  1  0  -0.383621  -0.695824  0  2.206586  0
