# generated using pymatgen
data_CuNiH8C12(N2O)4
_symmetry_space_group_name_H-M   'P 1'
_cell_length_a   9.19253367
_cell_length_b   9.19252113
_cell_length_c   10.45662771
_cell_angle_alpha   100.52929498
_cell_angle_beta   100.52854947
_cell_angle_gamma   92.26657826
_symmetry_Int_Tables_number   1
_chemical_formula_structural   CuNiH8C12(N2O)4
_chemical_formula_sum   'Cu2 Ni2 H16 C24 N16 O8'
_cell_volume   851.67202143
_cell_formula_units_Z   2
loop_
 _symmetry_equiv_pos_site_id
 _symmetry_equiv_pos_as_xyz
  1  'x, y, z'
loop_
 _atom_site_type_symbol
 _atom_site_label
 _atom_site_symmetry_multiplicity
 _atom_site_fract_x
 _atom_site_fract_y
 _atom_site_fract_z
 _atom_site_occupancy
 _atom_site_hle17_ddec_charge
 _atom_site_hle17_ddec_spin_density
 _atom_site_hle17_ddec_sum_bond_order
 _atom_site_hle17_magmom
 _atom_site_hse06_10hf_ddec_charge
 _atom_site_hse06_10hf_ddec_spin_density
 _atom_site_hse06_10hf_ddec_sum_bond_order
 _atom_site_hse06_10hf_magmom
 _atom_site_hse06_ddec_charge
 _atom_site_hse06_ddec_spin_density
 _atom_site_hse06_ddec_sum_bond_order
 _atom_site_hse06_magmom
 _atom_site_pbe_cm5_charge
 _atom_site_pbe_ddec_charge
 _atom_site_pbe_ddec_spin_density
 _atom_site_pbe_ddec_sum_bond_order
 _atom_site_pbe_magmom
Cu  Cu0  1  0.99999699  0.99999922  0.99999861  1  0.928529  -0.647954  1.779388  -0.442  0.943861  -0.761746  2.179588  -0.587  1.04185  -0.858865  2.10404  -0.689  0.74042  0.880651  -0.677266  2.235982  -0.51
Cu  Cu1  1  0.00000071  0.00000501  0.50000469  1  0.928576  -0.647971  1.779566  -0.442  0.943906  -0.761755  2.179743  -0.587  1.041884  -0.85887  2.104193  -0.689  0.740436  0.880728  -0.677272  2.236089  -0.51
Ni  Ni2  1  0.85122396  0.14877827  0.25000380  1  0.751452  1.716078  2.192602  1.421  0.772369  1.781692  2.587918  1.562  0.866375  1.874683  2.511467  1.669  0.659898  0.708994  1.679145  2.640417  1.449
Ni  Ni3  1  0.14877517  0.85121987  0.74999592  1  0.751407  1.716075  2.192609  1.421  0.772367  1.781692  2.587919  1.562  0.866369  1.874683  2.511465  1.669  0.65988  0.70898  1.679144  2.640435  1.449
H  H4  1  0.06384504  0.59105904  0.10219977  1  0.111942  -2.8e-05  0.969799  0.0  0.118241  0.00014  1.036337  0.0  0.120945  0.0001  1.035905  0.0  0.109182  0.11644  0.000137  1.036724  0.0
H  H5  1  0.40893852  0.93615744  0.39780711  1  0.111872  -2.3e-05  0.969853  0.0  0.11817  0.00014  1.036404  0.0  0.120876  0.0001  1.035966  0.0  0.109161  0.116369  0.000137  1.036794  0.0
H  H6  1  0.93616218  0.40894361  0.89780671  1  0.111962  -3.2e-05  0.969788  0.0  0.118259  0.00014  1.036323  0.0  0.120965  9.9e-05  1.035886  0.0  0.109194  0.116458  0.000137  1.036712  0.0
H  H7  1  0.59105587  0.06383621  0.60218926  1  0.111917  -2.4e-05  0.969795  0.0  0.118221  0.00014  1.036321  0.0  0.120925  0.0001  1.035888  0.0  0.109184  0.116422  0.000137  1.036715  0.0
H  H8  1  0.03000581  0.32940723  0.13231106  1  0.095218  0.000812  0.971032  0.002  0.098029  0.000598  1.041023  0.001  0.100737  0.000428  1.037843  0.001  0.120228  0.096125  0.000762  1.043503  0.002
H  H9  1  0.67058972  0.96999356  0.36769305  1  0.095214  0.000812  0.971045  0.002  0.098022  0.000597  1.041024  0.001  0.100732  0.000428  1.037842  0.001  0.120222  0.09612  0.000761  1.043503  0.002
H  H10  1  0.96999878  0.67058982  0.86768840  1  0.095248  0.00081  0.970971  0.002  0.098078  0.000597  1.040965  0.001  0.100784  0.000428  1.037788  0.001  0.120251  0.096177  0.000761  1.043444  0.002
H  H11  1  0.32941149  0.03000238  0.63230857  1  0.095211  0.000814  0.970992  0.002  0.09802  0.000598  1.040996  0.001  0.100727  0.000428  1.037818  0.001  0.12024  0.096116  0.000761  1.043474  0.002
H  H12  1  0.71436392  0.43764918  0.36438431  1  0.079751  0.000432  0.947153  0.002  0.087361  0.000349  1.009814  0.001  0.088961  0.000235  1.008616  0.001  0.119459  0.086243  0.000484  1.010959  0.001
H  H13  1  0.56235655  0.28564595  0.13563499  1  0.079716  0.000437  0.947102  0.002  0.087342  0.000349  1.009775  0.001  0.088945  0.000235  1.00857  0.001  0.119434  0.086226  0.000484  1.010923  0.001
H  H14  1  0.28564416  0.56235014  0.63561891  1  0.079752  0.000437  0.947097  0.002  0.087363  0.000349  1.00977  0.001  0.088963  0.000235  1.008569  0.001  0.119435  0.086245  0.000484  1.010916  0.001
H  H15  1  0.43764110  0.71434663  0.86436364  1  0.079733  0.00043  0.947143  0.002  0.087361  0.000349  1.009805  0.001  0.08896  0.000235  1.008609  0.001  0.119437  0.086244  0.000484  1.010952  0.001
H  H16  1  0.73041670  0.70192528  0.33711321  1  0.123139  0.000382  0.929098  0.0  0.135153  0.000426  0.981809  0.0  0.138028  0.000299  0.980959  0.0  0.117526  0.133111  0.000543  0.98264  0.001
H  H17  1  0.29807842  0.26959388  0.16290053  1  0.123146  0.000383  0.929196  0.0  0.135208  0.000426  0.981832  0.0  0.138085  0.000299  0.98098  0.0  0.117562  0.133165  0.000543  0.982666  0.001
H  H18  1  0.26959233  0.29807183  0.66289077  1  0.123181  0.000384  0.929117  0.0  0.135213  0.000426  0.981807  0.0  0.138089  0.000299  0.980955  0.0  0.117548  0.13317  0.000543  0.982637  0.001
H  H19  1  0.70192032  0.73039869  0.83709635  1  0.123201  0.000387  0.929154  0.0  0.135236  0.000426  0.981816  0.0  0.138112  0.000299  0.980965  0.0  0.117549  0.133195  0.000543  0.982649  0.001
C  C20  1  0.98287790  0.55997605  0.15817965  1  -0.109312  0.010689  3.707375  0.013  -0.128966  0.003664  3.949056  0.005  -0.133028  0.003546  3.968296  0.005  -0.073794  -0.126307  0.003944  3.936604  0.005
C  C21  1  0.44002215  0.01712038  0.34182248  1  -0.109218  0.010678  3.707326  0.013  -0.128887  0.003665  3.949001  0.005  -0.132943  0.003545  3.968247  0.005  -0.073792  -0.126235  0.003944  3.936555  0.005
C  C22  1  0.01712336  0.44002099  0.84181928  1  -0.109314  0.010677  3.707323  0.013  -0.128946  0.003664  3.949011  0.005  -0.132998  0.003547  3.968252  0.005  -0.07378  -0.126291  0.003945  3.936562  0.005
C  C23  1  0.55997682  0.98287553  0.65817496  1  -0.109302  0.010682  3.707199  0.013  -0.128947  0.003665  3.948881  0.005  -0.133006  0.003546  3.968123  0.005  -0.073808  -0.1263  0.003945  3.936441  0.005
C  C24  1  0.96627053  0.41517698  0.17651826  1  0.125084  -0.012224  3.662209  -0.012  0.098299  -0.00257  3.916287  -0.003  0.105845  -0.003105  3.933684  -0.004  0.045894  0.092592  -0.002394  3.905092  -0.003
C  C25  1  0.58482294  0.03373161  0.32348788  1  0.125113  -0.012228  3.662379  -0.012  0.098353  -0.002571  3.916437  -0.003  0.105898  -0.003104  3.933835  -0.004  0.045906  0.092643  -0.002394  3.905242  -0.003
C  C26  1  0.03373540  0.58482342  0.82348288  1  0.125059  -0.012195  3.662119  -0.012  0.098217  -0.00257  3.916325  -0.003  0.105763  -0.003105  3.93372  -0.004  0.04582  0.092508  -0.002395  3.905129  -0.003
C  C27  1  0.41517597  0.96626319  0.67651129  1  0.125139  -0.012232  3.662238  -0.012  0.098367  -0.002571  3.916359  -0.003  0.105914  -0.003104  3.933755  -0.004  0.045866  0.092659  -0.002394  3.905162  -0.003
C  C28  1  0.78891064  0.47494798  0.30492937  1  0.114798  -0.012384  3.68348  -0.012  0.089982  -0.002606  3.938666  -0.003  0.098061  -0.003061  3.956476  -0.004  0.045834  0.083926  -0.002441  3.927253  -0.003
C  C29  1  0.52505451  0.21109445  0.19508274  1  0.114949  -0.012415  3.683222  -0.012  0.090074  -0.002605  3.93848  -0.003  0.098154  -0.003061  3.956285  -0.004  0.045914  0.084009  -0.002441  3.927072  -0.003
C  C30  1  0.21109284  0.52504906  0.69506895  1  0.114916  -0.012379  3.683253  -0.012  0.090124  -0.002606  3.938468  -0.003  0.098204  -0.003061  3.956273  -0.004  0.045965  0.084063  -0.002441  3.927057  -0.003
C  C31  1  0.47494558  0.78890148  0.80491775  1  0.115011  -0.012378  3.683258  -0.012  0.090168  -0.002607  3.938519  -0.003  0.098247  -0.003061  3.956324  -0.004  0.045976  0.084107  -0.002442  3.927108  -0.003
C  C32  1  0.89430587  0.66527069  0.21192116  1  -0.002058  -0.014362  3.715727  -0.013  0.013436  -0.00573  3.943455  -0.006  0.010378  -0.005036  3.96184  -0.005  0.005001  0.015048  -0.006427  3.932003  -0.006
C  C33  1  0.33472807  0.10569199  0.28808300  1  -0.001997  -0.014354  3.715609  -0.013  0.013488  -0.005731  3.943319  -0.006  0.010409  -0.005036  3.961743  -0.005  0.005029  0.015096  -0.006426  3.931865  -0.006
C  C34  1  0.10569429  0.33472634  0.78807760  1  -0.002103  -0.014332  3.715818  -0.013  0.013435  -0.005732  3.943496  -0.006  0.010351  -0.005037  3.961926  -0.005  0.004994  0.01505  -0.006426  3.932042  -0.006
C  C35  1  0.66526989  0.89430504  0.71191733  1  -0.001957  -0.014355  3.715644  -0.013  0.013543  -0.005731  3.943362  -0.006  0.010473  -0.005037  3.961767  -0.005  0.005037  0.015153  -0.006426  3.93191  -0.006
C  C36  1  0.90321222  0.81903731  0.18236376  1  0.663243  -0.000672  3.835169  0.001  0.628007  -0.000739  4.117666  0.0  0.668877  -0.000434  4.107054  0.001  0.2262  0.599438  -0.001072  4.124758  0.0
C  C37  1  0.18096312  0.09679894  0.31764352  1  0.663233  -0.000676  3.835168  0.001  0.628013  -0.00074  4.117617  0.0  0.668888  -0.000434  4.107005  0.001  0.226157  0.599455  -0.001072  4.124697  0.0
C  C38  1  0.09679269  0.18096420  0.81763835  1  0.663345  -0.000675  3.835149  0.001  0.628068  -0.000739  4.11768  0.0  0.668944  -0.000434  4.107066  0.001  0.226154  0.599489  -0.001071  4.124789  0.0
C  C39  1  0.81903308  0.90320472  0.68235661  1  0.663195  -0.000674  3.835209  0.001  0.627906  -0.00074  4.117765  0.0  0.668779  -0.000433  4.107154  0.001  0.2261  0.599343  -0.001071  4.124849  0.0
C  C40  1  0.79816180  0.62225230  0.28984572  1  -0.105379  0.009577  3.683757  0.011  -0.126067  0.00258  3.925815  0.003  -0.130433  0.002755  3.944926  0.003  -0.070726  -0.123483  0.002705  3.91381  0.003
C  C41  1  0.37774798  0.20184351  0.21016491  1  -0.105508  0.009583  3.683807  0.011  -0.12622  0.002581  3.92584  0.003  -0.130582  0.002756  3.944956  0.003  -0.070838  -0.123636  0.002705  3.913833  0.003
C  C42  1  0.20184265  0.37774255  0.71015528  1  -0.105499  0.009552  3.68378  0.011  -0.126211  0.002582  3.925825  0.003  -0.130571  0.002757  3.944939  0.003  -0.070797  -0.123627  0.002705  3.913818  0.003
C  C43  1  0.62225211  0.79815241  0.78983462  1  -0.105592  0.009564  3.683806  0.011  -0.126258  0.002581  3.925821  0.003  -0.130624  0.002756  3.944937  0.003  -0.070793  -0.123672  0.002705  3.913813  0.003
N  N44  1  0.86907280  0.37159584  0.24687861  1  -0.280714  0.060741  3.310056  0.092  -0.239507  0.039955  3.59364  0.061  -0.267326  0.03281  3.614025  0.052  -0.324546  -0.219644  0.045251  3.579707  0.068
N  N45  1  0.62840632  0.13093046  0.25312930  1  -0.280804  0.06075  3.310123  0.092  -0.239587  0.039955  3.593707  0.061  -0.267405  0.032809  3.614094  0.052  -0.32454  -0.219724  0.045252  3.579773  0.068
N  N46  1  0.13092853  0.62840229  0.75311860  1  -0.280744  0.060727  3.309932  0.092  -0.239586  0.039955  3.593617  0.061  -0.267404  0.03281  3.614003  0.052  -0.324582  -0.219722  0.045253  3.579686  0.068
N  N47  1  0.37159392  0.86906768  0.74687060  1  -0.280848  0.060744  3.310117  0.092  -0.239709  0.039955  3.593799  0.061  -0.267527  0.032809  3.614182  0.052  -0.324584  -0.219843  0.045251  3.579864  0.068
N  N48  1  0.81414721  0.08910050  0.04205638  1  -0.537918  -0.02932  2.85822  -0.029  -0.601116  -0.017225  3.24876  -0.02  -0.657376  -0.013925  3.26573  -0.018  -0.346546  -0.564296  -0.014757  3.238683  -0.016
N  N49  1  0.91089960  0.18585574  0.45794992  1  -0.538106  -0.029347  2.857692  -0.029  -0.601322  -0.017238  3.248262  -0.02  -0.657595  -0.013936  3.26523  -0.018  -0.346655  -0.564496  -0.01477  3.238181  -0.016
N  N50  1  0.18584571  0.91090421  0.95793766  1  -0.538031  -0.02934  2.857484  -0.029  -0.601246  -0.017238  3.24807  -0.02  -0.657522  -0.013936  3.265043  -0.018  -0.346584  -0.564407  -0.014768  3.237982  -0.016
N  N51  1  0.08909660  0.81414792  0.54205021  1  -0.537902  -0.029316  2.858235  -0.029  -0.60109  -0.017228  3.248787  -0.02  -0.657349  -0.013927  3.265757  -0.018  -0.346527  -0.564266  -0.014761  3.238701  -0.016
N  N52  1  0.75156118  0.17358919  0.97722236  1  0.387727  0.007779  4.136575  0.015  0.43605  0.003037  4.455582  0.007  0.456779  0.002941  4.492397  0.007  0.092484  0.422329  0.002161  4.429948  0.006
N  N53  1  0.82640010  0.24844781  0.52279252  1  0.38783  0.007774  4.136732  0.015  0.436162  0.003033  4.455722  0.007  0.456891  0.002938  4.49253  0.007  0.092652  0.422439  0.002159  4.430099  0.006
N  N54  1  0.24844477  0.82641123  0.02278165  1  0.387651  0.007762  4.136354  0.015  0.435971  0.003034  4.455359  0.007  0.456697  0.002937  4.492166  0.007  0.092457  0.422253  0.002159  4.42973  0.006
N  N55  1  0.17358662  0.75156247  0.47721194  1  0.387612  0.007761  4.136751  0.015  0.435932  0.003035  4.455761  0.007  0.456659  0.002939  4.492578  0.007  0.09244  0.422211  0.00216  4.430132  0.006
N  N56  1  0.68833909  0.25434882  0.91732985  1  -0.299374  -0.031995  2.297391  -0.03  -0.32468  -0.012358  2.514029  -0.013  -0.332992  -0.00937  2.52635  -0.01  -0.159254  -0.318545  -0.012378  2.505383  -0.011
N  N57  1  0.74565201  0.31165732  0.58267800  1  -0.299258  -0.031945  2.298273  -0.03  -0.324556  -0.012349  2.514898  -0.013  -0.332854  -0.009364  2.527212  -0.01  -0.159208  -0.318435  -0.012373  2.506274  -0.011
N  N58  1  0.31165909  0.74566812  0.08266693  1  -0.299146  -0.031936  2.298088  -0.03  -0.324422  -0.012348  2.514699  -0.013  -0.332716  -0.009362  2.527012  -0.01  -0.159089  -0.318302  -0.01237  2.506071  -0.011
N  N59  1  0.25434402  0.68834411  0.41731984  1  -0.299285  -0.031975  2.297609  -0.03  -0.324593  -0.012353  2.514259  -0.013  -0.3329  -0.009367  2.52658  -0.01  -0.159191  -0.318463  -0.012376  2.505624  -0.011
O  O60  1  0.95775648  0.82888670  0.08024075  1  -0.601618  -0.063682  2.128885  -0.08  -0.56222  -0.04854  2.401054  -0.068  -0.602181  -0.039703  2.390555  -0.059  -0.312476  -0.53662  -0.051534  2.409811  -0.07
O  O61  1  0.17111288  0.04226122  0.41977006  1  -0.601621  -0.063681  2.128891  -0.08  -0.562192  -0.048539  2.401022  -0.068  -0.60215  -0.039701  2.390515  -0.059  -0.312434  -0.536575  -0.051534  2.409719  -0.07
O  O62  1  0.04223947  0.17111361  0.91975595  1  -0.601655  -0.063681  2.128876  -0.08  -0.562213  -0.048542  2.401029  -0.068  -0.602175  -0.039703  2.390529  -0.059  -0.312448  -0.536594  -0.051537  2.409747  -0.07
O  O63  1  0.82888774  0.95775803  0.58023990  1  -0.60166  -0.063681  2.128921  -0.08  -0.562224  -0.04854  2.401099  -0.068  -0.602183  -0.039704  2.390599  -0.059  -0.312492  -0.536608  -0.051535  2.409802  -0.07
O  O64  1  0.85745865  0.92219231  0.25975133  1  -0.604535  0.040188  2.181459  0.062  -0.580154  0.029052  2.462766  0.045  -0.619424  0.023615  2.451799  0.037  -0.294695  -0.551228  0.034082  2.469132  0.052
O  O65  1  0.07780738  0.14253972  0.24025082  1  -0.604543  0.040189  2.181551  0.062  -0.580157  0.029053  2.462847  0.045  -0.619428  0.023617  2.451878  0.037  -0.294665  -0.55123  0.034083  2.469202  0.052
O  O66  1  0.14254515  0.07780919  0.74025060  1  -0.604573  0.040188  2.181395  0.062  -0.58018  0.029054  2.46271  0.045  -0.619446  0.023616  2.451735  0.037  -0.294678  -0.551257  0.034084  2.469088  0.052
O  O67  1  0.92218834  0.85745727  0.75974629  1  -0.604498  0.040189  2.181529  0.062  -0.580118  0.029052  2.46291  0.045  -0.619386  0.023615  2.451935  0.037  -0.294605  -0.551187  0.034081  2.469271  0.052
