# generated using pymatgen
data_CdH10C9N4O5
_symmetry_space_group_name_H-M   'P 1'
_cell_length_a   9.11956654
_cell_length_b   10.79967532
_cell_length_c   11.94946547
_cell_angle_alpha   95.72724171
_cell_angle_beta   90.00045232
_cell_angle_gamma   89.99975978
_symmetry_Int_Tables_number   1
_chemical_formula_structural   CdH10C9N4O5
_chemical_formula_sum   'Cd4 H40 C36 N16 O20'
_cell_volume   1171.00850592
_cell_formula_units_Z   4
loop_
 _symmetry_equiv_pos_site_id
 _symmetry_equiv_pos_as_xyz
  1  'x, y, z'
loop_
 _atom_site_type_symbol
 _atom_site_label
 _atom_site_symmetry_multiplicity
 _atom_site_fract_x
 _atom_site_fract_y
 _atom_site_fract_z
 _atom_site_occupancy
 _atom_site_pbe_bader_spin_density
 _atom_site_pbe_cm5_charge
 _atom_site_pbe_ddec_charge
 _atom_site_pbe_ddec_spin_density
 _atom_site_pbe_ddec_sum_bond_order
 _atom_site_pbe_magmom
Cd  Cd0  1  0.90745469  0.71060002  0.20117520  1  0  0.771957  0.915412  0  2.192547  0
Cd  Cd1  1  0.40745536  0.78939899  0.29882665  1  0  0.771959  0.915429  0  2.192543  0
Cd  Cd2  1  0.09254511  0.28939913  0.79882742  1  0  0.771963  0.915439  0  2.192513  0
Cd  Cd3  1  0.59254553  0.21060110  0.70117355  1  0  0.771964  0.915429  0  2.192564  0
H  H4  1  0.72650843  0.94278478  0.07010963  1  0  0.11855  0.117051  0  1.010013  0
H  H5  1  0.22651161  0.55721383  0.42989109  1  0  0.118554  0.117028  0  1.010045  0
H  H6  1  0.27348808  0.05721158  0.92989189  1  0  0.118533  0.117064  0  1.010045  0
H  H7  1  0.77348818  0.44278441  0.57010726  1  0  0.118555  0.117064  0  1.010043  0
H  H8  1  0.83732590  0.18587123  0.07313931  1  0  0.120414  0.125212  0  1.042023  0
H  H9  1  0.33732997  0.31412599  0.42685962  1  0  0.12039  0.125185  0  1.042028  0
H  H10  1  0.16266951  0.81412421  0.92685961  1  0  0.120417  0.125205  0  1.042018  0
H  H11  1  0.66267202  0.68587226  0.57313706  1  0  0.120418  0.12523  0  1.04199  0
H  H12  1  0.11617442  0.97044369  0.25998098  1  0  0.139472  0.114902  0  1.018876  0
H  H13  1  0.61617615  0.52955430  0.24001986  1  0  0.139486  0.114933  0  1.018799  0
H  H14  1  0.88382319  0.02955549  0.74001663  1  0  0.139486  0.11496  0  1.018767  0
H  H15  1  0.38382804  0.47044579  0.75997951  1  0  0.139495  0.114923  0  1.0189  0
H  H16  1  0.18606892  0.18396583  0.25486986  1  0  0.132641  0.104605  0  0.991458  0
H  H17  1  0.68607038  0.31603087  0.24513314  1  0  0.132623  0.104553  0  0.991427  0
H  H18  1  0.81392868  0.81603146  0.74513092  1  0  0.132641  0.104526  0  0.991488  0
H  H19  1  0.31393161  0.68396923  0.75486539  1  0  0.132633  0.104539  0  0.991421  0
H  H20  1  0.15548988  0.23444005  0.11776673  1  0  0.13337  0.103417  0  0.977851  0
H  H21  1  0.65549410  0.26555581  0.38223516  1  0  0.133386  0.103394  0  0.977941  0
H  H22  1  0.84450773  0.76555818  0.88223330  1  0  0.133372  0.103375  0  0.977913  0
H  H23  1  0.34450898  0.73444336  0.61776244  1  0  0.133411  0.10338  0  0.977993  0
H  H24  1  0.03826224  0.43039247  0.10084469  1  0  0.140802  0.130051  0  1.027373  0
H  H25  1  0.53826213  0.06960745  0.39915856  1  0  0.140768  0.130012  0  1.027386  0
H  H26  1  0.96173646  0.56960763  0.89915551  1  0  0.140799  0.130041  0  1.027369  0
H  H27  1  0.46173986  0.93039451  0.60084015  1  0  0.140759  0.130001  0  1.027391  0
H  H28  1  0.98297361  0.28223261  0.41393575  1  0  0.122689  0.134184  0  1.050403  0
H  H29  1  0.48297571  0.21776327  0.08606309  1  0  0.122708  0.134272  0  1.050301  0
H  H30  1  0.01702729  0.71776934  0.58606546  1  0  0.122686  0.134187  0  1.050406  0
H  H31  1  0.51702408  0.78223311  0.91393508  1  0  0.122709  0.134237  0  1.050371  0
H  H32  1  0.87833981  0.52754434  0.42851767  1  0  0.114168  0.105298  0  1.036132  0
H  H33  1  0.37833721  0.97245289  0.07148467  1  0  0.114157  0.105277  0  1.036087  0
H  H34  1  0.12166328  0.47245760  0.57148355  1  0  0.114172  0.10528  0  1.036113  0
H  H35  1  0.62165930  0.02754533  0.92851786  1  0  0.114169  0.105299  0  1.036061  0
H  H36  1  0.72542592  0.54799980  0.05020787  1  0  0.284222  0.379799  0  0.958975  0
H  H37  1  0.22542625  0.95200160  0.44979312  1  0  0.284214  0.379791  0  0.959001  0
H  H38  1  0.27457388  0.45200122  0.94979243  1  0  0.28421  0.379793  0  0.958986  0
H  H39  1  0.77457135  0.04800129  0.55020652  1  0  0.284237  0.379841  0  0.958926  0
H  H40  1  0.63475473  0.67145031  0.06724522  1  0  0.280562  0.379759  0  0.960319  0
H  H41  1  0.13475659  0.82855135  0.43275524  1  0  0.280593  0.379808  0  0.960244  0
H  H42  1  0.36524507  0.32855071  0.93275424  1  0  0.280576  0.379775  0  0.960297  0
H  H43  1  0.86524211  0.17145060  0.56724597  1  0  0.280565  0.379729  0  0.960352  0
C  C44  1  0.82497921  0.98431158  0.10805035  1  0  -0.005287  -0.03029  0  4.006481  0
C  C45  1  0.32498001  0.51568581  0.39195085  1  0  -0.005255  -0.030171  0  4.006377  0
C  C46  1  0.17502168  0.01568664  0.89195051  1  0  -0.005242  -0.030185  0  4.006239  0
C  C47  1  0.67501978  0.48431150  0.60804826  1  0  -0.005286  -0.03033  0  4.0065  0
C  C48  1  0.87607923  0.10419843  0.10984028  1  0  -0.00377  -0.10697  0  3.907081  0
C  C49  1  0.37608361  0.39579961  0.39015980  1  0  -0.003756  -0.107015  0  3.90716  0
C  C50  1  0.12391508  0.89579609  0.89015856  1  0  -0.003767  -0.107133  0  3.907072  0
C  C51  1  0.62391838  0.60419864  0.60983771  1  0  -0.003785  -0.107019  0  3.907071  0
C  C52  1  0.02526516  0.99279823  0.20739387  1  0  0.14802  0.112408  0  3.900367  0
C  C53  1  0.52526645  0.50719814  0.29260962  1  0  0.14809  0.112459  0  3.900341  0
C  C54  1  0.97473573  0.00720092  0.79260792  1  0  0.148025  0.112251  0  3.900535  0
C  C55  1  0.47473444  0.49280102  0.70739050  1  0  0.148065  0.112424  0  3.900339  0
C  C56  1  0.10321154  0.21228483  0.19616054  1  0  0.067281  0.016438  0  3.848643  0
C  C57  1  0.60321484  0.28771212  0.30384114  1  0  0.067278  0.016503  0  3.848652  0
C  C58  1  0.89678497  0.78771434  0.80383874  1  0  0.067325  0.016625  0  3.848541  0
C  C59  1  0.39678825  0.71228706  0.69615646  1  0  0.067188  0.016459  0  3.848685  0
C  C60  1  0.00956836  0.42659579  0.18837220  1  0  0.147959  0.105622  0  3.890612  0
C  C61  1  0.50956842  0.07340235  0.31162987  1  0  0.147992  0.105601  0  3.890713  0
C  C62  1  0.99043144  0.57340337  0.81162792  1  0  0.147992  0.105649  0  3.890623  0
C  C63  1  0.49043357  0.92659681  0.68837024  1  0  0.148038  0.105723  0  3.890578  0
C  C64  1  0.97754413  0.35024060  0.35302575  1  0  -0.005199  -0.121025  0  3.914777  0
C  C65  1  0.47754502  0.14975527  0.14697557  1  0  -0.005283  -0.121236  0  3.914857  0
C  C66  1  0.02245786  0.64976041  0.64697538  1  0  -0.005217  -0.121031  0  3.914827  0
C  C67  1  0.52245807  0.85024482  0.85302463  1  0  -0.005169  -0.121013  0  3.914732  0
C  C68  1  0.92578373  0.47014246  0.35831221  1  0  -0.00688  -0.045009  0  4.036837  0
C  C69  1  0.42578296  0.02985542  0.14168983  1  0  -0.006883  -0.044971  0  4.036773  0
C  C70  1  0.07421826  0.52985856  0.64168808  1  0  -0.006886  -0.045011  0  4.036758  0
C  C71  1  0.57421355  0.97014281  0.85831020  1  0  -0.006924  -0.045056  0  4.036912  0
C  C72  1  0.84897047  0.83363272  0.45653282  1  0  0.194786  0.471082  0  4.246207  0
C  C73  1  0.34896801  0.66637021  0.04346570  1  0  0.19474  0.471174  0  4.246147  0
C  C74  1  0.15102823  0.16637015  0.54347015  1  0  0.194596  0.470904  0  4.246172  0
C  C75  1  0.65103398  0.33362709  0.95653424  1  0  0.194689  0.47109  0  4.246391  0
C  C76  1  0.69610439  0.81625420  0.39744550  1  0  0.186808  0.447977  0  4.233522  0
C  C77  1  0.19610355  0.68375197  0.10255158  1  0  0.186728  0.447835  0  4.233608  0
C  C78  1  0.30389540  0.18375148  0.60255524  1  0  0.186734  0.447794  0  4.233698  0
C  C79  1  0.80389844  0.31625093  0.89744722  1  0  0.186766  0.447909  0  4.233815  0
N  N80  1  0.91956862  0.91601094  0.16807833  1  0  -0.357259  -0.291078  0  3.522975  0
N  N81  1  0.41956956  0.58398710  0.33192434  1  0  -0.357292  -0.291172  0  3.523079  0
N  N82  1  0.08042789  0.08398636  0.83192161  1  0  -0.357298  -0.291179  0  3.523257  0
N  N83  1  0.58043134  0.41601020  0.66807560  1  0  -0.357282  -0.291082  0  3.522975  0
N  N84  1  0.00300626  0.10788774  0.17379180  1  0  -0.241312  0.018917  0  3.766657  0
N  N85  1  0.50301037  0.39210951  0.32620764  1  0  -0.241388  0.018889  0  3.766728  0
N  N86  1  0.99699025  0.89211236  0.82620673  1  0  -0.241327  0.019175  0  3.766541  0
N  N87  1  0.49699381  0.60788874  0.67378988  1  0  -0.241317  0.018982  0  3.76656  0
N  N88  1  0.03026396  0.32428919  0.24421083  1  0  -0.243958  0.017415  0  3.776892  0
N  N89  1  0.53026623  0.17570890  0.25578969  1  0  -0.243872  0.017579  0  3.776972  0
N  N90  1  0.96973364  0.67571183  0.75578946  1  0  -0.243994  0.017316  0  3.77705  0
N  N91  1  0.46973576  0.82429027  0.74420959  1  0  -0.243955  0.0174  0  3.776864  0
N  N92  1  0.94613931  0.51611934  0.25541757  1  0  -0.36032  -0.294331  0  3.532021  0
N  N93  1  0.44613845  0.98388048  0.24458543  1  0  -0.360326  -0.294314  0  3.532131  0
N  N94  1  0.05386378  0.48388261  0.74458282  1  0  -0.360336  -0.294321  0  3.531993  0
N  N95  1  0.55386135  0.01611960  0.75541644  1  0  -0.360352  -0.294372  0  3.532149  0
O  O96  1  0.68999736  0.76122624  0.29792682  1  0  -0.327141  -0.544756  0  2.385594  0
O  O97  1  0.18999838  0.73877433  0.20207471  1  0  -0.327085  -0.544668  0  2.38556  0
O  O98  1  0.31000463  0.23877570  0.70207607  1  0  -0.327083  -0.544668  0  2.385547  0
O  O99  1  0.81000142  0.26122763  0.79792483  1  0  -0.327165  -0.544756  0  2.385641  0
O  O100  1  0.95726715  0.77939755  0.40441581  1  0  -0.317612  -0.542552  0  2.289228  0
O  O101  1  0.45726715  0.72060505  0.09558417  1  0  -0.317594  -0.542585  0  2.289135  0
O  O102  1  0.04273045  0.22060250  0.59559109  1  0  -0.317455  -0.542311  0  2.289058  0
O  O103  1  0.54273265  0.27939504  0.90441603  1  0  -0.317559  -0.542523  0  2.289154  0
O  O104  1  0.85347870  0.89542894  0.55140084  1  0  -0.325994  -0.547261  0  2.218254  0
O  O105  1  0.35347527  0.60457722  0.94859707  1  0  -0.325967  -0.547281  0  2.2183  0
O  O106  1  0.14652219  0.10457767  0.44859999  1  0  -0.325968  -0.547239  0  2.218272  0
O  O107  1  0.64652453  0.39542194  0.05140305  1  0  -0.325968  -0.547279  0  2.218395  0
O  O108  1  0.58369244  0.85506247  0.45165837  1  0  -0.313963  -0.518045  0  2.273039  0
O  O109  1  0.08368903  0.64494680  0.04834000  1  0  -0.313929  -0.518005  0  2.273049  0
O  O110  1  0.41630846  0.14494600  0.54834180  1  0  -0.313952  -0.51797  0  2.273089  0
O  O111  1  0.91630857  0.35505236  0.95166011  1  0  -0.313883  -0.517998  0  2.273178  0
O  O112  1  0.73728264  0.63990472  0.05467250  1  0  -0.595005  -0.758241  0  2.023165  0
O  O113  1  0.23728448  0.86009573  0.44532679  1  0  -0.595026  -0.758283  0  2.023118  0
O  O114  1  0.26271716  0.36009538  0.94532770  1  0  -0.595006  -0.758262  0  2.02315  0
O  O115  1  0.76271422  0.13990624  0.55467108  1  0  -0.595027  -0.75829  0  2.023141  0
