# generated using pymatgen
data_CdH19C23(NO)4
_symmetry_space_group_name_H-M   'P 1'
_cell_length_a   9.81773720
_cell_length_b   10.15968868
_cell_length_c   10.95501145
_cell_angle_alpha   70.49044142
_cell_angle_beta   77.05729315
_cell_angle_gamma   84.74921926
_symmetry_Int_Tables_number   1
_chemical_formula_structural   CdH19C23(NO)4
_chemical_formula_sum   'Cd2 H38 C46 N8 O8'
_cell_volume   1003.63913456
_cell_formula_units_Z   2
loop_
 _symmetry_equiv_pos_site_id
 _symmetry_equiv_pos_as_xyz
  1  'x, y, z'
loop_
 _atom_site_type_symbol
 _atom_site_label
 _atom_site_symmetry_multiplicity
 _atom_site_fract_x
 _atom_site_fract_y
 _atom_site_fract_z
 _atom_site_occupancy
 _atom_site_hle17_bader_spin_density
 _atom_site_hle17_ddec_charge
 _atom_site_hle17_ddec_spin_density
 _atom_site_hle17_ddec_sum_bond_order
 _atom_site_hle17_magmom
 _atom_site_hse06_10hf_bader_spin_density
 _atom_site_hse06_10hf_ddec_charge
 _atom_site_hse06_10hf_ddec_spin_density
 _atom_site_hse06_10hf_ddec_sum_bond_order
 _atom_site_hse06_10hf_magmom
 _atom_site_hse06_bader_spin_density
 _atom_site_hse06_ddec_charge
 _atom_site_hse06_ddec_spin_density
 _atom_site_hse06_ddec_sum_bond_order
 _atom_site_hse06_magmom
 _atom_site_pbe_bader_spin_density
 _atom_site_pbe_cm5_charge
 _atom_site_pbe_ddec_charge
 _atom_site_pbe_ddec_spin_density
 _atom_site_pbe_ddec_sum_bond_order
 _atom_site_pbe_magmom
Cd  Cd0  1  0.10068836  0.51531726  0.83253006  1  0  1.113783  0  1.694064  0  0  0.921237  0  2.135878  0  0  0.981428  0  2.083406  0  0  0.771614  0.87844  0  2.171962  0
Cd  Cd1  1  0.89931234  0.48468219  0.16746959  1  0  1.11379  0  1.694028  0  0  0.921239  0  2.13584  0  0  0.981427  0  2.08337  0  0  0.77162  0.878445  0  2.171926  0
H  H2  1  0.15861842  0.59786014  0.44959683  1  0  0.110088  0  0.981725  0  0  0.117312  0  1.051826  0  0  0.120465  0  1.051518  0  0  0.098537  0.114946  0  1.052679  0
H  H3  1  0.84138224  0.40214034  0.55040433  1  0  0.110075  0  0.981731  0  0  0.117301  0  1.051826  0  0  0.120456  0  1.051517  0  0  0.098526  0.114933  0  1.052684  0
H  H4  1  0.41257396  0.29545296  0.68965192  1  0  0.103791  0  0.987372  0  0  0.113967  0  1.052818  0  0  0.116951  0  1.052794  0  0  0.095987  0.111886  0  1.053034  0
H  H5  1  0.58742772  0.70454858  0.31034781  1  0  0.103809  0  0.987337  0  0  0.113979  0  1.052798  0  0  0.11696  0  1.052777  0  0  0.095979  0.111895  0  1.053018  0
H  H6  1  0.18049019  0.02123164  0.79591433  1  0  0.100853  0  0.983039  0  0  0.108004  0  1.049402  0  0  0.111521  0  1.047804  0  0  0.102902  0.105698  0  1.050189  0
H  H7  1  0.81951158  0.97876676  0.20408543  1  0  0.100876  0  0.983083  0  0  0.108001  0  1.049452  0  0  0.111516  0  1.047855  0  0  0.102904  0.105694  0  1.050244  0
H  H8  1  0.22216479  0.18580399  0.41720557  1  0  0.109232  0  0.97148  0  0  0.11741  0  1.037188  0  0  0.121321  0  1.035443  0  0  0.099695  0.114029  0  1.039722  0
H  H9  1  0.77783586  0.81419754  0.58279344  1  0  0.109193  0  0.971492  0  0  0.117393  0  1.037175  0  0  0.121305  0  1.035429  0  0  0.099689  0.114013  0  1.039708  0
H  H10  1  0.43320925  0.65886423  0.69558375  1  0  0.102394  0  0.899962  0  0  0.120978  0  0.957367  0  0  0.121875  0  0.956804  0  0  0.120541  0.12041  0  0.957997  0
H  H11  1  0.56679143  0.34113520  0.30442047  1  0  0.102428  0  0.899961  0  0  0.120999  0  0.957374  0  0  0.121895  0  0.956816  0  0  0.120555  0.120432  0  0.958013  0
H  H12  1  0.51939137  0.53348347  0.62344011  1  0  0.071834  0  0.980749  0  0  0.084234  0  1.051905  0  0  0.083801  0  1.05443  0  0  0.101259  0.084013  0  1.051129  0
H  H13  1  0.48060926  0.46651805  0.37656165  1  0  0.071838  0  0.98078  0  0  0.084249  0  1.05191  0  0  0.083818  0  1.054433  0  0  0.10127  0.084036  0  1.05113  0
H  H14  1  0.64883984  0.42979158  0.79862347  1  0  0.115992  0  0.963136  0  0  0.123777  0  1.027185  0  0  0.12643  0  1.027574  0  0  0.106706  0.121326  0  1.02795  0
H  H15  1  0.35115873  0.57020889  0.20137811  1  0  0.116007  0  0.963148  0  0  0.123811  0  1.027182  0  0  0.126467  0  1.027567  0  0  0.106725  0.121359  0  1.027954  0
H  H16  1  0.19196775  0.30803584  0.10000473  1  0  0.094127  0  0.959891  0  0  0.099731  0  1.024543  0  0  0.102447  0  1.022444  0  0  0.11594  0.0977  0  1.026329  0
H  H17  1  0.80803088  0.69196255  0.89999565  1  0  0.094142  0  0.959909  0  0  0.099745  0  1.02456  0  0  0.102462  0  1.02246  0  0  0.115946  0.097712  0  1.026349  0
H  H18  1  0.89333474  0.76989693  0.13293411  1  0  0.087766  0  0.976137  0  0  0.094508  0  1.049541  0  0  0.097781  0  1.046862  0  0  0.096992  0.092432  0  1.051112  0
H  H19  1  0.10666599  0.23010148  0.86706493  1  0  0.087729  0  0.976182  0  0  0.094445  0  1.049599  0  0  0.097716  0  1.046925  0  0  0.096975  0.092368  0  1.051169  0
H  H20  1  0.44705607  0.91924699  0.72870699  1  0  0.083802  0  0.924853  0  0  0.103356  0  0.983874  0  0  0.104331  0  0.982707  0  0  0.115226  0.102525  0  0.985066  0
H  H21  1  0.55294357  0.08075349  0.27129163  1  0  0.083782  0  0.924862  0  0  0.10334  0  0.983884  0  0  0.104313  0  0.982715  0  0  0.115217  0.102508  0  0.98508  0
H  H22  1  0.39693138  0.06044542  0.78846216  1  0  0.058553  0  0.935508  0  0  0.074531  0  1.00229  0  0  0.075096  0  1.001495  0  0  0.101203  0.074195  0  1.002453  0
H  H23  1  0.60306932  0.93955403  0.21153657  1  0  0.058553  0  0.935474  0  0  0.074536  0  1.002254  0  0  0.0751  0  1.001458  0  0  0.101208  0.0742  0  1.002417  0
H  H24  1  0.64262377  0.28037913  0.03474111  1  0  0.10485  0  0.953436  0  0  0.116257  0  1.010063  0  0  0.118638  0  1.008606  0  0  0.108489  0.114585  0  1.011273  0
H  H25  1  0.35737587  0.71962030  0.96526149  1  0  0.104796  0  0.953472  0  0  0.116231  0  1.010073  0  0  0.11862  0  1.008607  0  0  0.108486  0.114556  0  1.011288  0
H  H26  1  0.40721613  0.22092140  0.18868485  1  0  0.098294  0  0.971141  0  0  0.107902  0  1.032865  0  0  0.110228  0  1.033488  0  0  0.104789  0.105789  0  1.033489  0
H  H27  1  0.59278251  0.77907698  0.81131552  1  0  0.098296  0  0.971129  0  0  0.107904  0  1.032856  0  0  0.11023  0  1.033478  0  0  0.104798  0.105789  0  1.033477  0
H  H28  1  0.58901200  0.09371488  0.86701864  1  0  0.095487  0  0.959147  0  0  0.106555  0  1.018662  0  0  0.109737  0  1.01828  0  0  0.099046  0.104658  0  1.018296  0
H  H29  1  0.41098861  0.90628875  0.13297883  1  0  0.095487  0  0.95916  0  0  0.106528  0  1.018709  0  0  0.10971  0  1.018328  0  0  0.099051  0.10463  0  1.018343  0
H  H30  1  0.88464415  0.11230563  0.43615041  1  0  0.089964  0  0.934332  0  0  0.097019  0  0.998029  0  0  0.099897  0  0.995796  0  0  0.11525  0.094998  0  0.999953  0
H  H31  1  0.11535761  0.88769384  0.56384629  1  0  0.089975  0  0.934385  0  0  0.097022  0  0.998081  0  0  0.099898  0  0.99585  0  0  0.115265  0.095  0  1.000002  0
H  H32  1  0.84287566  0.14899374  0.82362005  1  0  0.094857  0  0.963328  0  0  0.106964  0  1.020539  0  0  0.108371  0  1.020881  0  0  0.104279  0.105803  0  1.020779  0
H  H33  1  0.15712280  0.85101197  0.17637628  1  0  0.094826  0  0.963336  0  0  0.106927  0  1.020558  0  0  0.108333  0  1.0209  0  0  0.104271  0.105772  0  1.0208  0
H  H34  1  0.99412035  0.15728340  0.60328651  1  0  0.108926  0  0.956492  0  0  0.118612  0  1.016725  0  0  0.120907  0  1.017631  0  0  0.107519  0.117662  0  1.014964  0
H  H35  1  0.00588033  0.84271709  0.39671191  1  0  0.1089  0  0.956535  0  0  0.118618  0  1.01673  0  0  0.1209  0  1.017652  0  0  0.107526  0.117669  0  1.014966  0
H  H36  1  0.36152608  0.02352152  0.54613190  1  0  0.262353  0  0.978006  0  0  0.234717  0  1.060741  0  0  0.24331  0  1.054238  0  0  0.287465  0.228997  0  1.064726  0
H  H37  1  0.63847457  0.97648002  0.45386620  1  0  0.262382  0  0.977932  0  0  0.234773  0  1.060658  0  0  0.243365  0  1.054155  0  0  0.287509  0.22905  0  1.064641  0
H  H38  1  0.27401051  0.65310004  0.58679924  1  0  0.272552  0  0.901483  0  0  0.262731  0  0.956536  0  0  0.267755  0  0.954659  0  0  0.307727  0.259073  0  0.958196  0
H  H39  1  0.72599016  0.34690045  0.41320100  1  0  0.272561  0  0.901425  0  0  0.262731  0  0.956493  0  0  0.267756  0  0.954617  0  0  0.307726  0.259077  0  0.958152  0
C  C40  1  0.08915478  0.42961405  0.32674162  1  0  0.618028  0  3.934047  0  0  0.573941  0  4.217372  0  0  0.607452  0  4.211712  0  0  0.187579  0.550633  0  4.221268  0
C  C41  1  0.91084585  0.57038748  0.67326014  1  0  0.617926  0  3.934088  0  0  0.573863  0  4.217418  0  0  0.607372  0  4.211759  0  0  0.1875  0.550556  0  4.221309  0
C  C42  1  0.18450147  0.39525881  0.42306287  1  0  -0.01611  0  3.824979  0  0  0.00725  0  4.059734  0  0  0.006351  0  4.078355  0  0  -0.023091  0.007663  0  4.047774  0
C  C43  1  0.81549812  0.60474271  0.57693818  1  0  -0.01619  0  3.824892  0  0  0.007133  0  4.059682  0  0  0.006239  0  4.078298  0  0  -0.023159  0.007551  0  4.047711  0
C  C44  1  0.04315947  0.88255626  0.95965507  1  0  -0.058141  0  3.746354  0  0  -0.035726  0  3.977426  0  0  -0.042029  0  3.998605  0  0  -0.014235  -0.031042  0  3.962486  0
C  C45  1  0.95684233  0.11744111  0.04034500  1  0  -0.058156  0  3.746524  0  0  -0.035778  0  3.977576  0  0  -0.042075  0  3.998754  0  0  -0.014306  -0.031094  0  3.962635  0
C  C46  1  0.28737907  0.45650776  0.57675544  1  0  0.239564  0  3.839987  0  0  0.237859  0  4.091067  0  0  0.247809  0  4.110372  0  0  0.076855  0.231018  0  4.078056  0
C  C47  1  0.71262259  0.54349482  0.42324397  1  0  0.239575  0  3.840109  0  0  0.237873  0  4.09116  0  0  0.247826  0  4.110466  0  0  0.076885  0.231028  0  4.07815  0
C  C48  1  0.09239668  0.75972334  0.91356530  1  0  0.651309  0  3.894851  0  0  0.601258  0  4.183137  0  0  0.636461  0  4.174583  0  0  0.203599  0.577413  0  4.188592  0
C  C49  1  0.90760300  0.24027505  0.08643487  1  0  0.651176  0  3.89496  0  0  0.601169  0  4.183198  0  0  0.636368  0  4.174646  0  0  0.203551  0.577322  0  4.188658  0
C  C50  1  0.32776120  0.22329490  0.55680004  1  0  0.274613  0  3.870606  0  0  0.268343  0  4.11889  0  0  0.280562  0  4.138307  0  0  0.098794  0.260292  0  4.10507  0
C  C51  1  0.67224048  0.77670664  0.44319968  1  0  0.274675  0  3.870639  0  0  0.268355  0  4.119008  0  0  0.280572  0  4.138427  0  0  0.098805  0.260311  0  4.105174  0
C  C52  1  0.20722830  0.49457193  0.47901723  1  0  -0.225745  0  3.73436  0  0  -0.25944  0  3.993061  0  0  -0.264999  0  4.011555  0  0  -0.120057  -0.255405  0  3.981464  0
C  C53  1  0.79277237  0.50542855  0.52098393  1  0  -0.22572  0  3.734389  0  0  -0.259401  0  3.993087  0  0  -0.264963  0  4.01158  0  0  -0.120053  -0.255364  0  3.981486  0
C  C54  1  0.34860090  0.32278007  0.61513798  1  0  -0.291654  0  3.670487  0  0  -0.312769  0  3.920757  0  0  -0.321169  0  3.938689  0  0  -0.124627  -0.307391  0  3.908916  0
C  C55  1  0.65140078  0.67722147  0.38486174  1  0  -0.291707  0  3.670506  0  0  -0.31282  0  3.920822  0  0  -0.321219  0  3.938756  0  0  -0.124647  -0.307442  0  3.908981  0
C  C56  1  0.42382258  0.45129711  0.82863749  1  0  0.23259  0  3.727174  0  0  0.234696  0  3.970275  0  0  0.242776  0  3.991458  0  0  0.120508  0.229282  0  3.955643  0
C  C57  1  0.57617715  0.54869919  0.17136331  1  0  0.23261  0  3.72706  0  0  0.234679  0  3.970208  0  0  0.242762  0  3.991389  0  0  0.120455  0.229268  0  3.95558  0
C  C58  1  0.10290994  0.01295888  0.88623316  1  0  -0.08495  0  3.73639  0  0  -0.107036  0  3.983929  0  0  -0.108117  0  4.003754  0  0  -0.085925  -0.105938  0  3.969486  0
C  C59  1  0.89709185  0.98703849  0.11376782  1  0  -0.085039  0  3.736426  0  0  -0.107065  0  3.983949  0  0  -0.108145  0  4.003771  0  0  -0.085894  -0.105963  0  3.969507  0
C  C60  1  0.24390329  0.26168596  0.46055316  1  0  -0.230846  0  3.726467  0  0  -0.261209  0  3.982002  0  0  -0.267115  0  3.999726  0  0  -0.115756  -0.256755  0  3.970264  0
C  C61  1  0.75609732  0.73831661  0.53944646  1  0  -0.230765  0  3.726383  0  0  -0.261107  0  3.981946  0  0  -0.267014  0  3.99967  0  0  -0.115719  -0.256659  0  3.970204  0
C  C62  1  0.42506308  0.55323073  0.69140639  1  0  -0.043681  0  3.675723  0  0  -0.109061  0  3.931142  0  0  -0.105557  0  3.941457  0  0  -0.061675  -0.111564  0  3.924424  0
C  C63  1  0.57493764  0.44676767  0.30859449  1  0  -0.043756  0  3.675782  0  0  -0.109128  0  3.931208  0  0  -0.105627  0  3.941523  0  0  -0.06169  -0.11164  0  3.924495  0
C  C64  1  0.54974111  0.40179493  0.86897873  1  0  -0.163687  0  3.692597  0  0  -0.179678  0  3.93804  0  0  -0.188033  0  3.960192  0  0  -0.083572  -0.173921  0  3.923481  0
C  C65  1  0.45025645  0.59820449  0.13102245  1  0  -0.163715  0  3.692511  0  0  -0.179708  0  3.937975  0  0  -0.188066  0  3.960134  0  0  -0.083555  -0.173945  0  3.923417  0
C  C66  1  0.60538432  0.07297047  0.67434438  1  0  0.210682  0  3.744585  0  0  0.215098  0  3.995481  0  0  0.221127  0  4.016538  0  0  0.110805  0.210827  0  3.981287  0
C  C67  1  0.39461427  0.92703001  0.32565445  1  0  0.210748  0  3.744534  0  0  0.215138  0  3.995458  0  0  0.221162  0  4.016514  0  0  0.110853  0.210868  0  3.981262  0
C  C68  1  0.29550445  0.33315771  0.03733652  1  0  0.138612  0  3.693345  0  0  0.108708  0  3.94325  0  0  0.116102  0  3.962155  0  0  0.046201  0.10377  0  3.930589  0
C  C69  1  0.70449529  0.66683860  0.96266336  1  0  0.138601  0  3.693407  0  0  0.108696  0  3.943306  0  0  0.11609  0  3.962211  0  0  0.04622  0.103762  0  3.93064  0
C  C70  1  0.93916554  0.87076216  0.07370020  1  0  -0.064274  0  3.730114  0  0  -0.087603  0  3.980253  0  0  -0.087592  0  3.999199  0  0  -0.08361  -0.087301  0  3.966631  0
C  C71  1  0.06083521  0.12923520  0.92630008  1  0  -0.064292  0  3.730204  0  0  -0.087561  0  3.980333  0  0  -0.087555  0  3.999286  0  0  -0.083583  -0.087259  0  3.96671  0
C  C72  1  0.45345428  0.03345245  0.70052535  1  0  -0.0206  0  3.732764  0  0  -0.089915  0  3.996686  0  0  -0.084441  0  4.005588  0  0  -0.053744  -0.093529  0  3.990149  0
C  C73  1  0.54654640  0.96654804  0.29947398  1  0  -0.0206  0  3.732635  0  0  -0.089905  0  3.996595  0  0  -0.084421  0  4.005484  0  0  -0.053759  -0.093521  0  3.990062  0
C  C74  1  0.54611663  0.31774969  0.99946910  1  0  0.002495  0  3.714208  0  0  -0.015573  0  3.962285  0  0  -0.011023  0  3.980133  0  0  -0.067331  -0.018326  0  3.949643  0
C  C75  1  0.45388198  0.68224974  0.00053188  1  0  0.002589  0  3.714201  0  0  -0.015507  0  3.962287  0  0  -0.010964  0  3.980132  0  0  -0.067315  -0.01826  0  3.949643  0
C  C76  1  0.41644066  0.28408662  0.08526838  1  0  -0.1315  0  3.74987  0  0  -0.145636  0  4.004876  0  0  -0.15361  0  4.027646  0  0  -0.088167  -0.140261  0  3.989716  0
C  C77  1  0.58355796  0.71591176  0.91473383  1  0  -0.131517  0  3.749897  0  0  -0.145648  0  4.004911  0  0  -0.153623  0  4.027682  0  0  -0.088185  -0.140266  0  3.989737  0
C  C78  1  0.65848424  0.09708341  0.77309125  1  0  -0.18465  0  3.755354  0  0  -0.198838  0  3.997867  0  0  -0.207581  0  4.021524  0  0  -0.09447  -0.19295  0  3.981711  0
C  C79  1  0.34151534  0.90291916  0.22690674  1  0  -0.18461  0  3.755397  0  0  -0.198762  0  3.997907  0  0  -0.207503  0  4.021564  0  0  -0.094462  -0.19287  0  3.981752  0
C  C80  1  0.82280320  0.10685630  0.53384759  1  0  0.109416  0  3.721429  0  0  0.082631  0  3.981549  0  0  0.088781  0  3.997446  0  0  0.040904  0.078283  0  3.971966  0
C  C81  1  0.17719643  0.89314418  0.46615103  1  0  0.109416  0  3.721438  0  0  0.082643  0  3.981566  0  0  0.088796  0  3.997455  0  0  0.040875  0.078299  0  3.971979  0
C  C82  1  0.79954180  0.12697570  0.74945396  1  0  0.007013  0  3.730479  0  0  -0.009752  0  3.973472  0  0  -0.006179  0  3.993572  0  0  -0.066574  -0.012716  0  3.960848  0
C  C83  1  0.20045779  0.87302688  0.25054312  1  0  0.007019  0  3.73047  0  0  -0.009739  0  3.973474  0  0  -0.006164  0  3.993569  0  0  -0.066578  -0.012717  0  3.960863  0
C  C84  1  0.88385788  0.13162683  0.62736085  1  0  -0.117219  0  3.723406  0  0  -0.129845  0  3.972132  0  0  -0.136936  0  3.993788  0  0  -0.083431  -0.125083  0  3.957764  0
C  C85  1  0.11614275  0.86837575  0.37263693  1  0  -0.117194  0  3.723433  0  0  -0.129851  0  3.972162  0  0  -0.136933  0  3.993822  0  0  -0.08342  -0.125094  0  3.957799  0
N  N86  1  0.29980204  0.41533909  0.91151353  1  0  -0.378307  0  3.256833  0  0  -0.303226  0  3.515487  0  0  -0.325605  0  3.535578  0  0  -0.329692  -0.287808  0  3.501553  0
N  N87  1  0.70019773  0.58465618  0.08848575  1  0  -0.378311  0  3.256879  0  0  -0.303193  0  3.515495  0  0  -0.325571  0  3.535583  0  0  -0.32968  -0.28778  0  3.501567  0
N  N88  1  0.29877638  0.55436490  0.64102397  1  0  -0.424845  0  3.304449  0  0  -0.352727  0  3.545225  0  0  -0.371926  0  3.554928  0  0  -0.454869  -0.338606  0  3.538378  0
N  N89  1  0.70122424  0.44563768  0.35897473  1  0  -0.424874  0  3.304483  0  0  -0.352739  0  3.54523  0  0  -0.371942  0  3.55494  0  0  -0.454889  -0.338621  0  3.538393  0
N  N90  1  0.38337653  0.09072788  0.59190370  1  0  -0.401291  0  3.379955  0  0  -0.33917  0  3.632274  0  0  -0.359211  0  3.64333  0  0  -0.44395  -0.325431  0  3.623698  0
N  N91  1  0.61662516  0.90927367  0.40809511  1  0  -0.401345  0  3.379989  0  0  -0.339257  0  3.632333  0  0  -0.359298  0  3.643381  0  0  -0.443999  -0.32552  0  3.623759  0
N  N92  1  0.68644491  0.07819926  0.55619245  1  0  -0.347265  0  3.103939  0  0  -0.301558  0  3.358997  0  0  -0.314256  0  3.373681  0  0  -0.314708  -0.293028  0  3.349071  0
N  N93  1  0.31355472  0.92180123  0.44380617  1  0  -0.347341  0  3.103942  0  0  -0.301623  0  3.359006  0  0  -0.314323  0  3.373694  0  0  -0.314747  -0.293092  0  3.349077  0
O  O94  1  0.06208577  0.55718025  0.26612191  1  0  -0.632594  0  1.914476  0  0  -0.569898  0  2.143243  0  0  -0.59872  0  2.136794  0  0  -0.33506  -0.549457  0  2.147698  0
O  O95  1  0.93791486  0.44282128  0.73387985  1  0  -0.632488  0  1.914508  0  0  -0.569793  0  2.14325  0  0  -0.598615  0  2.1368  0  0  -0.334961  -0.549357  0  2.147703  0
O  O96  1  0.03524710  0.32814716  0.31059456  1  0  -0.643707  0  1.949648  0  0  -0.582225  0  2.185358  0  0  -0.610713  0  2.177475  0  0  -0.335455  -0.562116  0  2.190822  0
O  O97  1  0.96475250  0.67185436  0.68940649  1  0  -0.643682  0  1.949747  0  0  -0.582202  0  2.18545  0  0  -0.610696  0  2.177584  0  0  -0.335431  -0.562096  0  2.190914  0
O  O98  1  0.01949951  0.64710291  0.96921720  1  0  -0.694003  0  2.143623  0  0  -0.606193  0  2.410243  0  0  -0.639827  0  2.397267  0  0  -0.343491  -0.582434  0  2.41845  0
O  O99  1  0.98050125  0.35289445  0.03078308  1  0  -0.693929  0  2.143614  0  0  -0.606144  0  2.410215  0  0  -0.639775  0  2.39724  0  0  -0.343481  -0.582384  0  2.418428  0
O  O100  1  0.19856054  0.76880942  0.82252076  1  0  -0.608677  0  1.884307  0  0  -0.56247  0  2.11038  0  0  -0.585028  0  2.100644  0  0  -0.322913  -0.547244  0  2.116647  0
O  O101  1  0.80143712  0.23118688  0.17747862  1  0  -0.608626  0  1.884309  0  0  -0.562429  0  2.110342  0  0  -0.584988  0  2.100602  0  0  -0.322887  -0.547201  0  2.11661  0
