# generated using pymatgen
data_CdH14C16N6O5
_symmetry_space_group_name_H-M   'P 1'
_cell_length_a   8.02246564
_cell_length_b   10.50473311
_cell_length_c   10.50471488
_cell_angle_alpha   99.25225703
_cell_angle_beta   93.51737284
_cell_angle_gamma   93.51725750
_symmetry_Int_Tables_number   1
_chemical_formula_structural   CdH14C16N6O5
_chemical_formula_sum   'Cd2 H28 C32 N12 O10'
_cell_volume   869.82793707
_cell_formula_units_Z   2
loop_
 _symmetry_equiv_pos_site_id
 _symmetry_equiv_pos_as_xyz
  1  'x, y, z'
loop_
 _atom_site_type_symbol
 _atom_site_label
 _atom_site_symmetry_multiplicity
 _atom_site_fract_x
 _atom_site_fract_y
 _atom_site_fract_z
 _atom_site_occupancy
 _atom_site_hle17_bader_spin_density
 _atom_site_hle17_ddec_charge
 _atom_site_hle17_ddec_spin_density
 _atom_site_hle17_ddec_sum_bond_order
 _atom_site_hle17_magmom
 _atom_site_hse06_10hf_bader_spin_density
 _atom_site_hse06_10hf_ddec_charge
 _atom_site_hse06_10hf_ddec_spin_density
 _atom_site_hse06_10hf_ddec_sum_bond_order
 _atom_site_hse06_10hf_magmom
 _atom_site_hse06_bader_spin_density
 _atom_site_hse06_ddec_charge
 _atom_site_hse06_ddec_spin_density
 _atom_site_hse06_ddec_sum_bond_order
 _atom_site_hse06_magmom
 _atom_site_pbe_bader_spin_density
 _atom_site_pbe_cm5_charge
 _atom_site_pbe_ddec_charge
 _atom_site_pbe_ddec_spin_density
 _atom_site_pbe_ddec_sum_bond_order
 _atom_site_pbe_magmom
Cd  Cd0  1  0.24999822  0.12168409  0.87831493  1  0  1.160555  0  1.643254  0  0  0.971625  0  2.08752  0  0  1.026694  0  2.034266  0  0  0.793541  0.932588  0  2.123913  0
Cd  Cd1  1  0.75000130  0.87831504  0.12168530  1  0  1.160595  0  1.643221  0  0  0.97168  0  2.087472  0  0  1.026749  0  2.034216  0  0  0.793548  0.932644  0  2.123866  0
H  H2  1  0.32135459  0.90773322  0.01456907  1  0  0.441727  0  0.857309  0  0  0.406545  0  0.927762  0  0  0.417207  0  0.912328  0  0  0.291508  0.399037  0  0.938608  0
H  H3  1  0.17864560  0.98543158  0.09226740  1  0  0.441747  0  0.857283  0  0  0.406553  0  0.927758  0  0  0.417215  0  0.912324  0  0  0.291513  0.399044  0  0.938606  0
H  H4  1  0.67864502  0.09226687  0.98543323  1  0  0.441725  0  0.857315  0  0  0.406541  0  0.927771  0  0  0.417203  0  0.912337  0  0  0.291504  0.399032  0  0.938619  0
H  H5  1  0.82135401  0.01456851  0.90773394  1  0  0.441747  0  0.857283  0  0  0.406562  0  0.92774  0  0  0.417223  0  0.912307  0  0  0.291516  0.399051  0  0.938591  0
H  H6  1  0.69869155  0.41051217  0.83378044  1  0  0.118612  0  0.924606  0  0  0.129821  0  0.990027  0  0  0.131496  0  0.989826  0  0  0.122758  0.128646  0  0.990235  0
H  H7  1  0.80130643  0.16622036  0.58948439  1  0  0.118608  0  0.924611  0  0  0.129856  0  0.990009  0  0  0.131532  0  0.989807  0  0  0.122771  0.128678  0  0.990218  0
H  H8  1  0.30131038  0.58948599  0.16621878  1  0  0.118645  0  0.924582  0  0  0.129851  0  0.990014  0  0  0.131527  0  0.989813  0  0  0.122775  0.128674  0  0.990223  0
H  H9  1  0.19869193  0.83377973  0.41051690  1  0  0.118576  0  0.924624  0  0  0.129803  0  0.990034  0  0  0.131479  0  0.989833  0  0  0.122767  0.128627  0  0.990241  0
H  H10  1  0.66050509  0.49547524  0.98879867  1  0  0.12655  0  0.942421  0  0  0.13994  0  1.0029  0  0  0.142468  0  1.001712  0  0  0.123127  0.138168  0  1.003791  0
H  H11  1  0.83949349  0.01120148  0.50452304  1  0  0.126538  0  0.942438  0  0  0.139916  0  1.002944  0  0  0.142444  0  1.001755  0  0  0.123109  0.138142  0  1.003835  0
H  H12  1  0.33949550  0.50452196  0.01120034  1  0  0.126544  0  0.942486  0  0  0.139937  0  1.002973  0  0  0.142468  0  1.001781  0  0  0.123106  0.138162  0  1.003866  0
H  H13  1  0.16050622  0.98879958  0.49547847  1  0  0.126517  0  0.94246  0  0  0.139932  0  1.002938  0  0  0.142463  0  1.001743  0  0  0.12311  0.138157  0  1.00383  0
H  H14  1  0.78472940  0.55121450  0.21468336  1  0  0.13403  0  0.955551  0  0  0.144096  0  1.013058  0  0  0.148247  0  1.010265  0  0  0.11206  0.141062  0  1.015275  0
H  H15  1  0.71527269  0.78532208  0.44878374  1  0  0.134028  0  0.955567  0  0  0.144112  0  1.013041  0  0  0.148256  0  1.010255  0  0  0.112079  0.141077  0  1.015257  0
H  H16  1  0.21526743  0.44878268  0.78531928  1  0  0.134019  0  0.955543  0  0  0.144053  0  1.013081  0  0  0.148232  0  1.010248  0  0  0.112063  0.141019  0  1.015297  0
H  H17  1  0.28472578  0.21467899  0.55121581  1  0  0.134035  0  0.955549  0  0  0.144096  0  1.013051  0  0  0.148255  0  1.010246  0  0  0.112068  0.141062  0  1.015268  0
H  H18  1  0.99343557  0.57495935  0.40567928  1  0  0.089345  0  0.949216  0  0  0.103462  0  1.005232  0  0  0.106054  0  1.004355  0  0  0.101365  0.10119  0  1.006755  0
H  H19  1  0.50657149  0.59432194  0.42504007  1  0  0.08933  0  0.949141  0  0  0.103462  0  1.005153  0  0  0.106042  0  1.004288  0  0  0.101357  0.101189  0  1.006677  0
H  H20  1  0.00656692  0.42504462  0.59431998  1  0  0.089327  0  0.949216  0  0  0.103445  0  1.00524  0  0  0.106037  0  1.004362  0  0  0.101356  0.101171  0  1.006764  0
H  H21  1  0.49342938  0.40567816  0.57495847  1  0  0.089334  0  0.94914  0  0  0.103438  0  1.005187  0  0  0.106031  0  1.004307  0  0  0.101372  0.101165  0  1.00671  0
H  H22  1  0.23217800  0.43575237  0.40659755  1  0  0.078101  0  0.993589  0  0  0.088583  0  1.059601  0  0  0.090409  0  1.060288  0  0  0.093736  0.087154  0  1.059542  0
H  H23  1  0.26783308  0.59339761  0.56425221  1  0  0.078003  0  0.993696  0  0  0.088504  0  1.059674  0  0  0.090327  0  1.060366  0  0  0.093728  0.087074  0  1.059614  0
H  H24  1  0.76782986  0.56425548  0.59339785  1  0  0.078014  0  0.993733  0  0  0.088563  0  1.059676  0  0  0.090389  0  1.060362  0  0  0.093747  0.087132  0  1.059617  0
H  H25  1  0.73216885  0.40660054  0.43574797  1  0  0.07801  0  0.993683  0  0  0.088501  0  1.059672  0  0  0.090324  0  1.060366  0  0  0.093736  0.087071  0  1.059613  0
H  H26  1  0.28340975  0.27607699  0.21334672  1  0  0.121621  0  0.936412  0  0  0.131344  0  0.994118  0  0  0.134252  0  0.99317  0  0  0.112293  0.129238  0  0.994905  0
H  H27  1  0.21660032  0.78664494  0.72392795  1  0  0.121619  0  0.936366  0  0  0.131293  0  0.994148  0  0  0.134201  0  0.993199  0  0  0.112323  0.129226  0  0.994884  0
H  H28  1  0.71659658  0.72392796  0.78664908  1  0  0.121646  0  0.936339  0  0  0.131346  0  0.994086  0  0  0.134255  0  0.993138  0  0  0.11231  0.129268  0  0.994839  0
H  H29  1  0.78340026  0.21335225  0.27607200  1  0  0.121645  0  0.936355  0  0  0.131304  0  0.994156  0  0  0.134213  0  0.993207  0  0  0.112313  0.129239  0  0.994892  0
C  C30  1  0.53353082  0.30486851  0.93950704  1  0  0.66794  0  3.919901  0  0  0.617302  0  4.231259  0  0  0.650138  0  4.224407  0  0  0.19747  0.59501  0  4.234994  0
C  C31  1  0.96646591  0.06049366  0.69513187  1  0  0.667857  0  3.919983  0  0  0.617173  0  4.231427  0  0  0.650009  0  4.224576  0  0  0.197399  0.594879  0  4.23516  0
C  C32  1  0.46646870  0.69513063  0.06049128  1  0  0.667954  0  3.919843  0  0  0.617278  0  4.231263  0  0  0.650116  0  4.224409  0  0  0.197451  0.594984  0  4.234999  0
C  C33  1  0.03353254  0.93950739  0.30487053  1  0  0.668026  0  3.919747  0  0  0.617301  0  4.231248  0  0  0.650137  0  4.224396  0  0  0.19743  0.595008  0  4.234984  0
C  C34  1  0.68426798  0.40054294  0.93479254  1  0  -0.175667  0  3.62224  0  0  -0.248954  0  3.870133  0  0  -0.250134  0  3.875171  0  0  -0.051818  -0.248103  0  3.866756  0
C  C35  1  0.81573023  0.06520803  0.59945544  1  0  -0.175617  0  3.622307  0  0  -0.248914  0  3.87019  0  0  -0.250099  0  3.875233  0  0  -0.051798  -0.248058  0  3.866808  0
C  C36  1  0.31573135  0.59945426  0.06520545  1  0  -0.175738  0  3.622348  0  0  -0.249038  0  3.870266  0  0  -0.250226  0  3.875315  0  0  -0.051818  -0.248181  0  3.866886  0
C  C37  1  0.18426813  0.93479205  0.40054679  1  0  -0.175568  0  3.622261  0  0  -0.248868  0  3.870167  0  0  -0.250054  0  3.875217  0  0  -0.051793  -0.24801  0  3.866785  0
C  C38  1  0.91978532  0.39855289  0.10899507  1  0  0.095268  0  3.766317  0  0  0.065809  0  4.020326  0  0  0.069701  0  4.041745  0  0  0.10655  0.063231  0  4.005988  0
C  C39  1  0.58021867  0.89100344  0.60144783  1  0  0.095184  0  3.766369  0  0  0.065754  0  4.020404  0  0  0.069649  0  4.04182  0  0  0.106613  0.063177  0  4.006061  0
C  C40  1  0.08021679  0.60144721  0.89100353  1  0  0.09519  0  3.766418  0  0  0.065734  0  4.02045  0  0  0.069627  0  4.041877  0  0  0.106575  0.063156  0  4.006109  0
C  C41  1  0.41978085  0.10899569  0.39855145  1  0  0.095233  0  3.766289  0  0  0.065806  0  4.020322  0  0  0.069701  0  4.041742  0  0  0.106617  0.063229  0  4.005977  0
C  C42  1  0.89048590  0.49086159  0.21584376  1  0  -0.131849  0  3.712989  0  0  -0.152991  0  3.973143  0  0  -0.156325  0  3.991966  0  0  -0.086458  -0.15076  0  3.960734  0
C  C43  1  0.60951554  0.78415647  0.50913828  1  0  -0.131946  0  3.713175  0  0  -0.153102  0  3.973342  0  0  -0.15643  0  3.992167  0  0  -0.086539  -0.150869  0  3.960929  0
C  C44  1  0.10951131  0.50913948  0.78415573  1  0  -0.131892  0  3.713129  0  0  -0.152994  0  3.973289  0  0  -0.15635  0  3.992101  0  0  -0.086481  -0.150763  0  3.960878  0
C  C45  1  0.39048283  0.21584364  0.49086015  1  0  -0.131928  0  3.713124  0  0  -0.153055  0  3.973263  0  0  -0.156396  0  3.992085  0  0  -0.086522  -0.150822  0  3.960849  0
C  C46  1  0.00745963  0.50242704  0.32096516  1  0  -0.062649  0  3.763373  0  0  -0.080219  0  4.019864  0  0  -0.081233  0  4.041242  0  0  -0.089507  -0.079325  0  4.006052  0
C  C47  1  0.49254837  0.67903510  0.49757477  1  0  -0.062514  0  3.763293  0  0  -0.080092  0  4.019781  0  0  -0.081095  0  4.04116  0  0  -0.089442  -0.0792  0  4.005967  0
C  C48  1  0.99254401  0.49757596  0.67903495  1  0  -0.062606  0  3.763404  0  0  -0.080178  0  4.019896  0  0  -0.081193  0  4.041283  0  0  -0.089487  -0.079283  0  4.006081  0
C  C49  1  0.50745115  0.32096405  0.50242260  1  0  -0.062545  0  3.763277  0  0  -0.080097  0  4.019756  0  0  -0.081113  0  4.041138  0  0  -0.089459  -0.079204  0  4.005941  0
C  C50  1  0.14553028  0.42439153  0.32103091  1  0  -0.092421  0  3.794501  0  0  -0.109209  0  4.048993  0  0  -0.113058  0  4.072819  0  0  -0.09868  -0.106444  0  4.032862  0
C  C51  1  0.35447806  0.67896418  0.57561069  1  0  -0.092496  0  3.794585  0  0  -0.109285  0  4.049086  0  0  -0.113134  0  4.072907  0  0  -0.098748  -0.106523  0  4.032969  0
C  C52  1  0.85447346  0.57561246  0.67896461  1  0  -0.092383  0  3.794614  0  0  -0.10922  0  4.049102  0  0  -0.11307  0  4.072927  0  0  -0.098714  -0.106457  0  4.032979  0
C  C53  1  0.64552262  0.32103399  0.42438752  1  0  -0.092477  0  3.794521  0  0  -0.109262  0  4.049016  0  0  -0.11311  0  4.07284  0  0  -0.098746  -0.1065  0  4.032899  0
C  C54  1  0.17555342  0.33435337  0.21460924  1  0  -0.107609  0  3.711816  0  0  -0.126081  0  3.959005  0  0  -0.126528  0  3.977535  0  0  -0.078684  -0.125743  0  3.946416  0
C  C55  1  0.32445534  0.78538587  0.66564977  1  0  -0.107474  0  3.711568  0  0  -0.125894  0  3.958827  0  0  -0.12634  0  3.977356  0  0  -0.078586  -0.125587  0  3.946225  0
C  C56  1  0.82445013  0.66564868  0.78538785  1  0  -0.107537  0  3.711532  0  0  -0.125995  0  3.958803  0  0  -0.126442  0  3.977334  0  0  -0.078604  -0.125679  0  3.946203  0
C  C57  1  0.67554534  0.21461230  0.33434845  1  0  -0.107474  0  3.711565  0  0  -0.125891  0  3.958834  0  0  -0.126337  0  3.977362  0  0  -0.078585  -0.125586  0  3.946233  0
C  C58  1  0.06055369  0.32347251  0.10667929  1  0  0.122311  0  3.820583  0  0  0.118035  0  4.07527  0  0  0.119393  0  4.097381  0  0  0.096871  0.117126  0  4.06036  0
C  C59  1  0.43944884  0.89331827  0.67653106  1  0  0.122495  0  3.820198  0  0  0.118131  0  4.075018  0  0  0.119488  0  4.097128  0  0  0.096792  0.117218  0  4.060119  0
C  C60  1  0.93944496  0.67653050  0.89332058  1  0  0.122429  0  3.820271  0  0  0.118111  0  4.075032  0  0  0.119469  0  4.097142  0  0  0.096774  0.117201  0  4.060129  0
C  C61  1  0.56055059  0.10667989  0.32346900  1  0  0.122395  0  3.820269  0  0  0.118043  0  4.075063  0  0  0.1194  0  4.097173  0  0  0.096755  0.117132  0  4.060162  0
N  N62  1  0.84025437  0.36210375  0.98813426  1  0  0.033972  0  3.546679  0  0  0.14383  0  3.740911  0  0  0.133543  0  3.76373  0  0  -0.120559  0.15042  0  3.725854  0
N  N63  1  0.65974427  0.01186673  0.63789564  1  0  0.033988  0  3.546855  0  0  0.143809  0  3.741138  0  0  0.133523  0  3.763957  0  0  -0.120561  0.150396  0  3.726079  0
N  N64  1  0.15974506  0.63789441  0.01186581  1  0  0.034049  0  3.546787  0  0  0.143905  0  3.741001  0  0  0.133621  0  3.763819  0  0  -0.120543  0.150493  0  3.725943  0
N  N65  1  0.34025400  0.98813240  0.36210453  1  0  0.033939  0  3.546856  0  0  0.14374  0  3.74117  0  0  0.133452  0  3.76399  0  0  -0.12057  0.150327  0  3.726112  0
N  N66  1  0.92379181  0.27310673  0.91626462  1  0  -0.03958  0  2.892829  0  0  -0.058231  0  3.173278  0  0  -0.051134  0  3.183886  0  0  -0.063795  -0.062691  0  3.166348  0
N  N67  1  0.57620662  0.08373569  0.72689346  1  0  -0.039587  0  2.892872  0  0  -0.058226  0  3.173317  0  0  -0.05113  0  3.183925  0  0  -0.06382  -0.062687  0  3.166385  0
N  N68  1  0.07620887  0.72689143  0.08373550  1  0  -0.039538  0  2.892876  0  0  -0.058172  0  3.173301  0  0  -0.051077  0  3.18391  0  0  -0.063772  -0.062633  0  3.166372  0
N  N69  1  0.42379165  0.91626343  0.27310861  1  0  -0.039472  0  2.892831  0  0  -0.058094  0  3.173241  0  0  -0.050998  0  3.183849  0  0  -0.06375  -0.062556  0  3.166311  0
N  N70  1  0.05573668  0.24938839  0.98579414  1  0  -0.261495  0  3.147954  0  0  -0.207224  0  3.439578  0  0  -0.220266  0  3.452504  0  0  -0.203212  -0.19821  0  3.430746  0
N  N71  1  0.44426558  0.01420468  0.75061465  1  0  -0.261627  0  3.147971  0  0  -0.207319  0  3.439609  0  0  -0.220359  0  3.452532  0  0  -0.203218  -0.198305  0  3.430775  0
N  N72  1  0.94426418  0.75061169  0.01420726  1  0  -0.261675  0  3.148044  0  0  -0.207399  0  3.439698  0  0  -0.220439  0  3.45262  0  0  -0.203253  -0.198385  0  3.430864  0
N  N73  1  0.55573385  0.98579348  0.24938636  1  0  -0.261685  0  3.147968  0  0  -0.20737  0  3.439591  0  0  -0.22041  0  3.452513  0  0  -0.20324  -0.198356  0  3.430758  0
O  O74  1  0.40163579  0.32599493  0.87453597  1  0  -0.65482  0  1.961721  0  0  -0.596996  0  2.205672  0  0  -0.625425  0  2.196168  0  0  -0.335941  -0.576881  0  2.211369  0
O  O75  1  0.09836254  0.12546668  0.67400393  1  0  -0.654811  0  1.961632  0  0  -0.596978  0  2.205609  0  0  -0.625404  0  2.196098  0  0  -0.335935  -0.576862  0  2.211306  0
O  O76  1  0.59836364  0.67400323  0.12546409  1  0  -0.654799  0  1.961652  0  0  -0.596983  0  2.205655  0  0  -0.625408  0  2.196144  0  0  -0.335921  -0.576869  0  2.211352  0
O  O77  1  0.90163708  0.87453341  0.32599742  1  0  -0.654875  0  1.961632  0  0  -0.597032  0  2.205636  0  0  -0.625455  0  2.196123  0  0  -0.335947  -0.576917  0  2.211335  0
O  O78  1  0.54436473  0.21433814  0.00470592  1  0  -0.647434  0  1.98689  0  0  -0.591026  0  2.219459  0  0  -0.617479  0  2.210844  0  0  -0.322874  -0.572521  0  2.224815  0
O  O79  1  0.95563348  0.99529760  0.78566211  1  0  -0.647381  0  1.986968  0  0  -0.590948  0  2.219533  0  0  -0.6174  0  2.210921  0  0  -0.322836  -0.572446  0  2.22489  0
O  O80  1  0.45563613  0.78566195  0.99529453  1  0  -0.647446  0  1.986906  0  0  -0.591025  0  2.219489  0  0  -0.617478  0  2.210872  0  0  -0.322871  -0.572522  0  2.224845  0
O  O81  1  0.04436488  0.00470249  0.21434013  1  0  -0.64751  0  1.986847  0  0  -0.591052  0  2.219431  0  0  -0.617503  0  2.210816  0  0  -0.322868  -0.572551  0  2.224789  0
O  O82  1  0.25000029  0.98185360  0.01814793  1  0  -0.872452  0  1.881479  0  0  -0.807251  0  2.096049  0  0  -0.829311  0  2.060443  0  0  -0.605955  -0.791739  0  2.120655  0
O  O83  1  0.74999932  0.01814648  0.98185436  1  0  -0.872454  0  1.881458  0  0  -0.807259  0  2.096026  0  0  -0.829318  0  2.060421  0  0  -0.605948  -0.791745  0  2.120635  0
