# generated using pymatgen
data_LiH8C4SClO2
_symmetry_space_group_name_H-M   'P 1'
_cell_length_a   6.46164387
_cell_length_b   9.49963270
_cell_length_c   10.77510286
_cell_angle_alpha   90.00086446
_cell_angle_beta   90.00004230
_cell_angle_gamma   90.00063517
_symmetry_Int_Tables_number   1
_chemical_formula_structural   LiH8C4SClO2
_chemical_formula_sum   'Li4 H32 C16 S4 Cl4 O8'
_cell_volume   661.41076075
_cell_formula_units_Z   4
loop_
 _symmetry_equiv_pos_site_id
 _symmetry_equiv_pos_as_xyz
  1  'x, y, z'
loop_
 _atom_site_type_symbol
 _atom_site_label
 _atom_site_symmetry_multiplicity
 _atom_site_fract_x
 _atom_site_fract_y
 _atom_site_fract_z
 _atom_site_occupancy
 _atom_site_hle17_bader_spin_density
 _atom_site_hle17_ddec_charge
 _atom_site_hle17_ddec_spin_density
 _atom_site_hle17_ddec_sum_bond_order
 _atom_site_hle17_magmom
 _atom_site_hse06_10hf_bader_spin_density
 _atom_site_hse06_10hf_ddec_charge
 _atom_site_hse06_10hf_ddec_spin_density
 _atom_site_hse06_10hf_ddec_sum_bond_order
 _atom_site_hse06_10hf_magmom
 _atom_site_hse06_bader_spin_density
 _atom_site_hse06_ddec_charge
 _atom_site_hse06_ddec_spin_density
 _atom_site_hse06_ddec_sum_bond_order
 _atom_site_hse06_magmom
 _atom_site_pbe_bader_spin_density
 _atom_site_pbe_cm5_charge
 _atom_site_pbe_ddec_charge
 _atom_site_pbe_ddec_spin_density
 _atom_site_pbe_ddec_sum_bond_order
 _atom_site_pbe_magmom
Li  Li0  1  0.10554519  0.59500434  0.98012830  1  0  0.838452  0  0.405113  0  0  0.792284  0  0.519853  0  0  0.800809  0  0.505677  0  0  0.368916  0.786506  0  0.529259  0
Li  Li1  1  0.60554515  0.09501667  0.51986495  1  0  0.838435  0  0.405184  0  0  0.792288  0  0.519892  0  0  0.800809  0  0.505721  0  0  0.36892  0.786509  0  0.529301  0
Li  Li2  1  0.10554122  0.90497946  0.48013237  1  0  0.838438  0  0.405192  0  0  0.792297  0  0.519873  0  0  0.800817  0  0.5057  0  0  0.368926  0.786521  0  0.529274  0
Li  Li3  1  0.60554273  0.40499494  0.01986809  1  0  0.838454  0  0.405144  0  0  0.792289  0  0.519855  0  0  0.800815  0  0.505679  0  0  0.368913  0.786504  0  0.529273  0
H  H4  1  0.29252164  0.56287416  0.21504030  1  0  0.136709  0  0.965626  0  0  0.143347  0  1.033698  0  0  0.146763  0  1.032006  0  0  0.112046  0.140822  0  1.035216  0
H  H5  1  0.79254050  0.06287624  0.28495286  1  0  0.136806  0  0.965606  0  0  0.143489  0  1.033581  0  0  0.146907  0  1.031885  0  0  0.112109  0.140966  0  1.035099  0
H  H6  1  0.29254823  0.93713181  0.71504083  1  0  0.136754  0  0.96558  0  0  0.143454  0  1.033598  0  0  0.14687  0  1.031905  0  0  0.112089  0.14093  0  1.035115  0
H  H7  1  0.79254078  0.43711285  0.78495710  1  0  0.136764  0  0.965715  0  0  0.143481  0  1.03363  0  0  0.146899  0  1.031937  0  0  0.112133  0.140958  0  1.035147  0
H  H8  1  0.26939965  0.62588942  0.37197194  1  0  0.129969  0  0.93688  0  0  0.141901  0  0.998211  0  0  0.14431  0  0.99776  0  0  0.11365  0.140178  0  0.998654  0
H  H9  1  0.76939820  0.12589832  0.12803042  1  0  0.129958  0  0.936896  0  0  0.141871  0  0.998255  0  0  0.144277  0  0.997807  0  0  0.113652  0.140148  0  0.998699  0
H  H10  1  0.26940973  0.87409904  0.87196512  1  0  0.129984  0  0.936843  0  0  0.14193  0  0.998211  0  0  0.144337  0  0.997761  0  0  0.113685  0.140208  0  0.998653  0
H  H11  1  0.76939281  0.37410268  0.62802731  1  0  0.12994  0  0.936893  0  0  0.141858  0  0.998245  0  0  0.144265  0  0.997797  0  0  0.113661  0.140136  0  0.998689  0
H  H12  1  0.00884788  0.39469421  0.24485507  1  0  0.082877  0  0.958469  0  0  0.098633  0  1.020651  0  0  0.099932  0  1.021001  0  0  0.090418  0.097596  0  1.020638  0
H  H13  1  0.50887025  0.89469235  0.25514428  1  0  0.082924  0  0.958479  0  0  0.098633  0  1.020681  0  0  0.09993  0  1.021034  0  0  0.090449  0.097596  0  1.020666  0
H  H14  1  0.00887523  0.10531147  0.74485671  1  0  0.082936  0  0.958383  0  0  0.098601  0  1.02062  0  0  0.099895  0  1.020977  0  0  0.090423  0.097564  0  1.020607  0
H  H15  1  0.50888058  0.60530645  0.75514314  1  0  0.082871  0  0.958471  0  0  0.09858  0  1.020678  0  0  0.099874  0  1.021029  0  0  0.090402  0.097545  0  1.020662  0
H  H16  1  0.13766801  0.37977114  0.38966290  1  0  0.096608  0  0.945547  0  0  0.111521  0  1.00691  0  0  0.112718  0  1.00761  0  0  0.094537  0.110748  0  1.006336  0
H  H17  1  0.63767008  0.87977945  0.11033538  1  0  0.096628  0  0.945522  0  0  0.111525  0  1.006882  0  0  0.112723  0  1.00758  0  0  0.094549  0.110752  0  1.006308  0
H  H18  1  0.13769406  0.12021902  0.88966473  1  0  0.096617  0  0.94557  0  0  0.11143  0  1.007027  0  0  0.112626  0  1.007728  0  0  0.094487  0.110658  0  1.006449  0
H  H19  1  0.63769613  0.62022313  0.61034093  1  0  0.096641  0  0.945575  0  0  0.11145  0  1.007032  0  0  0.112647  0  1.00773  0  0  0.094503  0.11068  0  1.006448  0
H  H20  1  0.74336878  0.42826386  0.40733557  1  0  0.093284  0  0.945543  0  0  0.10839  0  1.007602  0  0  0.109935  0  1.007594  0  0  0.100092  0.107235  0  1.007641  0
H  H21  1  0.24336678  0.92826075  0.09267825  1  0  0.093238  0  0.945569  0  0  0.108371  0  1.0076  0  0  0.109918  0  1.007596  0  0  0.100092  0.107214  0  1.007641  0
H  H22  1  0.74338474  0.07173536  0.90732377  1  0  0.093257  0  0.945707  0  0  0.108332  0  1.007746  0  0  0.109871  0  1.007748  0  0  0.100086  0.107177  0  1.007786  0
H  H23  1  0.24338429  0.57174804  0.59267201  1  0  0.093282  0  0.945513  0  0  0.108364  0  1.007568  0  0  0.109908  0  1.007567  0  0  0.100107  0.10721  0  1.007606  0
H  H24  1  0.89940292  0.55669637  0.48321881  1  0  0.078075  0  0.946244  0  0  0.096816  0  1.004602  0  0  0.097713  0  1.005377  0  0  0.095589  0.096044  0  1.004225  0
H  H25  1  0.39938646  0.05669225  0.01678360  1  0  0.078052  0  0.946322  0  0  0.096829  0  1.004646  0  0  0.097735  0  1.005415  0  0  0.095601  0.096056  0  1.004271  0
H  H26  1  0.89941414  0.94330503  0.98322962  1  0  0.078146  0  0.946061  0  0  0.09688  0  1.004406  0  0  0.097787  0  1.005159  0  0  0.095605  0.096106  0  1.00403  0
H  H27  1  0.39941005  0.44331881  0.51677864  1  0  0.078014  0  0.946293  0  0  0.09679  0  1.00462  0  0  0.097698  0  1.005378  0  0  0.095541  0.096016  0  1.004245  0
H  H28  1  0.68810845  0.58335760  0.22800003  1  0  0.138946  0  0.946644  0  0  0.146781  0  1.012522  0  0  0.149865  0  1.011482  0  0  0.115644  0.144363  0  1.013872  0
H  H29  1  0.18812481  0.08336203  0.27201192  1  0  0.138932  0  0.946606  0  0  0.146758  0  1.012474  0  0  0.14984  0  1.011432  0  0  0.11562  0.144338  0  1.013827  0
H  H30  1  0.68813935  0.91664420  0.72799007  1  0  0.138932  0  0.94664  0  0  0.146806  0  1.012485  0  0  0.149881  0  1.01144  0  0  0.115628  0.144385  0  1.013836  0
H  H31  1  0.18812475  0.41664547  0.77199918  1  0  0.138998  0  0.946565  0  0  0.146839  0  1.012399  0  0  0.149919  0  1.011355  0  0  0.115634  0.14442  0  1.01375  0
H  H32  1  0.68036848  0.70710870  0.35526647  1  0  0.142796  0  0.946687  0  0  0.154146  0  1.005746  0  0  0.156884  0  1.005008  0  0  0.107668  0.152194  0  1.006418  0
H  H33  1  0.18037539  0.20711096  0.14474529  1  0  0.142755  0  0.946734  0  0  0.154074  0  1.005805  0  0  0.156808  0  1.005068  0  0  0.107647  0.152117  0  1.006475  0
H  H34  1  0.68038342  0.79288783  0.85525577  1  0  0.142786  0  0.946695  0  0  0.154139  0  1.005787  0  0  0.156866  0  1.005047  0  0  0.107648  0.152183  0  1.006454  0
H  H35  1  0.18037021  0.29289852  0.64472810  1  0  0.142819  0  0.946726  0  0  0.154194  0  1.005726  0  0  0.156925  0  1.00499  0  0  0.10769  0.152243  0  1.006385  0
C  C36  1  0.18604117  0.57913926  0.29315287  1  0  -0.304376  0  3.554503  0  0  -0.339912  0  3.805878  0  0  -0.344295  0  3.812697  0  0  -0.144523  -0.336902  0  3.801615  0
C  C37  1  0.68604601  0.07914213  0.20684697  1  0  -0.304508  0  3.554776  0  0  -0.340089  0  3.806209  0  0  -0.344468  0  3.813013  0  0  -0.144581  -0.337082  0  3.801949  0
C  C38  1  0.18605357  0.92086303  0.79314853  1  0  -0.304382  0  3.554548  0  0  -0.340143  0  3.80616  0  0  -0.344519  0  3.812966  0  0  -0.144551  -0.337129  0  3.801895  0
C  C39  1  0.68604603  0.42085642  0.70685005  1  0  -0.304386  0  3.554784  0  0  -0.339973  0  3.806167  0  0  -0.344359  0  3.812974  0  0  -0.144534  -0.336963  0  3.801905  0
C  C40  1  0.05332780  0.45251312  0.32907833  1  0  -0.102573  0  3.663617  0  0  -0.144065  0  3.923774  0  0  -0.145331  0  3.937388  0  0  -0.166032  -0.143053  0  3.914208  0
C  C41  1  0.55333614  0.95251930  0.17092275  1  0  -0.102632  0  3.663725  0  0  -0.144045  0  3.92381  0  0  -0.145307  0  3.937429  0  0  -0.166092  -0.143029  0  3.914241  0
C  C42  1  0.05334647  0.04748380  0.82907733  1  0  -0.102601  0  3.663718  0  0  -0.14387  0  3.923714  0  0  -0.145135  0  3.937331  0  0  -0.166028  -0.142857  0  3.914149  0
C  C43  1  0.55335325  0.54748051  0.67092175  1  0  -0.102689  0  3.663855  0  0  -0.144049  0  3.923877  0  0  -0.145304  0  3.937497  0  0  -0.166094  -0.143028  0  3.914296  0
C  C44  1  0.85892363  0.51103263  0.39274604  1  0  -0.09283  0  3.65541  0  0  -0.131584  0  3.911984  0  0  -0.132494  0  3.925207  0  0  -0.160634  -0.130543  0  3.902555  0
C  C45  1  0.35892275  0.01103216  0.10725945  1  0  -0.092803  0  3.655517  0  0  -0.131619  0  3.912058  0  0  -0.132558  0  3.925311  0  0  -0.160652  -0.130566  0  3.902593  0
C  C46  1  0.85894024  0.98896482  0.89274819  1  0  -0.092858  0  3.655702  0  0  -0.131499  0  3.912085  0  0  -0.132424  0  3.925304  0  0  -0.160535  -0.130465  0  3.902652  0
C  C47  1  0.35893317  0.48897172  0.60725510  1  0  -0.092591  0  3.655394  0  0  -0.131324  0  3.911803  0  0  -0.132256  0  3.925042  0  0  -0.160479  -0.130286  0  3.902369  0
C  C48  1  0.77248212  0.62588761  0.30805897  1  0  -0.299235  0  3.533525  0  0  -0.333419  0  3.780318  0  0  -0.338273  0  3.787691  0  0  -0.145639  -0.330306  0  3.77606  0
C  C49  1  0.27248135  0.12588647  0.19194803  1  0  -0.299108  0  3.533457  0  0  -0.333203  0  3.780197  0  0  -0.338036  0  3.787553  0  0  -0.145559  -0.330079  0  3.775932  0
C  C50  1  0.77248756  0.87411513  0.80805679  1  0  -0.299139  0  3.533826  0  0  -0.333438  0  3.780688  0  0  -0.338235  0  3.787995  0  0  -0.145631  -0.330301  0  3.776399  0
C  C51  1  0.27248834  0.37411293  0.69194028  1  0  -0.299504  0  3.533761  0  0  -0.333681  0  3.780488  0  0  -0.338509  0  3.787823  0  0  -0.145702  -0.330551  0  3.776216  0
S  S52  1  0.99978252  0.71037752  0.24633210  1  0  1.221126  0  4.923362  0  0  1.172172  0  5.405511  0  0  1.207706  0  5.392501  0  0  0.511227  1.147524  0  5.414263  0
S  S53  1  0.49978647  0.21038690  0.25365850  1  0  1.221234  0  4.923208  0  0  1.172228  0  5.405374  0  0  1.20777  0  5.392337  0  0  0.51128  1.147583  0  5.414126  0
S  S54  1  0.99979431  0.78961956  0.74633528  1  0  1.220991  0  4.923194  0  0  1.172178  0  5.405321  0  0  1.207689  0  5.392307  0  0  0.511253  1.14753  0  5.414068  0
S  S55  1  0.49977969  0.28961315  0.75366075  1  0  1.22123  0  4.923087  0  0  1.172287  0  5.405219  0  0  1.207846  0  5.392153  0  0  0.511273  1.14764  0  5.413971  0
Cl  Cl56  1  0.46403010  0.62785870  0.99955765  1  0  -0.777062  0  0.643813  0  0  -0.730887  0  0.853674  0  0  -0.740123  0  0.835536  0  0  -0.361814  -0.724451  0  0.866013  0
Cl  Cl57  1  0.96403004  0.12784228  0.50044548  1  0  -0.777067  0  0.643845  0  0  -0.730954  0  0.853743  0  0  -0.740186  0  0.835608  0  0  -0.361837  -0.724519  0  0.86608  0
Cl  Cl58  1  0.46402714  0.87215444  0.49954829  1  0  -0.777087  0  0.643875  0  0  -0.730925  0  0.853712  0  0  -0.740156  0  0.835576  0  0  -0.361836  -0.724491  0  0.86605  0
Cl  Cl59  1  0.96403327  0.37214012  0.00044447  1  0  -0.777039  0  0.643802  0  0  -0.730884  0  0.853657  0  0  -0.740121  0  0.83552  0  0  -0.361803  -0.724449  0  0.865998  0
O  O60  1  0.98966436  0.72164729  0.11082999  1  0  -0.691801  0  1.953947  0  0  -0.648702  0  2.213559  0  0  -0.668393  0  2.202148  0  0  -0.361877  -0.634898  0  2.221195  0
O  O61  1  0.48968240  0.22166318  0.38916911  1  0  -0.691918  0  1.953555  0  0  -0.648801  0  2.213172  0  0  -0.668505  0  2.201771  0  0  -0.361934  -0.635005  0  2.220813  0
O  O62  1  0.98966668  0.77833794  0.61083302  1  0  -0.691844  0  1.953808  0  0  -0.648765  0  2.213378  0  0  -0.668458  0  2.201986  0  0  -0.361931  -0.634966  0  2.221022  0
O  O63  1  0.48965377  0.27835067  0.88917400  1  0  -0.691901  0  1.953395  0  0  -0.648832  0  2.213033  0  0  -0.668537  0  2.201619  0  0  -0.361957  -0.63503  0  2.22067  0
O  O64  1  0.03689709  0.84355750  0.31132984  1  0  -0.690958  0  1.953733  0  0  -0.637402  0  2.205528  0  0  -0.657705  0  2.194624  0  0  -0.369271  -0.623048  0  2.212329  0
O  O65  1  0.53690346  0.34355374  0.18866791  1  0  -0.691  0  1.954066  0  0  -0.637399  0  2.205839  0  0  -0.657708  0  2.194935  0  0  -0.36929  -0.623028  0  2.21261  0
O  O66  1  0.03693456  0.65644398  0.81132381  1  0  -0.690895  0  1.953719  0  0  -0.637403  0  2.205525  0  0  -0.65771  0  2.194636  0  0  -0.36931  -0.623064  0  2.212361  0
O  O67  1  0.53689760  0.15644127  0.68867394  1  0  -0.690871  0  1.953924  0  0  -0.637372  0  2.205748  0  0  -0.657682  0  2.194831  0  0  -0.369267  -0.623013  0  2.212541  0
