# generated using pymatgen
data_ZnH7C2N11
_symmetry_space_group_name_H-M   'P 1'
_cell_length_a   7.05209188
_cell_length_b   10.23338787
_cell_length_c   23.60568638
_cell_angle_alpha   89.99993182
_cell_angle_beta   89.99998883
_cell_angle_gamma   89.99989646
_symmetry_Int_Tables_number   1
_chemical_formula_structural   ZnH7C2N11
_chemical_formula_sum   'Zn8 H56 C16 N88'
_cell_volume   1703.54664902
_cell_formula_units_Z   8
loop_
 _symmetry_equiv_pos_site_id
 _symmetry_equiv_pos_as_xyz
  1  'x, y, z'
loop_
 _atom_site_type_symbol
 _atom_site_label
 _atom_site_symmetry_multiplicity
 _atom_site_fract_x
 _atom_site_fract_y
 _atom_site_fract_z
 _atom_site_occupancy
 _atom_site_pbe_bader_charge
 _atom_site_pbe_bader_spin_density
 _atom_site_pbe_cm5_charge
 _atom_site_pbe_ddec_charge
 _atom_site_pbe_ddec_spin_density
 _atom_site_pbe_ddec_sum_bond_order
 _atom_site_pbe_magmom
Zn  Zn0  1  0.99999730  0.57060887  0.83267080  1  1.214258  0  0.696719  0.733351  0  2.38564  0
Zn  Zn1  1  0.99999912  0.42938773  0.16732903  1  1.214249  0  0.69674  0.733423  0  2.385591  0
Zn  Zn2  1  0.99999800  0.07061241  0.66732772  1  1.214245  0  0.696739  0.733385  0  2.38561  0
Zn  Zn3  1  0.00000010  0.92938873  0.33267215  1  1.21425  0  0.696721  0.733406  0  2.385574  0
Zn  Zn4  1  0.50000097  0.64120592  0.56351828  1  1.220246  0  0.704843  0.721991  0  2.436384  0
Zn  Zn5  1  0.49999996  0.35879522  0.43648244  1  1.220267  0  0.704842  0.722089  0  2.436253  0
Zn  Zn6  1  0.50000150  0.14120677  0.93647939  1  1.22027  0  0.704821  0.721992  0  2.436221  0
Zn  Zn7  1  0.50000086  0.85879339  0.06351920  1  1.220353  0  0.704856  0.722073  0  2.436317  0
H  H8  1  0.99999803  0.01396822  0.80910502  1  0.537925  0  0.305637  0.247706  0  1.070483  0
H  H9  1  0.00000149  0.98602999  0.19089570  1  0.537911  0  0.305648  0.247645  0  1.070521  0
H  H10  1  0.99999742  0.51397093  0.69089269  1  0.537899  0  0.305617  0.247642  0  1.070536  0
H  H11  1  0.99999900  0.48603251  0.30910884  1  0.537935  0  0.305627  0.247615  0  1.070593  0
H  H12  1  0.32517358  0.44008457  0.84268539  1  0.4587  0  0.281924  0.297944  0  1.009757  0
H  H13  1  0.32517366  0.55991581  0.15731364  1  0.4587  0  0.281935  0.297959  0  1.009751  0
H  H14  1  0.67482386  0.94008226  0.65731297  1  0.458649  0  0.281898  0.297916  0  1.009834  0
H  H15  1  0.67482510  0.05991572  0.34268646  1  0.458675  0  0.281895  0.29791  0  1.009815  0
H  H16  1  0.67482736  0.55991559  0.15731363  1  0.458706  0  0.281945  0.29798  0  1.009734  0
H  H17  1  0.67482445  0.44008337  0.84268581  1  0.45868  0  0.281908  0.297938  0  1.009787  0
H  H18  1  0.32517708  0.05991692  0.34268690  1  0.45866  0  0.281883  0.297885  0  1.009875  0
H  H19  1  0.32517442  0.94008248  0.65731340  1  0.458676  0  0.281891  0.297895  0  1.009832  0
H  H20  1  0.25500992  0.48896472  0.90645942  1  0.412791  0  0.296036  0.323416  0  0.916973  0
H  H21  1  0.25500875  0.51103477  0.09353961  1  0.412769  0  0.296043  0.323436  0  0.916924  0
H  H22  1  0.74499023  0.98896543  0.59353934  1  0.412755  0  0.29603  0.323436  0  0.916894  0
H  H23  1  0.74498872  0.01103442  0.40646051  1  0.412764  0  0.296042  0.323452  0  0.916882  0
H  H24  1  0.74499244  0.51103446  0.09353960  1  0.412769  0  0.296044  0.323437  0  0.916913  0
H  H25  1  0.74498794  0.48896539  0.90646026  1  0.41278  0  0.296055  0.323465  0  0.916887  0
H  H26  1  0.25501213  0.01103375  0.40646053  1  0.412767  0  0.296035  0.323451  0  0.91689  0
H  H27  1  0.25500796  0.98896379  0.59353978  1  0.412764  0  0.296054  0.323432  0  0.916902  0
H  H28  1  0.34832395  0.59516611  0.86310120  1  0.478698  0  0.281459  0.298831  0  1.026428  0
H  H29  1  0.34832444  0.40483424  0.13689783  1  0.478697  0  0.281459  0.29882  0  1.026476  0
H  H30  1  0.65167297  0.09516466  0.63689777  1  0.47869  0  0.281452  0.298841  0  1.02645  0
H  H31  1  0.65167343  0.90483336  0.36310251  1  0.478671  0  0.281467  0.298829  0  1.026474  0
H  H32  1  0.65167415  0.40483405  0.13689782  1  0.478692  0  0.281463  0.29882  0  1.026461  0
H  H33  1  0.65167366  0.59516592  0.86310119  1  0.478689  0  0.281441  0.298798  0  1.026477  0
H  H34  1  0.34832939  0.90483453  0.36310210  1  0.478673  0  0.281439  0.29882  0  1.026469  0
H  H35  1  0.34832468  0.09516387  0.63689735  1  0.478712  0  0.281454  0.298818  0  1.026474  0
H  H36  1  0.49999705  0.34812096  0.70908794  1  0.544044  0  0.299409  0.245267  0  1.068699  0
H  H37  1  0.49999963  0.65188409  0.29091320  1  0.544351  0  0.299417  0.245213  0  1.068791  0
H  H38  1  0.50000205  0.84812242  0.79090962  1  0.543996  0  0.29943  0.245251  0  1.06868  0
H  H39  1  0.50000314  0.15187579  0.20908897  1  0.544025  0  0.2994  0.245212  0  1.068757  0
H  H40  1  0.18542751  0.75788796  0.52770358  1  0.450919  0  0.287199  0.307154  0  0.9851  0
H  H41  1  0.18542536  0.24211065  0.47229673  1  0.450902  0  0.287182  0.307123  0  0.985112  0
H  H42  1  0.81457182  0.25788733  0.97229657  1  0.450927  0  0.287185  0.307145  0  0.985088  0
H  H43  1  0.81457435  0.74211145  0.02770328  1  0.450905  0  0.287178  0.30711  0  0.985125  0
H  H44  1  0.81457627  0.24211123  0.47229628  1  0.450909  0  0.287185  0.307134  0  0.985101  0
H  H45  1  0.81457274  0.75788756  0.52770356  1  0.45092  0  0.287195  0.307142  0  0.985115  0
H  H46  1  0.18542911  0.74211185  0.02770330  1  0.450915  0  0.287176  0.307118  0  0.985118  0
H  H47  1  0.18542943  0.25788578  0.97229616  1  0.450877  0  0.28713  0.30709  0  0.985164  0
H  H48  1  0.18599895  0.75641425  0.59888431  1  0.440134  0  0.28364  0.302286  0  0.989248  0
H  H49  1  0.18599968  0.24358533  0.40111557  1  0.440127  0  0.283665  0.302328  0  0.989176  0
H  H50  1  0.81400181  0.25641382  0.90111542  1  0.44014  0  0.283656  0.302332  0  0.989158  0
H  H51  1  0.81400144  0.74358497  0.09888401  1  0.440142  0  0.283674  0.302331  0  0.989182  0
H  H52  1  0.81400057  0.24358494  0.40111555  1  0.440125  0  0.283633  0.302274  0  0.989278  0
H  H53  1  0.81399984  0.75641385  0.59888472  1  0.440129  0  0.283631  0.302277  0  0.989246  0
H  H54  1  0.18600055  0.74358438  0.09888445  1  0.440133  0  0.283668  0.302341  0  0.989143  0
H  H55  1  0.18599808  0.25641422  0.90111501  1  0.440127  0  0.283663  0.30234  0  0.989145  0
H  H56  1  0.14748574  0.62239908  0.56308069  1  0.491719  0  0.282351  0.298092  0  1.020016  0
H  H57  1  0.14748752  0.37760055  0.43691920  1  0.491736  0  0.282369  0.2981  0  1.020005  0
H  H58  1  0.85251394  0.12239753  0.93691826  1  0.491717  0  0.28236  0.298093  0  1.019989  0
H  H59  1  0.85251326  0.87760121  0.06308116  1  0.491734  0  0.28237  0.29811  0  1.019988  0
H  H60  1  0.85251378  0.37760109  0.43691876  1  0.491724  0  0.282358  0.298106  0  1.019998  0
H  H61  1  0.85251342  0.62239765  0.56308109  1  0.491716  0  0.28235  0.298089  0  1.020016  0
H  H62  1  0.14748841  0.87760166  0.06308160  1  0.491731  0  0.282367  0.298094  0  1.020005  0
H  H63  1  0.14748910  0.12239699  0.93691786  1  0.491719  0  0.282371  0.298106  0  1.019996  0
C  C64  1  0.99999556  0.83567660  0.76941055  1  1.479859  0  0.33801  0.451205  0  4.091035  0
C  C65  1  0.99999944  0.16432293  0.23059013  1  1.479867  0  0.338004  0.451169  0  4.090992  0
C  C66  1  0.99999622  0.33567606  0.73059080  1  1.479362  0  0.337948  0.450991  0  4.090848  0
C  C67  1  0.99999878  0.66432445  0.26940904  1  1.479343  0  0.33794  0.450874  0  4.090924  0
C  C68  1  0.99999548  0.86886781  0.87087720  1  1.465063  0  0.316627  0.427943  0  4.121344  0
C  C69  1  0.00000120  0.13113039  0.12912351  1  1.465017  0  0.316625  0.427943  0  4.121392  0
C  C70  1  0.99999763  0.36887146  0.62912244  1  1.464367  0  0.316626  0.428011  0  4.121584  0
C  C71  1  0.00000048  0.63113359  0.37087785  1  1.464831  0  0.31677  0.4281  0  4.121723  0
C  C72  1  0.50000130  0.37388967  0.62270917  1  1.499295  0  0.328849  0.437663  0  4.082703  0
C  C73  1  0.49999964  0.62611342  0.37729154  1  1.499341  0  0.328791  0.437597  0  4.082761  0
C  C74  1  0.50000199  0.87389383  0.87728753  1  1.499262  0  0.32895  0.437521  0  4.08242  0
C  C75  1  0.50000321  0.12610731  0.12271064  1  1.499285  0  0.328971  0.437677  0  4.082372  0
C  C76  1  0.49999963  0.54959972  0.69190347  1  1.464198  0  0.313725  0.421729  0  4.118757  0
C  C77  1  0.50000131  0.45040533  0.30809682  1  1.464177  0  0.313716  0.421636  0  4.119003  0
C  C78  1  0.50000308  0.04960581  0.80809382  1  1.464371  0  0.313793  0.421738  0  4.118927  0
C  C79  1  0.50000353  0.95039436  0.19190477  1  1.464227  0  0.313781  0.421778  0  4.118822  0
N  N80  1  0.99999573  0.70356493  0.76735769  1  -0.716835  0  -0.247504  -0.316799  0  3.434852  0
N  N81  1  0.99999785  0.29643363  0.23264299  1  -0.71679  0  -0.247612  -0.316994  0  3.434937  0
N  N82  1  0.99999639  0.20356634  0.73264034  1  -0.716905  0  -0.247498  -0.316712  0  3.434726  0
N  N83  1  0.99999861  0.79643222  0.26735950  1  -0.716901  0  -0.247631  -0.316865  0  3.43493  0
N  N84  1  0.99999862  0.67357591  0.71144151  1  -0.165903  0  -0.084145  -0.033754  0  3.35924  0
N  N85  1  0.99999638  0.32642362  0.28855960  1  -0.165899  0  -0.084087  -0.033564  0  3.359146  0
N  N86  1  0.99999783  0.17357619  0.78855696  1  -0.165856  0  -0.084138  -0.033904  0  3.359253  0
N  N87  1  0.00000028  0.82642202  0.21144333  1  -0.16582  0  -0.084014  -0.033701  0  3.359021  0
N  N88  1  0.99999708  0.78012034  0.68145930  1  -0.141799  0  -0.098211  -0.085205  0  3.313599  0
N  N89  1  0.99999651  0.21988017  0.31854138  1  -0.141937  0  -0.098235  -0.085306  0  3.313713  0
N  N90  1  0.99999768  0.28011956  0.81853911  1  -0.142339  0  -0.09823  -0.08513  0  3.313663  0
N  N91  1  0.99999874  0.71987802  0.18146157  1  -0.142394  0  -0.098266  -0.085203  0  3.313508  0
N  N92  1  0.99999835  0.88485882  0.71640382  1  -0.764255  0  -0.239593  -0.318566  0  3.362602  0
N  N93  1  0.99999807  0.11514071  0.28359686  1  -0.764185  0  -0.239504  -0.318463  0  3.362527  0
N  N94  1  0.99999472  0.38485911  0.78359454  1  -0.763675  0  -0.239572  -0.318456  0  3.36268  0
N  N95  1  0.99999745  0.61513847  0.21640614  1  -0.763642  0  -0.239572  -0.31838  0  3.36261  0
N  N96  1  0.99999544  0.91256114  0.81613021  1  -1.326218  0  -0.394091  -0.413779  0  3.638417  0
N  N97  1  0.99999956  0.08743741  0.18387005  1  -1.326228  0  -0.394085  -0.413666  0  3.63845  0
N  N98  1  0.99999330  0.41256562  0.68386560  1  -1.325657  0  -0.393994  -0.41364  0  3.638233  0
N  N99  1  0.99999745  0.58743783  0.31613551  1  -1.325694  0  -0.394064  -0.413629  0  3.638428  0
N  N100  1  0.99999847  0.74307367  0.88709154  1  -0.711257  0  -0.257104  -0.324493  0  3.415506  0
N  N101  1  0.00000105  0.25692356  0.11290875  1  -0.711246  0  -0.257121  -0.324499  0  3.415561  0
N  N102  1  0.00000090  0.24307604  0.61290692  1  -0.711162  0  -0.257134  -0.324544  0  3.41582  0
N  N103  1  0.99999720  0.75692608  0.38709464  1  -0.711331  0  -0.257204  -0.324686  0  3.415997  0
N  N104  1  0.99999845  0.74720615  0.94479586  1  -0.236428  0  -0.135692  -0.145554  0  3.289722  0
N  N105  1  0.00000249  0.25279206  0.05520485  1  -0.236354  0  -0.135717  -0.145562  0  3.289803  0
N  N106  1  0.00000375  0.24720476  0.55520303  1  -0.236511  0  -0.135734  -0.145625  0  3.289868  0
N  N107  1  0.00000171  0.75279505  0.44479814  1  -0.236538  0  -0.135612  -0.145368  0  3.289866  0
N  N108  1  0.00000139  0.86970578  0.96116861  1  -0.141104  0  -0.108714  -0.067939  0  3.33375  0
N  N109  1  0.00000265  0.13029306  0.03883171  1  -0.141377  0  -0.108684  -0.06798  0  3.333745  0
N  N110  1  0.00000359  0.36970381  0.53882813  1  -0.141228  0  -0.108786  -0.068046  0  3.333705  0
N  N111  1  0.00000045  0.63029601  0.46117219  1  -0.141372  0  -0.108824  -0.068135  0  3.333814  0
N  N112  1  0.99999820  0.95022790  0.91582694  1  -0.738038  0  -0.23381  -0.338605  0  3.226695  0
N  N113  1  0.00000416  0.04977030  0.08417335  1  -0.738044  0  -0.233839  -0.338621  0  3.226571  0
N  N114  1  0.00000206  0.45022742  0.58416887  1  -0.73731  0  -0.233723  -0.338479  0  3.226536  0
N  N115  1  0.99999605  0.54977470  0.41583057  1  -0.737722  0  -0.233752  -0.338537  0  3.226671  0
N  N116  1  0.26020411  0.51442555  0.86463432  1  -1.227592  0  -0.774665  -0.812126  0  3.221082  0
N  N117  1  0.26020439  0.48557394  0.13536471  1  -1.227555  0  -0.774681  -0.812179  0  3.221046  0
N  N118  1  0.73979444  0.01442595  0.63536383  1  -1.227526  0  -0.774612  -0.812115  0  3.221007  0
N  N119  1  0.73979469  0.98557293  0.36463602  1  -1.227544  0  -0.774663  -0.81217  0  3.221054  0
N  N120  1  0.73979542  0.48557363  0.13536470  1  -1.227564  0  -0.774697  -0.812164  0  3.22098  0
N  N121  1  0.73979372  0.51442525  0.86463473  1  -1.227557  0  -0.774656  -0.812109  0  3.221024  0
N  N122  1  0.26020650  0.98557421  0.36463561  1  -1.227527  0  -0.774593  -0.812094  0  3.221062  0
N  N123  1  0.26020341  0.01442430  0.63536427  1  -1.227569  0  -0.774646  -0.812089  0  3.221053  0
N  N124  1  0.50000123  0.44346201  0.57401707  1  -0.811522  0  -0.255699  -0.308962  0  3.43364  0
N  N125  1  0.50000113  0.55654011  0.42598407  1  -0.811586  0  -0.255789  -0.309218  0  3.433734  0
N  N126  1  0.50000046  0.94346407  0.92597875  1  -0.811424  0  -0.255711  -0.308863  0  3.433361  0
N  N127  1  0.50000190  0.05653511  0.07401942  1  -0.811476  0  -0.255745  -0.308954  0  3.433519  0
N  N128  1  0.49999994  0.35251662  0.53205687  1  -0.180817  0  -0.107713  -0.054635  0  3.453192  0
N  N129  1  0.50000100  0.64748452  0.46794469  1  -0.181044  0  -0.107641  -0.05434  0  3.452982  0
N  N130  1  0.50000057  0.85251955  0.96794069  1  -0.180735  0  -0.107767  -0.054753  0  3.453025  0
N  N131  1  0.50000037  0.14748061  0.03205790  1  -0.180973  0  -0.107789  -0.054777  0  3.453212  0
N  N132  1  0.50000150  0.23554458  0.55401686  1  -0.118665  0  -0.118702  -0.105946  0  3.280588  0
N  N133  1  0.50000227  0.76445852  0.44598555  1  -0.11852  0  -0.118669  -0.105971  0  3.280563  0
N  N134  1  0.49999789  0.73554659  0.94598118  1  -0.118574  0  -0.118774  -0.105992  0  3.28035  0
N  N135  1  0.50000163  0.26445358  0.05401741  1  -0.118714  0  -0.118729  -0.105957  0  3.280514  0
N  N136  1  0.49999864  0.24460992  0.61096796  1  -0.712755  0  -0.228311  -0.322727  0  3.269795  0
N  N137  1  0.50000230  0.75539317  0.38903444  1  -0.712958  0  -0.228271  -0.322737  0  3.269893  0
N  N138  1  0.49999931  0.74461404  0.88902965  1  -0.712769  0  -0.228248  -0.322638  0  3.269668  0
N  N139  1  0.50000021  0.25538612  0.11096852  1  -0.712709  0  -0.228333  -0.322756  0  3.269689  0
N  N140  1  0.49999839  0.41995352  0.67692618  1  -1.346725  0  -0.389947  -0.411005  0  3.60589  0
N  N141  1  0.49999972  0.58004957  0.32307326  1  -1.347081  0  -0.389905  -0.410716  0  3.605966  0
N  N142  1  0.50000336  0.91995587  0.82306923  1  -1.346717  0  -0.389992  -0.410848  0  3.605681  0
N  N143  1  0.50000325  0.08004429  0.17692937  1  -1.346681  0  -0.389932  -0.410832  0  3.605679  0
N  N144  1  0.50000093  0.64959207  0.65486152  1  -0.787089  0  -0.258728  -0.324883  0  3.448313  0
N  N145  1  0.49999859  0.35041298  0.34513834  1  -0.787113  0  -0.258701  -0.324908  0  3.44861  0
N  N146  1  0.50000293  0.14959317  0.84513572  1  -0.788308  0  -0.258613  -0.324657  0  3.448186  0
N  N147  1  0.50000226  0.85040699  0.15486288  1  -0.787046  0  -0.258676  -0.324745  0  3.448161  0
N  N148  1  0.49999936  0.75941880  0.68678346  1  -0.182175  0  -0.116908  -0.11962  0  3.303696  0
N  N149  1  0.50000016  0.24058527  0.31321810  1  -0.181951  0  -0.11698  -0.119729  0  3.304163  0
N  N150  1  0.50000139  0.25942194  0.81321415  1  -0.181034  0  -0.117066  -0.119903  0  3.30389  0
N  N151  1  0.50000097  0.74057822  0.18678445  1  -0.182245  0  -0.116953  -0.119775  0  3.303512  0
N  N152  1  0.50000081  0.72450947  0.74041716  1  -0.176724  0  -0.097557  -0.054859  0  3.400324  0
N  N153  1  0.50000013  0.27549070  0.25958355  1  -0.176804  0  -0.097473  -0.05466  0  3.40037  0
N  N154  1  0.50000003  0.22451471  0.75958004  1  -0.176901  0  -0.097437  -0.054682  0  3.400503  0
N  N155  1  0.50000233  0.77548545  0.24041898  1  -0.176796  0  -0.0975  -0.054761  0  3.40026  0
N  N156  1  0.49999814  0.59322156  0.74586927  1  -0.670305  0  -0.243035  -0.329134  0  3.114308  0
N  N157  1  0.49999855  0.40677958  0.25413017  1  -0.670292  0  -0.243074  -0.329196  0  3.114111  0
N  N158  1  0.50000162  0.09322584  0.75412715  1  -0.670423  0  -0.24311  -0.329217  0  3.114456  0
N  N159  1  0.50000215  0.90677432  0.24587144  1  -0.670388  0  -0.243111  -0.329244  0  3.114415  0
N  N160  1  0.22686349  0.70742756  0.56304635  1  -1.253368  0  -0.782137  -0.820845  0  3.243828  0
N  N161  1  0.22686407  0.29257099  0.43695396  1  -1.25336  0  -0.782155  -0.820836  0  3.243797  0
N  N162  1  0.77313597  0.20742807  0.93695383  1  -1.253365  0  -0.78215  -0.820859  0  3.243634  0
N  N163  1  0.77313550  0.79257077  0.06304560  1  -1.25336  0  -0.782156  -0.820816  0  3.243754  0
N  N164  1  0.77313744  0.29257162  0.43695394  1  -1.253351  0  -0.782122  -0.82081  0  3.243778  0
N  N165  1  0.77313686  0.70742820  0.56304633  1  -1.253367  0  -0.782128  -0.820803  0  3.243779  0
N  N166  1  0.22686497  0.79257112  0.06304561  1  -1.253452  0  -0.78216  -0.820874  0  3.243785  0
N  N167  1  0.22686544  0.20742646  0.93695342  1  -1.253291  0  -0.782099  -0.820809  0  3.243704  0
