# generated using pymatgen
data_Zn2H7C24N2O8F7
_symmetry_space_group_name_H-M   'P 1'
_cell_length_a   9.68938568
_cell_length_b   11.07388382
_cell_length_c   29.00603359
_cell_angle_alpha   90.13749075
_cell_angle_beta   89.66415831
_cell_angle_gamma   89.94544058
_symmetry_Int_Tables_number   1
_chemical_formula_structural   Zn2H7C24N2O8F7
_chemical_formula_sum   'Zn4 H14 C48 N4 O16 F14'
_cell_volume   3112.25832896
_cell_formula_units_Z   2
loop_
 _symmetry_equiv_pos_site_id
 _symmetry_equiv_pos_as_xyz
  1  'x, y, z'
loop_
 _atom_site_type_symbol
 _atom_site_label
 _atom_site_symmetry_multiplicity
 _atom_site_fract_x
 _atom_site_fract_y
 _atom_site_fract_z
 _atom_site_occupancy
 _atom_site_pbe_bader_charge
 _atom_site_pbe_bader_spin_density
 _atom_site_pbe_cm5_charge
 _atom_site_pbe_ddec_charge
 _atom_site_pbe_ddec_spin_density
 _atom_site_pbe_ddec_sum_bond_order
 _atom_site_pbe_magmom
Zn  Zn0  1  0.64183680  0.49578004  0.49968466  1  1.283725  0  0.670487  0.829989  0  2.441625  0
Zn  Zn1  1  0.36021935  0.50337818  0.49971123  1  1.267753  0  0.666934  0.827254  0  2.417282  0
Zn  Zn2  1  0.35839240  0.49852987  0.11745801  1  1.280414  0  0.670183  0.828469  0  2.442361  0
Zn  Zn3  1  0.63993998  0.50564478  0.11744725  1  1.268494  0  0.667092  0.826837  0  2.418088  0
H  H4  1  0.14455172  0.36256585  0.45294999  1  0.199994  0  0.151368  0.158611  0  0.94736  0
H  H5  1  0.85701337  0.63680186  0.54535838  1  0.203176  0  0.151868  0.159385  0  0.946789  0
H  H6  1  0.28870243  0.87518196  0.49906920  1  0.124443  0  0.116135  0.145867  0  0.985186  0
H  H7  1  0.71263798  0.12413350  0.50019958  1  0.119373  0  0.115994  0.146639  0  0.98539  0
H  H8  1  0.26881531  0.49894462  0.96895824  1  0.084888  0  0.114638  0.146602  0  0.985411  0
H  H9  1  0.71478053  0.50313591  0.97143359  1  0.103241  0  0.115057  0.147751  0  0.985613  0
H  H10  1  0.28545246  0.50229707  0.64564945  1  0.133825  0  0.115106  0.148518  0  0.984812  0
H  H11  1  0.73141259  0.49731811  0.64808410  1  0.129168  0  0.114583  0.146771  0  0.987101  0
H  H12  1  0.72240242  0.50378323  0.26610103  1  0.134407  0  0.115346  0.144205  0  0.983986  0
H  H13  1  0.27778942  0.50226064  0.35106885  1  0.093303  0  0.115889  0.144763  0  0.983506  0
H  H14  1  0.85614090  0.36531088  0.16411810  1  0.188985  0  0.15178  0.158466  0  0.946363  0
H  H15  1  0.14267519  0.63900827  0.07183779  1  0.231215  0  0.152045  0.158953  0  0.946949  0
H  H16  1  0.71155616  0.87723195  0.11765643  1  0.1389  0  0.116026  0.146382  0  0.987235  0
H  H17  1  0.28772711  0.12702560  0.11696248  1  0.15581  0  0.116097  0.146105  0  0.987096  0
C  C18  1  0.51303158  0.73563734  0.49977035  1  1.522557  0  0.21911  0.615339  0  4.152052  0
C  C19  1  0.51212630  0.49969224  0.58986970  1  1.506062  0  0.217493  0.596749  0  4.148484  0
C  C20  1  0.48923736  0.26368969  0.49935753  1  1.531053  0  0.219527  0.616685  0  4.149261  0
C  C21  1  0.49066906  0.50059103  0.40948413  1  1.567296  0  0.218373  0.616625  0  4.154807  0
C  C22  1  0.48711987  0.73812013  0.11734862  1  1.573396  0  0.219505  0.616171  0  4.151004  0
C  C23  1  0.48804864  0.50135968  0.02723054  1  1.5639  0  0.21681  0.59626  0  4.150372  0
C  C24  1  0.51121821  0.26617012  0.11763397  1  1.609778  0  0.218944  0.615172  0  4.150722  0
C  C25  1  0.50941855  0.50316458  0.20767659  1  1.538283  0  0.217258  0.611944  0  4.15775  0
C  C26  1  0.93642435  0.42152664  0.47217999  1  1.174714  0  0.260235  0.389613  0  4.044692  0
C  C27  1  0.06505494  0.57752954  0.52621061  1  1.150674  0  0.257516  0.384841  0  4.054516  0
C  C28  1  0.08014159  0.42357324  0.47328246  1  0.538105  0  0.083508  -0.016916  0  3.828305  0
C  C29  1  0.92144820  0.57573578  0.52505030  1  0.571321  0  0.082005  -0.020174  0  3.833904  0
C  C30  1  0.49091596  0.12814215  0.49933198  1  0.074182  0  -0.015442  -0.105419  0  3.94834  0
C  C31  1  0.51048831  0.87116425  0.49976019  1  0.082088  0  -0.015931  -0.106894  0  3.946399  0
C  C32  1  0.37293101  0.05459262  0.49898906  1  0.39674  0  0.101562  0.265577  0  4.042578  0
C  C33  1  0.62846878  0.94474991  0.50016658  1  0.366072  0  0.102434  0.268695  0  4.039781  0
C  C34  1  0.38208317  0.92972404  0.49922673  1  0.126008  0  -0.089509  -0.199757  0  3.971738  0
C  C35  1  0.61928682  0.06957876  0.49991133  1  0.132859  0  -0.089482  -0.202261  0  3.974999  0
C  C36  1  0.49151461  0.50132073  0.97560768  1  0.080251  0  -0.010029  0.026308  0  3.986113  0
C  C37  1  0.36754278  0.50021910  0.95094084  1  0.056737  0  -0.099814  -0.245749  0  3.996173  0
C  C38  1  0.37279128  0.50036575  0.90331628  1  0.44604  0  0.111543  0.273324  0  4.039874  0
C  C39  1  0.49779335  0.50150074  0.87799171  1  0.195124  0  -0.01162  -0.076735  0  4.126567  0
C  C40  1  0.61947770  0.50237806  0.90460009  1  0.368499  0  0.111568  0.272956  0  4.035536  0
C  C41  1  0.61858413  0.50237969  0.95227493  1  0.120483  0  -0.098385  -0.24253  0  3.989875  0
C  C42  1  0.50010681  0.50151054  0.82955127  1  -0.092093  0  -0.031569  -0.052946  0  4.122625  0
C  C43  1  0.50023591  0.50131989  0.78751305  1  -0.130622  0  -0.031883  -0.051205  0  4.121775  0
C  C44  1  0.50250845  0.50090889  0.73907608  1  0.139276  0  -0.011693  -0.078917  0  4.130122  0
C  C45  1  0.38078827  0.50191529  0.71248669  1  0.451159  0  0.112056  0.274058  0  4.039208  0
C  C46  1  0.38163576  0.50148653  0.66481394  1  0.101485  0  -0.099124  -0.245  0  3.988982  0
C  C47  1  0.50870651  0.50001070  0.64148028  1  0.016034  0  -0.010327  0.027946  0  3.981922  0
C  C48  1  0.63270937  0.49885746  0.66612125  1  -0.000699  0  -0.098705  -0.245791  0  3.996006  0
C  C49  1  0.62749337  0.49929867  0.71374664  1  0.474123  0  0.111661  0.274985  0  4.040254  0
C  C50  1  0.49873328  0.50180063  0.35778539  1  0.030191  0  -0.016033  -0.105905  0  3.94931  0
C  C51  1  0.50145543  0.50313522  0.25938073  1  0.117918  0  -0.01518  -0.10348  0  3.947091  0
C  C52  1  0.62284043  0.50232170  0.33238945  1  0.419595  0  0.102923  0.269287  0  4.037256  0
C  C53  1  0.37735227  0.50273697  0.28478333  1  0.319167  0  0.102182  0.267372  0  4.03855  0
C  C54  1  0.62434585  0.50311281  0.28461001  1  0.074051  0  -0.091549  -0.205953  0  3.984359  0
C  C55  1  0.37584660  0.50224476  0.33256097  1  0.178039  0  -0.091285  -0.205099  0  3.985379  0
C  C56  1  0.06404585  0.42437503  0.14493372  1  1.161068  0  0.26047  0.388685  0  4.047955  0
C  C57  1  0.93486554  0.57975085  0.09098739  1  1.147557  0  0.258857  0.387308  0  4.048956  0
C  C58  1  0.92032628  0.42621959  0.14381511  1  0.554475  0  0.083219  -0.0162  0  3.828894  0
C  C59  1  0.07847650  0.57806796  0.09212697  1  0.544859  0  0.082034  -0.019143  0  3.831821  0
C  C60  1  0.50947768  0.13060507  0.11759109  1  -0.007539  0  -0.015233  -0.105746  0  3.94799  0
C  C61  1  0.48976100  0.87365251  0.11727059  1  0.078945  0  -0.015123  -0.106124  0  3.952535  0
C  C62  1  0.62741633  0.05680565  0.11779744  1  0.464029  0  0.101864  0.267031  0  4.044847  0
C  C63  1  0.37181759  0.94748714  0.11698084  1  0.436018  0  0.102017  0.266867  0  4.044956  0
C  C64  1  0.61819994  0.93194637  0.11759693  1  -0.021055  0  -0.0896  -0.201358  0  3.978163  0
C  C65  1  0.38105888  0.07229765  0.11716542  1  0.054053  0  -0.089843  -0.200974  0  3.974736  0
N  N66  1  0.85888147  0.49554926  0.49747453  1  -1.19212  0  -0.285428  -0.210654  0  3.481097  0
N  N67  1  0.14272041  0.50353401  0.50095522  1  -1.200129  0  -0.286423  -0.214686  0  3.486157  0
N  N68  1  0.14134205  0.49821161  0.11966283  1  -1.18388  0  -0.285639  -0.210972  0  3.482052  0
N  N69  1  0.85744174  0.50587816  0.11618947  1  -1.190538  0  -0.287121  -0.215674  0  3.486592  0
O  O70  1  0.62901124  0.68239222  0.50169179  1  -1.147667  0  -0.314643  -0.544757  0  2.332572  0
O  O71  1  0.39545974  0.68421450  0.49775617  1  -1.15815  0  -0.318559  -0.54942  0  2.341346  0
O  O72  1  0.39627332  0.49785097  0.56925283  1  -1.15859  0  -0.318738  -0.550864  0  2.327727  0
O  O73  1  0.63048659  0.50128396  0.57041596  1  -1.163409  0  -0.32038  -0.547623  0  2.311861  0
O  O74  1  0.37369264  0.31778261  0.49659642  1  -1.150353  0  -0.315955  -0.547866  0  2.333482  0
O  O75  1  0.60685530  0.31431973  0.50218386  1  -1.157355  0  -0.317707  -0.547763  0  2.339583  0
O  O76  1  0.60438703  0.49976791  0.43110444  1  -1.145502  0  -0.316748  -0.549502  0  2.377848  0
O  O77  1  0.37075087  0.50043438  0.42777846  1  -1.166699  0  -0.320416  -0.549364  0  2.28554  0
O  O78  1  0.37115247  0.68504809  0.11529832  1  -1.151275  0  -0.314712  -0.544804  0  2.331038  0
O  O79  1  0.60464786  0.68651559  0.11954658  1  -1.162882  0  -0.319171  -0.549984  0  2.34319  0
O  O80  1  0.60388909  0.49978752  0.04786157  1  -1.168947  0  -0.318627  -0.550843  0  2.327966  0
O  O81  1  0.36968346  0.50296469  0.04668372  1  -1.155382  0  -0.319955  -0.546561  0  2.311166  0
O  O82  1  0.62678719  0.32007216  0.12035716  1  -1.139543  0  -0.315827  -0.546645  0  2.332743  0
O  O83  1  0.39358508  0.31700525  0.11493763  1  -1.169092  0  -0.317387  -0.547052  0  2.341514  0
O  O84  1  0.39566911  0.50333031  0.18606745  1  -1.153069  0  -0.316236  -0.546184  0  2.375894  0
O  O85  1  0.62930935  0.50289230  0.18936364  1  -1.157144  0  -0.319769  -0.547692  0  2.285875  0
F  F86  1  0.87173708  0.34277362  0.44509353  1  -0.606379  0  -0.049626  -0.100561  0  1.352807  0
F  F87  1  0.12985561  0.65567213  0.55362905  1  -0.610501  0  -0.051475  -0.1024  0  1.348079  0
F  F88  1  0.24407996  0.10339707  0.49854186  1  -0.626324  0  -0.109826  -0.148318  0  1.340402  0
F  F89  1  0.75739496  0.89616399  0.50081969  1  -0.625041  0  -0.109503  -0.148174  0  1.341392  0
F  F90  1  0.74745034  0.50205483  0.35360350  1  -0.625152  0  -0.108699  -0.144895  0  1.352005  0
F  F91  1  0.25273435  0.50273022  0.26356870  1  -0.624451  0  -0.108183  -0.1442  0  1.353285  0
F  F92  1  0.12900742  0.34604171  0.17202502  1  -0.608866  0  -0.049455  -0.100049  0  1.353555  0
F  F93  1  0.86982509  0.65769225  0.06364658  1  -0.611346  0  -0.052236  -0.104055  0  1.346245  0
F  F94  1  0.75630468  0.10531332  0.11811259  1  -0.62407  0  -0.110085  -0.148726  0  1.341613  0
F  F95  1  0.24287192  0.89914382  0.11654457  1  -0.625468  0  -0.109412  -0.147529  0  1.342123  0
F  F96  1  0.74201572  0.50316962  0.88186258  1  -0.623827  0  -0.096616  -0.133257  0  1.318904  0
F  F97  1  0.25336360  0.49921828  0.87927020  1  -0.616853  0  -0.096245  -0.132898  0  1.319076  0
F  F98  1  0.74694496  0.49801699  0.73777498  1  -0.627306  0  -0.096207  -0.133325  0  1.321188  0
F  F99  1  0.25828331  0.50333254  0.73524029  1  -0.616065  0  -0.096933  -0.133789  0  1.318117  0
