# generated using pymatgen
data_HgH39C23N3(ClO)2
_symmetry_space_group_name_H-M   'P 1'
_cell_length_a   9.35870766
_cell_length_b   10.78628921
_cell_length_c   13.47700000
_cell_angle_alpha   81.09053683
_cell_angle_beta   88.73748404
_cell_angle_gamma   88.42804647
_symmetry_Int_Tables_number   1
_chemical_formula_structural   HgH39C23N3(ClO)2
_chemical_formula_sum   'Hg2 H78 C46 N6 Cl4 O4'
_cell_volume   1343.30715263
_cell_formula_units_Z   2
loop_
 _symmetry_equiv_pos_site_id
 _symmetry_equiv_pos_as_xyz
  1  'x, y, z'
loop_
 _atom_site_type_symbol
 _atom_site_label
 _atom_site_symmetry_multiplicity
 _atom_site_fract_x
 _atom_site_fract_y
 _atom_site_fract_z
 _atom_site_occupancy
 _atom_site_hle17_bader_spin_density
 _atom_site_hle17_ddec_charge
 _atom_site_hle17_ddec_spin_density
 _atom_site_hle17_ddec_sum_bond_order
 _atom_site_hle17_magmom
 _atom_site_hse06_10hf_bader_spin_density
 _atom_site_hse06_10hf_ddec_charge
 _atom_site_hse06_10hf_ddec_spin_density
 _atom_site_hse06_10hf_ddec_sum_bond_order
 _atom_site_hse06_10hf_magmom
 _atom_site_hse06_bader_spin_density
 _atom_site_hse06_ddec_charge
 _atom_site_hse06_ddec_spin_density
 _atom_site_hse06_ddec_sum_bond_order
 _atom_site_hse06_magmom
 _atom_site_pbe_bader_charge
 _atom_site_pbe_bader_spin_density
 _atom_site_pbe_cm5_charge
 _atom_site_pbe_ddec_charge
 _atom_site_pbe_ddec_spin_density
 _atom_site_pbe_ddec_sum_bond_order
 _atom_site_pbe_magmom
Hg  Hg0  1  0.21553265  0.73962310  0.39563538  1  0  0.815254  0  2.083898  0  0  0.664245  0  2.594175  0  0  0.712525  0  2.555799  0  0.860551  0  0.54324  0.631356  0  2.62085  0
Hg  Hg1  1  0.78446894  0.26037846  0.60436411  1  0  0.815235  0  2.083928  0  0  0.664217  0  2.594218  0  0  0.712498  0  2.555841  0  0.860562  0  0.543226  0.631328  0  2.620893  0
H  H2  1  0.34688985  0.59123288  0.60882980  1  0  0.084156  0  0.934979  0  0  0.090464  0  1.003872  0  0  0.093643  0  1.000644  0  0.120192  0  0.115526  0.088056  0  1.006397  0
H  H3  1  0.65311275  0.40877055  0.39116944  1  0  0.084212  0  0.934989  0  0  0.090498  0  1.003888  0  0  0.093677  0  1.000659  0  0.120251  0  0.115546  0.08809  0  1.006411  0
H  H4  1  0.30131146  0.19127488  0.62338813  1  0  0.110643  0  0.924894  0  0  0.122321  0  0.984609  0  0  0.125894  0  0.981229  0  0.118418  0  0.113627  0.11967  0  0.987293  0
H  H5  1  0.69868257  0.80872949  0.37661260  1  0  0.110607  0  0.924872  0  0  0.1223  0  0.984571  0  0  0.125872  0  0.981195  0  0.118395  0  0.113641  0.119655  0  0.987256  0
H  H6  1  0.09018109  0.46400479  0.40212579  1  0  0.08322  0  0.954706  0  0  0.085708  0  1.030337  0  0  0.088891  0  1.027635  0  0.134718  0  0.108134  0.083368  0  1.032416  0
H  H7  1  0.90982359  0.53600052  0.59786947  1  0  0.083243  0  0.954674  0  0  0.085768  0  1.03026  0  0  0.088956  0  1.027551  0  0.134818  0  0.108151  0.083427  0  1.03234  0
H  H8  1  0.37914246  0.11521550  0.35708325  1  0  0.072551  0  0.93288  0  0  0.083766  0  1.002159  0  0  0.08456  0  1.001794  0  0.065782  0  0.096093  0.083178  0  1.002343  0
H  H9  1  0.62085811  0.88478417  0.64291575  1  0  0.07252  0  0.932898  0  0  0.083734  0  1.002182  0  0  0.084528  0  1.001814  0  0.065789  0  0.096081  0.083146  0  1.002364  0
H  H10  1  0.36065251  0.26732862  0.38984618  1  0  0.075137  0  0.948354  0  0  0.092054  0  1.008228  0  0  0.091913  0  1.009897  0  0.0853  0  0.105133  0.092129  0  1.007182  0
H  H11  1  0.63935014  0.73267294  0.61015477  1  0  0.075083  0  0.948383  0  0  0.092015  0  1.008237  0  0  0.091875  0  1.009904  0  0.085335  0  0.105083  0.09209  0  1.00719  0
H  H12  1  0.28160364  0.19399524  0.18811021  1  0  0.024839  0  0.939742  0  0  0.043089  0  0.997036  0  0  0.042902  0  0.998204  0  0.014595  0  0.088026  0.043187  0  0.996373  0
H  H13  1  0.71839792  0.80600725  0.81188842  1  0  0.024818  0  0.939743  0  0  0.043106  0  0.996995  0  0  0.04292  0  0.998162  0  0.014564  0  0.08803  0.043202  0  0.996332  0
H  H14  1  0.54427424  0.18920785  0.21963755  1  0  0.095962  0  0.957733  0  0  0.118213  0  1.018017  0  0  0.119246  0  1.018758  0  0.02633  0  0.086955  0.117173  0  1.018041  0
H  H15  1  0.45572729  0.81079558  0.78036022  1  0  0.095953  0  0.957715  0  0  0.11822  0  1.017987  0  0  0.119235  0  1.018747  0  0.026293  0  0.086956  0.11718  0  1.018011  0
H  H16  1  0.53013526  0.34452570  0.24808567  1  0  0.097453  0  0.955536  0  0  0.121096  0  1.014983  0  0  0.121912  0  1.015729  0  0.021574  0  0.086113  0.120378  0  1.014759  0
H  H17  1  0.46986630  0.65547679  0.75191296  1  0  0.09741  0  0.955473  0  0  0.121057  0  1.014933  0  0  0.12187  0  1.01568  0  0.021586  0  0.086094  0.120352  0  1.014698  0
H  H18  1  0.49635239  0.31630734  0.12454966  1  0  0.086399  0  0.965018  0  0  0.105668  0  1.032911  0  0  0.10715  0  1.032518  0  0.015553  0  0.081372  0.104724  0  1.033025  0
H  H19  1  0.50364700  0.68369609  0.87544889  1  0  0.086415  0  0.964926  0  0  0.10568  0  1.032842  0  0  0.107164  0  1.032446  0  0.015603  0  0.081392  0.104735  0  1.032959  0
H  H20  1  0.24956041  0.42479046  0.13045951  1  0  0.089839  0  0.96402  0  0  0.113779  0  1.024919  0  0  0.114683  0  1.025545  0  -0.009324  0  0.081233  0.113151  0  1.024398  0
H  H21  1  0.75043903  0.57521109  0.86954076  1  0  0.089868  0  0.963972  0  0  0.113804  0  1.024874  0  0  0.114709  0  1.025501  0  -0.00938  0  0.081233  0.113176  0  1.024354  0
H  H22  1  0.28293420  0.45519881  0.25316120  1  0  0.114783  0  0.985283  0  0  0.133491  0  1.051331  0  0  0.135164  0  1.051404  0  0.080044  0  0.08275  0.132156  0  1.051465  0
H  H23  1  0.71706632  0.54480274  0.74683979  1  0  0.114792  0  0.985318  0  0  0.133509  0  1.051345  0  0  0.135181  0  1.051419  0  0.080062  0  0.082735  0.132175  0  1.051479  0
H  H24  1  0.12683391  0.37502229  0.22959691  1  0  0.089481  0  0.981032  0  0  0.106743  0  1.053918  0  0  0.107939  0  1.054097  0  0.022156  0  0.079787  0.105751  0  1.054095  0
H  H25  1  0.87316773  0.62497739  0.77040429  1  0  0.089458  0  0.981071  0  0  0.106715  0  1.05396  0  0  0.107911  0  1.054139  0  0.022129  0  0.079772  0.105724  0  1.054136  0
H  H26  1  0.03568084  0.02019902  0.40098314  1  0  0.096665  0  0.955153  0  0  0.109846  0  1.017144  0  0  0.111725  0  1.015809  0  0.109047  0  0.108968  0.108363  0  1.01838  0
H  H27  1  0.96432078  0.97980160  0.59901646  1  0  0.096705  0  0.9551  0  0  0.109878  0  1.017076  0  0  0.111757  0  1.015741  0  0.108753  0  0.109004  0.108396  0  1.01831  0
H  H28  1  0.17808403  0.01511969  0.31274920  1  0  0.052085  0  0.964618  0  0  0.065663  0  1.040619  0  0  0.065664  0  1.040217  0  0.035467  0  0.0953  0.065506  0  1.041068  0
H  H29  1  0.82191863  0.98488186  0.68725176  1  0  0.05211  0  0.96466  0  0  0.065681  0  1.040649  0  0  0.065678  0  1.040252  0  0.035448  0  0.095277  0.065522  0  1.041099  0
H  H30  1  0.05617921  0.17550842  0.19083527  1  0  0.024627  0  0.951985  0  0  0.042087  0  1.010119  0  0  0.041907  0  1.011509  0  0.013653  0  0.087087  0.042053  0  1.009334  0
H  H31  1  0.94382347  0.82449220  0.80916506  1  0  0.024626  0  0.952006  0  0  0.042062  0  1.010169  0  0  0.041881  0  1.01156  0  0.013686  0  0.087082  0.04203  0  1.009381  0
H  H32  1  0.00978071  0.94593224  0.19550219  1  0  0.092547  0  0.974205  0  0  0.109338  0  1.043623  0  0  0.110725  0  1.043943  0  0.044831  0  0.076078  0.108287  0  1.043532  0
H  H33  1  0.99022093  0.05406743  0.80449827  1  0  0.092557  0  0.974254  0  0  0.10934  0  1.043668  0  0  0.110727  0  1.043989  0  0.044931  0  0.076072  0.10829  0  1.043576  0
H  H34  1  0.85913174  0.04221161  0.15284704  1  0  0.088723  0  0.979097  0  0  0.110046  0  1.042855  0  0  0.111056  0  1.043518  0  0.031795  0  0.081234  0.109262  0  1.042576  0
H  H35  1  0.14087201  0.95778900  0.84715476  1  0  0.088714  0  0.979104  0  0  0.110028  0  1.042872  0  0  0.111037  0  1.043536  0  0.031744  0  0.081238  0.109243  0  1.042593  0
H  H36  1  0.86236606  0.95928342  0.27772976  1  0  0.093531  0  0.952382  0  0  0.114939  0  1.014367  0  0  0.115857  0  1.014891  0  0.019869  0  0.082224  0.114262  0  1.014065  0
H  H37  1  0.13763662  0.04071719  0.72226982  1  0  0.093565  0  0.952342  0  0  0.114949  0  1.014347  0  0  0.115867  0  1.014871  0  0.020207  0  0.082233  0.114272  0  1.014043  0
H  H38  1  0.92152630  0.29715873  0.30959276  1  0  0.0868  0  0.970575  0  0  0.10426  0  1.040848  0  0  0.105233  0  1.04136  0  -0.005286  0  0.078724  0.103406  0  1.040842  0
H  H39  1  0.07847640  0.70284095  0.69040843  1  0  0.086792  0  0.970611  0  0  0.104246  0  1.040895  0  0  0.105221  0  1.041407  0  -0.005368  0  0.078697  0.103392  0  1.040889  0
H  H40  1  0.80729867  0.16859768  0.34405271  1  0  0.101623  0  0.96269  0  0  0.119375  0  1.029859  0  0  0.12102  0  1.029579  0  0.04687  0  0.079362  0.118069  0  1.030437  0
H  H41  1  0.19270404  0.83140199  0.65594774  1  0  0.10161  0  0.962798  0  0  0.119364  0  1.029955  0  0  0.121011  0  1.029676  0  0.046922  0  0.079341  0.118058  0  1.030532  0
H  H42  1  0.80966213  0.25031274  0.21837093  1  0  0.087669  0  0.964949  0  0  0.112496  0  1.023893  0  0  0.113023  0  1.025249  0  0.005709  0  0.081491  0.111829  0  1.023432  0
H  H43  1  0.19033950  0.74968693  0.78163027  1  0  0.087651  0  0.965036  0  0  0.112475  0  1.023984  0  0  0.113004  0  1.02534  0  0.005666  0  0.081494  0.11181  0  1.02352  0
H  H44  1  0.53258100  0.34848703  0.92635147  1  0  0.0614  0  0.925033  0  0  0.078271  0  0.985614  0  0  0.078836  0  0.985076  0  0.038107  0  0.101334  0.077746  0  0.986027  0
H  H45  1  0.46741970  0.65150796  0.07364884  1  0  0.061368  0  0.92501  0  0  0.078216  0  0.985607  0  0  0.078805  0  0.985042  0  0.038149  0  0.101323  0.077694  0  0.986021  0
H  H46  1  0.64357703  0.32175651  0.82336682  1  0  0.085071  0  0.963014  0  0  0.097996  0  1.029093  0  0  0.099331  0  1.02854  0  0.11543  0  0.106461  0.095961  0  1.031125  0
H  H47  1  0.35642153  0.67823847  0.17663501  1  0  0.085023  0  0.963097  0  0  0.097966  0  1.029147  0  0  0.0993  0  1.028596  0  0.115367  0  0.106456  0.095918  0  1.031195  0
H  H48  1  0.47641560  0.12189156  0.96305042  1  0  0.026433  0  0.934747  0  0  0.044053  0  0.993113  0  0  0.043858  0  0.994494  0  0.007259  0  0.088803  0.043975  0  0.992524  0
H  H49  1  0.52358082  0.87810342  0.03694922  1  0  0.026524  0  0.934648  0  0  0.04413  0  0.993029  0  0  0.043962  0  0.994376  0  0.0073  0  0.08882  0.044051  0  0.992441  0
H  H50  1  0.60301218  0.96672264  0.87166256  1  0  0.094725  0  0.961999  0  0  0.118007  0  1.021885  0  0  0.11931  0  1.022217  0  0.017238  0  0.085164  0.117035  0  1.021641  0
H  H51  1  0.39698635  0.03327328  0.12833768  1  0  0.094735  0  0.962017  0  0  0.118037  0  1.021893  0  0  0.119333  0  1.022233  0  0.017289  0  0.08517  0.117063  0  1.021652  0
H  H52  1  0.68536289  0.09020375  0.78945832  1  0  0.083893  0  0.984138  0  0  0.10233  0  1.059572  0  0  0.103167  0  1.059537  0  0.013987  0  0.077029  0.101566  0  1.059855  0
H  H53  1  0.31463672  0.90979217  0.21054190  1  0  0.083874  0  0.984131  0  0  0.102332  0  1.059546  0  0  0.10316  0  1.059517  0  0.013967  0  0.077001  0.101562  0  1.059836  0
H  H54  1  0.49832380  0.07090683  0.78556381  1  0  0.097432  0  0.956055  0  0  0.115007  0  1.022679  0  0  0.116508  0  1.022689  0  0.01678  0  0.083796  0.11377  0  1.022956  0
H  H55  1  0.50167364  0.92909003  0.21443484  1  0  0.097425  0  0.956064  0  0  0.115009  0  1.02268  0  0  0.11651  0  1.022689  0  0.016817  0  0.0838  0.113777  0  1.02295  0
H  H56  1  0.71774497  0.04451237  0.02062109  1  0  0.090168  0  0.96912  0  0  0.110227  0  1.034405  0  0  0.111625  0  1.034164  0  0.021579  0  0.083518  0.109135  0  1.034624  0
H  H57  1  0.28225252  0.95548261  0.97938076  1  0  0.090173  0  0.969184  0  0  0.110245  0  1.034445  0  0  0.11165  0  1.034197  0  0.021663  0  0.083531  0.109147  0  1.03467  0
H  H58  1  0.68837306  0.20189818  0.04147898  1  0  0.094658  0  0.960982  0  0  0.115182  0  1.024214  0  0  0.11634  0  1.024777  0  0.001818  0  0.085672  0.114272  0  1.023879  0
H  H59  1  0.31162229  0.79809680  0.95852215  1  0  0.094633  0  0.96104  0  0  0.115197  0  1.024224  0  0  0.116356  0  1.024787  0  0.001961  0  0.085671  0.114286  0  1.023888  0
H  H60  1  0.79788710  0.16948006  0.93850671  1  0  0.101235  0  0.962315  0  0  0.12248  0  1.023386  0  0  0.123682  0  1.024002  0  0.029541  0  0.085918  0.121273  0  1.02352  0
H  H61  1  0.20210828  0.83051398  0.06149602  1  0  0.101267  0  0.962212  0  0  0.122471  0  1.023339  0  0  0.123674  0  1.023956  0  0.029442  0  0.085896  0.121264  0  1.023472  0
H  H62  1  0.29086143  0.16524745  0.86249208  1  0  0.060388  0  0.941789  0  0  0.075667  0  1.008828  0  0  0.075961  0  1.008905  0  0.013792  0  0.101334  0.075621  0  1.008634  0
H  H63  1  0.70913478  0.83475504  0.13750811  1  0  0.060372  0  0.941794  0  0  0.075652  0  1.008824  0  0  0.075946  0  1.008903  0  0.013763  0  0.101337  0.075605  0  1.008631  0
H  H64  1  0.20831930  0.28733989  0.77926538  1  0  0.075162  0  0.975433  0  0  0.090347  0  1.040955  0  0  0.090158  0  1.042863  0  0.056913  0  0.100067  0.089745  0  1.040892  0
H  H65  1  0.79167801  0.71266166  0.22073343  1  0  0.075204  0  0.975393  0  0  0.090374  0  1.040925  0  0  0.090186  0  1.042833  0  0.056949  0  0.10007  0.089772  0  1.040863  0
H  H66  1  0.31804162  0.31620408  0.98642253  1  0  0.025815  0  0.937608  0  0  0.043278  0  0.995868  0  0  0.042936  0  0.997141  0  0.010688  0  0.089315  0.043377  0  0.99531  0
H  H67  1  0.68195673  0.68379841  0.01357615  1  0  0.025838  0  0.937567  0  0  0.043302  0  0.995812  0  0  0.042957  0  0.99709  0  0.01064  0  0.089329  0.043409  0  0.995242  0
H  H68  1  0.11363090  0.17071164  0.99886423  1  0  0.093378  0  0.947808  0  0  0.116271  0  1.007179  0  0  0.117495  0  1.00739  0  0.000235  0  0.084546  0.115372  0  1.007041  0
H  H69  1  0.88636959  0.82929085  0.00113515  1  0  0.093347  0  0.947781  0  0  0.11624  0  1.007157  0  0  0.117464  0  1.007368  0  0.000197  0  0.084512  0.115342  0  1.00702  0
H  H70  1  0.01218977  0.28523063  0.91882062  1  0  0.102195  0  0.985771  0  0  0.121934  0  1.049949  0  0  0.123442  0  1.050083  0  0.055795  0  0.077499  0.120622  0  1.05024  0
H  H71  1  0.98780648  0.71477093  0.08117895  1  0  0.102216  0  0.98578  0  0  0.121956  0  1.049958  0  0  0.123462  0  1.050092  0  0.055817  0  0.077544  0.120646  0  1.050245  0
H  H72  1  0.06222541  0.31519310  0.03915526  1  0  0.098636  0  0.95893  0  0  0.121516  0  1.018539  0  0  0.122481  0  1.019393  0  0.041686  0  0.087381  0.120717  0  1.01799  0
H  H73  1  0.93777404  0.68480846  0.96084500  1  0  0.098647  0  0.95892  0  0  0.121528  0  1.018526  0  0  0.122492  0  1.019381  0  0.041709  0  0.087385  0.120727  0  1.017978  0
H  H74  1  0.18038023  0.52068088  0.95911567  1  0  0.097151  0  0.953257  0  0  0.120737  0  1.011459  0  0  0.12212  0  1.011457  0  0.019408  0  0.086557  0.119647  0  1.01151  0
H  H75  1  0.81961710  0.47931973  0.04088325  1  0  0.097166  0  0.953289  0  0  0.120757  0  1.011475  0  0  0.122141  0  1.011472  0  0.01941  0  0.086583  0.119668  0  1.011526  0
H  H76  1  0.13253220  0.49280890  0.83771379  1  0  0.100995  0  0.952203  0  0  0.122914  0  1.013652  0  0  0.123806  0  1.014686  0  0.03546  0  0.084647  0.122302  0  1.012838  0
H  H77  1  0.86746513  0.50719171  0.16228513  1  0  0.101033  0  0.952216  0  0  0.1229  0  1.013712  0  0  0.123791  0  1.014746  0  0.03551  0  0.084645  0.122289  0  1.012897  0
H  H78  1  0.31395728  0.51738134  0.86392074  1  0  0.091374  0  0.973646  0  0  0.109066  0  1.043626  0  0  0.109998  0  1.044412  0  0.047362  0  0.082316  0.108407  0  1.042979  0
H  H79  1  0.68604000  0.48262115  0.13607795  1  0  0.091453  0  0.973641  0  0  0.109134  0  1.043613  0  0  0.110065  0  1.044399  0  0.047291  0  0.082324  0.108474  0  1.042966  0
C  C80  1  0.29955069  0.51033637  0.58368103  1  0  0.121891  0  3.668027  0  0  0.079708  0  3.920436  0  0  0.089285  0  3.934838  0  0.497441  0  0.057781  0.073491  0  3.910697  0
C  C81  1  0.70044977  0.48966706  0.41631750  1  0  0.121875  0  3.667752  0  0  0.079758  0  3.920099  0  0  0.089336  0  3.934501  0  0.497382  0  0.057808  0.073544  0  3.910359  0
C  C82  1  0.33327247  0.38802990  0.62968539  1  0  -0.072488  0  3.757629  0  0  -0.047501  0  4.000737  0  0  -0.056419  0  4.021132  0  0.006409  0  -0.003326  -0.042462  0  3.987814  0
C  C83  1  0.66672901  0.61197541  0.37031437  1  0  -0.072556  0  3.757594  0  0  -0.04757  0  4.000679  0  0  -0.056491  0  4.021072  0  0.006791  0  -0.003318  -0.04253  0  3.987757  0
C  C84  1  0.27441777  0.28797258  0.59141818  1  0  -0.037527  0  3.665726  0  0  -0.082685  0  3.92361  0  0  -0.075752  0  3.936324  0  -0.019786  0  -0.055951  -0.087081  0  3.915846  0
C  C85  1  0.72557842  0.71203085  0.40858264  1  0  -0.037535  0  3.665699  0  0  -0.082718  0  3.923607  0  0  -0.075783  0  3.936318  0  -0.02022  0  -0.055984  -0.087123  0  3.91585  0
C  C86  1  0.18576697  0.31365456  0.50823113  1  0  -0.068421  0  3.759562  0  0  -0.044382  0  4.004361  0  0  -0.052856  0  4.024092  0  -0.05016  0  -0.000866  -0.039406  0  3.991511  0
C  C87  1  0.81423568  0.68634699  0.49176686  1  0  -0.068415  0  3.759309  0  0  -0.0444  0  4.004095  0  0  -0.052874  0  4.02383  0  -0.050134  0  -0.000921  -0.039423  0  3.991249  0
C  C88  1  0.15688404  0.43868421  0.46795157  1  0  0.108907  0  3.671277  0  0  0.06634  0  3.929607  0  0  0.07464  0  3.945951  0  0.518448  0  0.049415  0.060931  0  3.918549  0
C  C89  1  0.84311544  0.56131641  0.53204510  1  0  0.108832  0  3.671443  0  0  0.066248  0  3.92977  0  0  0.074545  0  3.946117  0  0.518378  0  0.049397  0.06084  0  3.918709  0
C  C90  1  0.11279098  0.21249708  0.46504441  1  0  0.491092  0  3.816662  0  0  0.439202  0  4.102319  0  0  0.469516  0  4.102396  0  1.39499  0  0.245532  0.418864  0  4.101601  0
C  C91  1  0.88721167  0.78750447  0.53495581  1  0  0.491146  0  3.816628  0  0  0.439344  0  4.102161  0  0  0.469657  0  4.10224  0  1.394935  0  0.245591  0.418998  0  4.101458  0
C  C92  1  0.31465470  0.20317857  0.34414671  1  0  -0.038082  0  3.622537  0  0  -0.100304  0  3.87566  0  0  -0.096716  0  3.889567  0  0.268585  0  -0.061511  -0.102448  0  3.865919  0
C  C93  1  0.68534689  0.79682298  0.65585352  1  0  -0.037874  0  3.622428  0  0  -0.100106  0  3.875548  0  0  -0.096518  0  3.889456  0  0.268544  0  -0.061396  -0.10225  0  3.865804  0
C  C94  1  0.32466886  0.26126553  0.23295951  1  0  0.095161  0  3.662045  0  0  0.103896  0  3.901234  0  0  0.103586  0  3.919487  0  0.029349  0  -0.093913  0.104395  0  3.888417  0
C  C95  1  0.67533268  0.73873790  0.76703900  1  0  0.095104  0  3.662052  0  0  0.10383  0  3.901264  0  0  0.103521  0  3.919514  0  0.029393  0  -0.09393  0.104328  0  3.888451  0
C  C96  1  0.48284169  0.27819035  0.20462392  1  0  -0.31922  0  3.695925  0  0  -0.397782  0  3.937786  0  0  -0.400444  0  3.948932  0  -0.072677  0  -0.244423  -0.395533  0  3.93024  0
C  C97  1  0.51715877  0.72181308  0.79537387  1  0  -0.319145  0  3.695757  0  0  -0.397741  0  3.937655  0  0  -0.400386  0  3.94881  0  -0.072706  0  -0.244418  -0.395505  0  3.9301  0
C  C98  1  0.24095537  0.38563339  0.21061879  1  0  -0.335338  0  3.690903  0  0  -0.417259  0  3.934592  0  0  -0.420178  0  3.94534  0  -0.078738  0  -0.257534  -0.414814  0  3.927085  0
C  C99  1  0.75904624  0.61436722  0.78938081  1  0  -0.335366  0  3.69089  0  0  -0.417281  0  3.934559  0  0  -0.420202  0  3.945307  0  -0.078654  0  -0.257524  -0.414837  0  3.927052  0
C  C100  1  0.09490158  0.07647897  0.33960615  1  0  -0.039106  0  3.603622  0  0  -0.099498  0  3.847694  0  0  -0.095513  0  3.860267  0  0.260743  0  -0.066847  -0.102057  0  3.839252  0
C  C101  1  0.90510110  0.92352164  0.66039492  1  0  -0.039174  0  3.603648  0  0  -0.099506  0  3.847621  0  0  -0.095515  0  3.86019  0  0.261071  0  -0.066874  -0.102079  0  3.839213  0
C  C102  1  0.99303468  0.12515919  0.25358192  1  0  0.092667  0  3.650191  0  0  0.103422  0  3.884153  0  0  0.102579  0  3.902847  0  0.043313  0  -0.092863  0.104267  0  3.870904  0
C  C103  1  0.00696907  0.87484143  0.74641840  1  0  0.092628  0  3.650315  0  0  0.10338  0  3.884277  0  0  0.102539  0  3.902971  0  0.042993  0  -0.0929  0.104226  0  3.871024  0
C  C104  1  0.92784796  0.01188586  0.21749718  1  0  -0.31788  0  3.698653  0  0  -0.39271  0  3.935404  0  0  -0.395802  0  3.947251  0  -0.106064  0  -0.249511  -0.390217  0  3.927104  0
C  C105  1  0.07215579  0.98811475  0.78250313  1  0  -0.31791  0  3.698749  0  0  -0.392703  0  3.935493  0  0  -0.395797  0  3.947345  0  -0.106174  0  -0.249498  -0.39021  0  3.927191  0
C  C106  1  0.87642951  0.21525687  0.28332408  1  0  -0.319252  0  3.69476  0  0  -0.398097  0  3.935851  0  0  -0.400684  0  3.947305  0  -0.037899  0  -0.252066  -0.396079  0  3.928482  0
C  C107  1  0.12357319  0.78474281  0.71667711  1  0  -0.319209  0  3.694971  0  0  -0.398055  0  3.936059  0  0  -0.400639  0  3.947499  0  -0.037865  0  -0.252018  -0.396038  0  3.928687  0
C  C108  1  0.45003671  0.37237421  0.70523751  1  0  0.479593  0  3.850168  0  0  0.427653  0  4.140678  0  0  0.457387  0  4.141314  0  1.377772  0  0.238325  0.407898  0  4.139517  0
C  C109  1  0.54996492  0.62762547  0.29476295  1  0  0.479715  0  3.849991  0  0  0.427788  0  4.140529  0  0  0.457523  0  4.14116  0  1.37789  0  0.238368  0.408033  0  4.139365  0
C  C110  1  0.54813713  0.28883055  0.86732269  1  0  -0.039447  0  3.620522  0  0  -0.100494  0  3.870518  0  0  -0.096414  0  3.882854  0  0.236205  0  -0.063701  -0.102773  0  3.862494  0
C  C111  1  0.45186145  0.71116349  0.13267852  1  0  -0.039368  0  3.620538  0  0  -0.100341  0  3.87045  0  0  -0.096275  0  3.882781  0  0.236408  0  -0.06374  -0.10262  0  3.862443  0
C  C112  1  0.57070806  0.15144476  0.91545212  1  0  0.089503  0  3.666485  0  0  0.098178  0  3.907065  0  0  0.097413  0  3.926086  0  0.057831  0  -0.093062  0.098779  0  3.893785  0
C  C113  1  0.42928946  0.84854929  0.08454836  1  0  0.089374  0  3.666499  0  0  0.098014  0  3.907132  0  0  0.097234  0  3.926163  0  0.057668  0  -0.093013  0.09862  0  3.893848  0
C  C114  1  0.58950894  0.06501083  0.83616162  1  0  -0.31383  0  3.684423  0  0  -0.394902  0  3.928866  0  0  -0.397431  0  3.940197  0  -0.053378  0  -0.247748  -0.392588  0  3.920784  0
C  C115  1  0.41048959  0.93498509  0.16383787  1  0  -0.313822  0  3.684398  0  0  -0.394937  0  3.928873  0  0  -0.397452  0  3.940219  0  -0.053408  0  -0.247765  -0.392626  0  3.920804  0
C  C116  1  0.70090477  0.14157711  0.98303519  1  0  -0.320675  0  3.689779  0  0  -0.395535  0  3.925382  0  0  -0.398598  0  3.936756  0  -0.056605  0  -0.244782  -0.393005  0  3.917678  0
C  C117  1  0.29908954  0.85841694  0.01696608  1  0  -0.320672  0  3.689874  0  0  -0.39551  0  3.925438  0  0  -0.398586  0  3.93682  0  -0.056829  0  -0.244779  -0.392974  0  3.917738  0
C  C118  1  0.28675052  0.26778858  0.83928823  1  0  -0.039922  0  3.627105  0  0  -0.104406  0  3.881545  0  0  -0.100737  0  3.895597  0  0.327702  0  -0.062866  -0.106381  0  3.872102  0
C  C119  1  0.71324681  0.73221203  0.16071144  1  0  -0.039988  0  3.627231  0  0  -0.104441  0  3.881643  0  0  -0.100779  0  3.895708  0  0.327468  0  -0.062876  -0.106416  0  3.8722  0
C  C120  1  0.23557805  0.33231504  0.92823308  1  0  0.091854  0  3.659794  0  0  0.100404  0  3.901929  0  0  0.100213  0  3.920046  0  0.037522  0  -0.093275  0.100587  0  3.889341  0
C  C121  1  0.76441819  0.66768651  0.07176649  1  0  0.091759  0  3.659832  0  0  0.100357  0  3.901888  0  0  0.100167  0  3.920006  0  0.037494  0  -0.093288  0.100537  0  3.889303  0
C  C122  1  0.09820622  0.27215918  0.97393075  1  0  -0.322514  0  3.68399  0  0  -0.399288  0  3.92114  0  0  -0.402423  0  3.932253  0  -0.08738  0  -0.246864  -0.396768  0  3.913605  0
C  C123  1  0.90179109  0.72784237  0.02606881  1  0  -0.322493  0  3.683995  0  0  -0.399279  0  3.921134  0  0  -0.402413  0  3.932246  0  -0.087354  0  -0.246894  -0.39676  0  3.913601  0
C  C124  1  0.21487112  0.47375135  0.89552023  1  0  -0.324618  0  3.693378  0  0  -0.403755  0  3.934255  0  0  -0.406409  0  3.945235  0  -0.10197  0  -0.24896  -0.401469  0  3.926295  0
C  C125  1  0.78512622  0.52624927  0.10447944  1  0  -0.324698  0  3.693419  0  0  -0.403806  0  3.934291  0  0  -0.406457  0  3.945266  0  -0.101888  0  -0.248976  -0.401521  0  3.926335  0
N  N126  1  0.21186224  0.53442068  0.50584535  1  0  -0.28738  0  3.270753  0  0  -0.215792  0  3.544398  0  0  -0.23484  0  3.562555  0  -1.213869  0  -0.30957  -0.202989  0  3.531748  0
N  N127  1  0.78814149  0.46558087  0.49415336  1  0  -0.287308  0  3.270779  0  0  -0.21578  0  3.544446  0  0  -0.234827  0  3.562598  0  -1.213876  0  -0.309577  -0.202977  0  3.531794  0
N  N128  1  0.16958631  0.17351649  0.38189134  1  0  -0.184061  0  3.392361  0  0  -0.095723  0  3.622875  0  0  -0.116975  0  3.645699  0  -1.166759  0  -0.266458  -0.081729  0  3.60737  0
N  N129  1  0.83041637  0.82648413  0.61810899  1  0  -0.184129  0  3.392283  0  0  -0.095831  0  3.622791  0  0  -0.117085  0  3.645612  0  -1.166766  0  -0.266463  -0.081834  0  3.607286  0
N  N130  1  0.42718361  0.30864095  0.79896456  1  0  -0.2019  0  3.410668  0  0  -0.112614  0  3.642161  0  0  -0.134299  0  3.665723  0  -1.142197  0  -0.273986  -0.098262  0  3.625991  0
N  N131  1  0.57281701  0.69135685  0.20103467  1  0  -0.201865  0  3.410569  0  0  -0.112679  0  3.642141  0  0  -0.134363  0  3.665709  0  -1.14198  0  -0.273999  -0.098323  0  3.625971  0
Cl  Cl132  1  0.07075828  0.68059180  0.26830551  1  0  -0.467456  0  1.018514  0  0  -0.400896  0  1.295108  0  0  -0.4192  0  1.278112  0  -0.508553  0  -0.236189  -0.387599  0  1.307849  0
Cl  Cl133  1  0.92924117  0.31940975  0.73169475  1  0  -0.467454  0  1.01851  0  0  -0.400908  0  1.295135  0  0  -0.419218  0  1.278148  0  -0.508563  0  -0.236191  -0.38761  0  1.307877  0
Cl  Cl134  1  0.38670907  0.85291238  0.46970171  1  0  -0.461744  0  0.925663  0  0  -0.397556  0  1.17679  0  0  -0.416343  0  1.160054  0  -0.487927  0  -0.264204  -0.384269  0  1.188424  0
Cl  Cl135  1  0.61329254  0.14708823  0.53029715  1  0  -0.461745  0  0.925674  0  0  -0.397551  0  1.176798  0  0  -0.416331  0  1.160051  0  -0.487911  0  -0.264197  -0.384261  0  1.18843  0
O  O136  1  0.99859926  0.17036620  0.50544982  1  0  -0.549688  0  2.026232  0  0  -0.498837  0  2.277321  0  0  -0.524227  0  2.270875  0  -1.135583  0  -0.290745  -0.481236  0  2.281564  0
O  O137  1  0.00140235  0.82963442  0.49455052  1  0  -0.549692  0  2.026274  0  0  -0.49892  0  2.277368  0  0  -0.524308  0  2.270924  0  -1.135559  0  -0.29077  -0.481313  0  2.281621  0
O  O138  1  0.56705193  0.41970081  0.67610354  1  0  -0.554219  0  1.997572  0  0  -0.512745  0  2.239942  0  0  -0.53604  0  2.235257  0  -1.137664  0  -0.299639  -0.495879  0  2.242558  0
O  O139  1  0.43295080  0.58029792  0.32389851  1  0  -0.554257  0  1.997487  0  0  -0.512765  0  2.239835  0  0  -0.536062  0  2.235148  0  -1.137795  0  -0.299633  -0.4959  0  2.242445  0
