# generated using pymatgen
data_LiBH14C18(NO3)2
_symmetry_space_group_name_H-M   'P 1'
_cell_length_a   8.75940246
_cell_length_b   9.87418803
_cell_length_c   11.77668663
_cell_angle_alpha   105.19055966
_cell_angle_beta   92.04817288
_cell_angle_gamma   112.40214121
_symmetry_Int_Tables_number   1
_chemical_formula_structural   LiBH14C18(NO3)2
_chemical_formula_sum   'Li2 B2 H28 C36 N4 O12'
_cell_volume   898.25685631
_cell_formula_units_Z   2
loop_
 _symmetry_equiv_pos_site_id
 _symmetry_equiv_pos_as_xyz
  1  'x, y, z'
loop_
 _atom_site_type_symbol
 _atom_site_label
 _atom_site_symmetry_multiplicity
 _atom_site_fract_x
 _atom_site_fract_y
 _atom_site_fract_z
 _atom_site_occupancy
 _atom_site_hle17_bader_spin_density
 _atom_site_hle17_ddec_charge
 _atom_site_hle17_ddec_spin_density
 _atom_site_hle17_ddec_sum_bond_order
 _atom_site_hle17_magmom
 _atom_site_hse06_10hf_bader_spin_density
 _atom_site_hse06_10hf_ddec_charge
 _atom_site_hse06_10hf_ddec_spin_density
 _atom_site_hse06_10hf_ddec_sum_bond_order
 _atom_site_hse06_10hf_magmom
 _atom_site_hse06_bader_spin_density
 _atom_site_hse06_ddec_charge
 _atom_site_hse06_ddec_spin_density
 _atom_site_hse06_ddec_sum_bond_order
 _atom_site_hse06_magmom
 _atom_site_pbe_bader_spin_density
 _atom_site_pbe_cm5_charge
 _atom_site_pbe_ddec_charge
 _atom_site_pbe_ddec_spin_density
 _atom_site_pbe_ddec_sum_bond_order
 _atom_site_pbe_magmom
Li  Li0  1  0.00302079  0.67655333  0.30722337  1  0  0.862319  0  0.406192  0  0  0.81386  0  0.531466  0  0  0.824993  0  0.511255  0  0  0.553821  0.805948  0  0.545679  0
Li  Li1  1  0.99697776  0.32344813  0.69277691  1  0  0.862317  0  0.406184  0  0  0.813843  0  0.531492  0  0  0.82497  0  0.511287  0  0  0.553801  0.805922  0  0.545714  0
B  B2  1  0.61451196  0.94253798  0.20418662  1  0  1.060939  0  2.86944  0  0  0.895453  0  3.220411  0  0  0.928143  0  3.196438  0  0  0.063012  0.871937  0  3.238431  0
B  B3  1  0.38548610  0.05746236  0.79581085  1  0  1.060918  0  2.86955  0  0  0.895458  0  3.220466  0  0  0.92815  0  3.196492  0  0  0.063025  0.871932  0  3.238498  0
H  H4  1  0.47642597  0.80820117  0.85216288  1  0  0.123905  0  0.966543  0  0  0.129384  0  1.032071  0  0  0.133607  0  1.030189  0  0  0.107265  0.126384  0  1.033505  0
H  H5  1  0.52357117  0.19179455  0.14783608  1  0  0.123949  0  0.966556  0  0  0.129426  0  1.032076  0  0  0.133647  0  1.030195  0  0  0.107295  0.126427  0  1.033512  0
H  H6  1  0.48982564  0.57564128  0.71555128  1  0  0.080423  0  0.96876  0  0  0.092662  0  1.030675  0  0  0.09441  0  1.030274  0  0  0.101177  0.091205  0  1.031338  0
H  H7  1  0.51017542  0.42435556  0.28444974  1  0  0.080399  0  0.968762  0  0  0.092648  0  1.030672  0  0  0.094389  0  1.030276  0  0  0.101162  0.091191  0  1.031337  0
H  H8  1  0.63773403  0.43439170  0.78963791  1  0  0.106513  0  0.964501  0  0  0.111844  0  1.033451  0  0  0.11581  0  1.031447  0  0  0.10285  0.108978  0  1.035087  0
H  H9  1  0.36226476  0.56560516  0.21036220  1  0  0.106515  0  0.964502  0  0  0.111845  0  1.033449  0  0  0.11581  0  1.031445  0  0  0.102842  0.108979  0  1.035088  0
H  H10  1  0.76592686  0.52897428  0.00366541  1  0  0.091082  0  0.953496  0  0  0.102957  0  1.013292  0  0  0.105434  0  1.012273  0  0  0.107077  0.101312  0  1.013725  0
H  H11  1  0.23407130  0.47102372  0.99633579  1  0  0.091098  0  0.953495  0  0  0.102973  0  1.013285  0  0  0.105447  0  1.012275  0  0  0.107083  0.101327  0  1.013718  0
H  H12  1  0.79576962  0.38724715  0.40437341  1  0  0.115933  0  0.954535  0  0  0.124015  0  1.019004  0  0  0.127653  0  1.017593  0  0  0.112835  0.121415  0  1.020042  0
H  H13  1  0.20423071  0.61275318  0.59562412  1  0  0.115868  0  0.954588  0  0  0.123968  0  1.019027  0  0  0.127607  0  1.017614  0  0  0.112815  0.121367  0  1.020063  0
H  H14  1  0.66234944  0.49069369  0.56800455  1  0  0.077397  0  0.967212  0  0  0.09022  0  1.027293  0  0  0.092055  0  1.026979  0  0  0.099808  0.088804  0  1.027826  0
H  H15  1  0.33765151  0.50930547  0.43199528  1  0  0.077394  0  0.967214  0  0  0.090216  0  1.027297  0  0  0.09205  0  1.026986  0  0  0.099803  0.0888  0  1.027832  0
H  H16  1  0.39183851  0.31938527  0.61421091  1  0  0.097015  0  0.961867  0  0  0.106322  0  1.025784  0  0  0.109343  0  1.025045  0  0  0.103285  0.104203  0  1.026499  0
H  H17  1  0.60816295  0.68061504  0.38578919  1  0  0.096995  0  0.961842  0  0  0.106306  0  1.025758  0  0  0.109328  0  1.025014  0  0  0.103291  0.104189  0  1.026475  0
H  H18  1  0.25770482  0.04467902  0.49366690  1  0  0.103802  0  0.936043  0  0  0.113755  0  0.996158  0  0  0.117517  0  0.99315  0  0  0.112698  0.110967  0  0.998427  0
H  H19  1  0.74229715  0.95532244  0.50633262  1  0  0.10378  0  0.936087  0  0  0.113746  0  0.996189  0  0  0.117507  0  0.993183  0  0  0.112704  0.110956  0  0.998464  0
H  H20  1  0.94748586  0.20661323  0.97226801  1  0  0.152449  0  0.928173  0  0  0.17096  0  0.983605  0  0  0.171993  0  0.984289  0  0  0.116596  0.170193  0  0.983219  0
H  H21  1  0.05251496  0.79338821  0.02773403  1  0  0.152461  0  0.928154  0  0  0.170973  0  0.983573  0  0  0.172007  0  0.984255  0  0  0.116589  0.170196  0  0.983198  0
H  H22  1  0.74877236  0.12703095  0.02176573  1  0  0.174457  0  0.942295  0  0  0.185327  0  1.005872  0  0  0.188974  0  1.00295  0  0  0.118795  0.182811  0  1.007784  0
H  H23  1  0.25123061  0.87297277  0.97823858  1  0  0.174499  0  0.94222  0  0  0.18534  0  1.005828  0  0  0.188987  0  1.002907  0  0  0.118795  0.182823  0  1.007739  0
H  H24  1  0.78236484  0.25953263  0.93751968  1  0  0.168517  0  0.923997  0  0  0.184123  0  0.981811  0  0  0.186536  0  0.980341  0  0  0.123884  0.182436  0  0.982682  0
H  H25  1  0.21763547  0.74046766  0.06248209  1  0  0.16851  0  0.924049  0  0  0.184116  0  0.981842  0  0  0.18653  0  0.98037  0  0  0.123877  0.182428  0  0.982714  0
H  H26  1  0.78862370  0.76955042  0.71007936  1  0  0.141748  0  0.957061  0  0  0.159053  0  1.018992  0  0  0.159344  0  1.021087  0  0  0.11013  0.158809  0  1.017524  0
H  H27  1  0.21137890  0.23044987  0.28992162  1  0  0.141729  0  0.957088  0  0  0.159047  0  1.019006  0  0  0.159338  0  1.021101  0  0  0.110124  0.158804  0  1.017538  0
H  H28  1  0.00620762  0.82258733  0.75668918  1  0  0.160218  0  0.921837  0  0  0.177933  0  0.977527  0  0  0.179936  0  0.976595  0  0  0.119695  0.176351  0  0.97835  0
H  H29  1  0.99379498  0.17741297  0.24331181  1  0  0.160215  0  0.921838  0  0  0.177961  0  0.977485  0  0  0.179964  0  0.976552  0  0  0.119704  0.176377  0  0.978311  0
H  H30  1  0.94029164  0.95223093  0.70878666  1  0  0.16536  0  0.915304  0  0  0.184069  0  0.968306  0  0  0.185974  0  0.96722  0  0  0.125491  0.182565  0  0.969251  0
H  H31  1  0.05970982  0.04776936  0.29121513  1  0  0.165359  0  0.915298  0  0  0.184061  0  0.968308  0  0  0.185965  0  0.967224  0  0  0.125494  0.182558  0  0.969253  0
C  C32  1  0.61164655  0.79811928  0.00354114  1  0  0.336907  0  3.813766  0  0  0.318372  0  4.0677  0  0  0.333362  0  4.082314  0  0  0.105266  0.308202  0  4.057659  0
C  C33  1  0.38835326  0.20187989  0.99645866  1  0  0.337016  0  3.813804  0  0  0.318475  0  4.067738  0  0  0.333464  0  4.082354  0  0  0.105301  0.308305  0  4.057697  0
C  C34  1  0.54047748  0.74654308  0.88351929  1  0  -0.200312  0  3.710815  0  0  -0.217782  0  3.963649  0  0  -0.225934  0  3.982693  0  0  -0.105831  -0.212551  0  3.950806  0
C  C35  1  0.45952082  0.25345265  0.11647800  1  0  -0.20045  0  3.710949  0  0  -0.217916  0  3.963781  0  0  -0.226069  0  3.982825  0  0  -0.105871  -0.212685  0  3.950943  0
C  C36  1  0.54947344  0.61603746  0.80802644  1  0  -0.032293  0  3.776733  0  0  -0.047185  0  4.026263  0  0  -0.043666  0  4.045813  0  0  -0.082976  -0.048983  0  4.012718  0
C  C37  1  0.45052587  0.38396056  0.19197308  1  0  -0.032228  0  3.77667  0  0  -0.047122  0  4.026189  0  0  -0.043598  0  4.045745  0  0  -0.082938  -0.04892  0  4.01265  0
C  C38  1  0.63161219  0.53664359  0.84909956  1  0  -0.115161  0  3.768113  0  0  -0.133886  0  4.03126  0  0  -0.140529  0  4.052962  0  0  -0.103991  -0.129513  0  4.016419  0
C  C39  1  0.36838762  0.46335555  0.15090193  1  0  -0.115148  0  3.76808  0  0  -0.133881  0  4.031242  0  0  -0.140523  0  4.052942  0  0  -0.104011  -0.12951  0  4.016412  0
C  C40  1  0.70318498  0.58861630  0.96785254  1  0  -0.029605  0  3.765928  0  0  -0.052929  0  4.015572  0  0  -0.049186  0  4.036302  0  0  -0.077862  -0.055096  0  4.001155  0
C  C41  1  0.29681483  0.41138286  0.03214811  1  0  -0.029654  0  3.765946  0  0  -0.052966  0  4.015584  0  0  -0.049223  0  4.036313  0  0  -0.077862  -0.055133  0  4.001169  0
C  C42  1  0.69343313  0.71843912  0.04615970  1  0  -0.245249  0  3.825207  0  0  -0.22588  0  4.063099  0  0  -0.240536  0  4.08644  0  0  -0.037666  -0.216238  0  4.047425  0
C  C43  1  0.30656656  0.28156234  0.95384062  1  0  -0.245208  0  3.825204  0  0  -0.225871  0  4.063092  0  0  -0.240526  0  4.086428  0  0  -0.037661  -0.216224  0  4.047411  0
C  C44  1  0.76914460  0.77430293  0.17199868  1  0  0.690918  0  3.833214  0  0  0.637108  0  4.128855  0  0  0.672696  0  4.116707  0  0  0.24943  0.612967  0  4.136556  0
C  C45  1  0.23085458  0.22569739  0.82800051  1  0  0.690867  0  3.833331  0  0  0.637129  0  4.128876  0  0  0.672725  0  4.116716  0  0  0.249416  0.612986  0  4.136574  0
C  C46  1  0.60218639  0.15815236  0.35721884  1  0  0.344374  0  3.796387  0  0  0.324667  0  4.051571  0  0  0.339906  0  4.066075  0  0  0.112056  0.314453  0  4.041084  0
C  C47  1  0.39781103  0.84184914  0.64277802  1  0  0.344379  0  3.796415  0  0  0.324557  0  4.051709  0  0  0.33979  0  4.066215  0  0  0.111995  0.314343  0  4.041219  0
C  C48  1  0.67813737  0.31343401  0.42470734  1  0  -0.190871  0  3.717977  0  0  -0.209973  0  3.970989  0  0  -0.217744  0  3.990341  0  0  -0.093984  -0.204161  0  3.957501  0
C  C49  1  0.32186183  0.68656632  0.57529016  1  0  -0.19084  0  3.718027  0  0  -0.209917  0  3.971033  0  0  -0.217687  0  3.990385  0  0  -0.093971  -0.204104  0  3.957543  0
C  C50  1  0.60209381  0.37004182  0.51600430  1  0  -0.025441  0  3.771878  0  0  -0.040614  0  4.022554  0  0  -0.037266  0  4.042189  0  0  -0.078545  -0.042882  0  4.010095  0
C  C51  1  0.39790601  0.62995736  0.48399381  1  0  -0.025434  0  3.771893  0  0  -0.040609  0  4.022565  0  0  -0.037261  0  4.0422  0  0  -0.078538  -0.042879  0  4.010115  0
C  C52  1  0.45050253  0.27495058  0.54218127  1  0  -0.110047  0  3.777529  0  0  -0.129938  0  4.042438  0  0  -0.135971  0  4.064408  0  0  -0.103672  -0.126984  0  4.028792  0
C  C53  1  0.54949779  0.72504973  0.45781795  1  0  -0.110022  0  3.777447  0  0  -0.12992  0  4.04239  0  0  -0.135952  0  4.064363  0  0  -0.103666  -0.126969  0  4.028752  0
C  C54  1  0.37478640  0.12185850  0.47511131  1  0  -0.031803  0  3.756701  0  0  -0.057726  0  4.012188  0  0  -0.053783  0  4.031106  0  0  -0.078255  -0.060439  0  3.999692  0
C  C55  1  0.62521280  0.87814183  0.52488619  1  0  -0.031706  0  3.756698  0  0  -0.057676  0  4.012172  0  0  -0.053736  0  4.03109  0  0  -0.07825  -0.060391  0  3.999679  0
C  C56  1  0.44863898  0.06217559  0.38191722  1  0  -0.246978  0  3.821839  0  0  -0.228006  0  4.060236  0  0  -0.243117  0  4.084508  0  0  -0.036559  -0.217597  0  4.043351  0
C  C57  1  0.55135843  0.93782589  0.61808134  1  0  -0.247086  0  3.821994  0  0  -0.227965  0  4.06027  0  0  -0.243067  0  4.08453  0  0  -0.036514  -0.217555  0  4.043382  0
C  C58  1  0.36513259  0.90150024  0.30875585  1  0  0.702621  0  3.826509  0  0  0.649942  0  4.116792  0  0  0.685257  0  4.105818  0  0  0.252464  0.625908  0  4.123386  0
C  C59  1  0.63486545  0.09850009  0.69124247  1  0  0.702598  0  3.826612  0  0  0.649878  0  4.116891  0  0  0.685195  0  4.105912  0  0  0.252415  0.625844  0  4.123481  0
C  C60  1  0.90075656  0.35495644  0.11482006  1  0  0.440375  0  3.706341  0  0  0.425352  0  3.994712  0  0  0.438005  0  4.010387  0  0  0.221695  0.416664  0  3.984167  0
C  C61  1  0.09924527  0.64504729  0.88518337  1  0  0.440462  0  3.706565  0  0  0.425427  0  3.994909  0  0  0.438078  0  4.010584  0  0  0.221749  0.416735  0  3.984358  0
C  C62  1  0.84164191  0.22980108  0.00556683  1  0  -0.382604  0  3.701646  0  0  -0.446061  0  3.924575  0  0  -0.449489  0  3.928119  0  0  -0.202715  -0.443506  0  3.922032  0
C  C63  1  0.15836055  0.77020150  0.99443636  1  0  -0.382719  0  3.701664  0  0  -0.446141  0  3.924523  0  0  -0.449572  0  3.928069  0  0  -0.202741  -0.443573  0  3.921992  0
C  C64  1  0.93670934  0.76493733  0.57450525  1  0  0.453913  0  3.678719  0  0  0.441613  0  3.961383  0  0  0.454352  0  3.976282  0  0  0.23189  0.432935  0  3.951216  0
C  C65  1  0.06329099  0.23506298  0.42549397  1  0  0.454003  0  3.678747  0  0  0.441701  0  3.961404  0  0  0.454438  0  3.976301  0  0  0.231934  0.43302  0  3.951235  0
C  C66  1  0.91613825  0.83098289  0.69462748  1  0  -0.369738  0  3.721764  0  0  -0.439313  0  3.946318  0  0  -0.441835  0  3.95141  0  0  -0.201467  -0.437222  0  3.942845  0
C  C67  1  0.08386384  0.16901625  0.30537323  1  0  -0.369748  0  3.721751  0  0  -0.439343  0  3.94627  0  0  -0.441865  0  3.951364  0  0  -0.201464  -0.437249  0  3.942798  0
N  N68  1  0.94841759  0.45600371  0.20282209  1  0  -0.534126  0  2.640837  0  0  -0.508261  0  2.878466  0  0  -0.520692  0  2.886522  0  0  -0.373244  -0.499951  0  2.873277  0
N  N69  1  0.05158475  0.54400117  0.79718076  1  0  -0.53414  0  2.641019  0  0  -0.508268  0  2.878636  0  0  -0.520696  0  2.886693  0  0  -0.373255  -0.499959  0  2.87345  0
N  N70  1  0.95284190  0.71103352  0.47780524  1  0  -0.531411  0  2.6395  0  0  -0.505545  0  2.876293  0  0  -0.518198  0  2.884204  0  0  -0.37222  -0.49719  0  2.871177  0
N  N71  1  0.04715957  0.28896680  0.52219402  1  0  -0.531466  0  2.639543  0  0  -0.505608  0  2.876337  0  0  -0.518258  0  2.884247  0  0  -0.37226  -0.497248  0  2.871221  0
O  O72  1  0.60331239  0.92522779  0.07644341  1  0  -0.557681  0  2.269166  0  0  -0.478128  0  2.514115  0  0  -0.499682  0  2.507659  0  0  -0.176769  -0.462759  0  2.517883  0
O  O73  1  0.39668514  0.07477137  0.92355633  1  0  -0.557736  0  2.269159  0  0  -0.478161  0  2.514074  0  0  -0.499709  0  2.507604  0  0  -0.176789  -0.462791  0  2.517842  0
O  O74  1  0.73347052  0.88299891  0.24412252  1  0  -0.580207  0  2.206007  0  0  -0.49863  0  2.45172  0  0  -0.522332  0  2.440731  0  0  -0.160455  -0.48192  0  2.458598  0
O  O75  1  0.26652969  0.11700372  0.75587552  1  0  -0.580185  0  2.206115  0  0  -0.49864  0  2.451786  0  0  -0.52235  0  2.440799  0  0  -0.160425  -0.481931  0  2.458665  0
O  O76  1  0.86581791  0.72674956  0.21091860  1  0  -0.660226  0  1.9756  0  0  -0.618339  0  2.216728  0  0  -0.638399  0  2.203752  0  0  -0.362559  -0.604495  0  2.225241  0
O  O77  1  0.13417847  0.27324959  0.78908280  1  0  -0.660235  0  1.975655  0  0  -0.61837  0  2.216743  0  0  -0.638429  0  2.203767  0  0  -0.362576  -0.604523  0  2.225255  0
O  O78  1  0.67667036  0.10546032  0.26784663  1  0  -0.555354  0  2.265667  0  0  -0.473636  0  2.510654  0  0  -0.495448  0  2.504502  0  0  -0.17163  -0.458177  0  2.514284  0
O  O79  1  0.32332706  0.89454118  0.73215023  1  0  -0.555331  0  2.265716  0  0  -0.473603  0  2.510726  0  0  -0.495416  0  2.504582  0  0  -0.171625  -0.458144  0  2.514354  0
O  O80  1  0.44609737  0.84957968  0.22645263  1  0  -0.590717  0  2.230798  0  0  -0.507009  0  2.475668  0  0  -0.531206  0  2.465103  0  0  -0.160101  -0.489786  0  2.482345  0
O  O81  1  0.55390409  0.15042063  0.77354663  1  0  -0.590686  0  2.230832  0  0  -0.506974  0  2.475696  0  0  -0.531177  0  2.465134  0  0  -0.160072  -0.489751  0  2.482372  0
O  O82  1  0.22376826  0.81533429  0.31870937  1  0  -0.661344  0  1.970718  0  0  -0.620159  0  2.210889  0  0  -0.640293  0  2.198149  0  0  -0.370718  -0.605994  0  2.219226  0
O  O83  1  0.77623155  0.18466488  0.68128958  1  0  -0.661325  0  1.970675  0  0  -0.620135  0  2.210856  0  0  -0.64027  0  2.198121  0  0  -0.370729  -0.605972  0  2.219197  0
