# generated using pymatgen
data_Zn3H30C38O25
_symmetry_space_group_name_H-M   'P 1'
_cell_length_a   18.37172795
_cell_length_b   18.49247821
_cell_length_c   18.94996830
_cell_angle_alpha   109.76679328
_cell_angle_beta   109.87144634
_cell_angle_gamma   108.49222071
_symmetry_Int_Tables_number   1
_chemical_formula_structural   Zn3H30C38O25
_chemical_formula_sum   'Zn6 H60 C76 O50'
_cell_volume   4972.58272810
_cell_formula_units_Z   2
loop_
 _symmetry_equiv_pos_site_id
 _symmetry_equiv_pos_as_xyz
  1  'x, y, z'
loop_
 _atom_site_type_symbol
 _atom_site_label
 _atom_site_symmetry_multiplicity
 _atom_site_fract_x
 _atom_site_fract_y
 _atom_site_fract_z
 _atom_site_occupancy
 _atom_site_pbe_bader_charge
 _atom_site_pbe_bader_spin_density
 _atom_site_pbe_cm5_charge
 _atom_site_pbe_ddec_charge
 _atom_site_pbe_ddec_spin_density
 _atom_site_pbe_ddec_sum_bond_order
 _atom_site_pbe_magmom
Zn  Zn0  1  0.50511520  0.43891901  0.44343406  1  1.308831  0  0.730296  0.953136  0  2.132643  0
Zn  Zn1  1  0.50238156  0.56493877  0.56726435  1  1.319651  0  0.743512  0.975125  0  2.095801  0
Zn  Zn2  1  0.93874119  0.43084887  0.99638090  1  1.302496  0  0.724456  0.941394  0  2.150735  0
Zn  Zn3  1  0.06622110  0.56221451  0.00449740  1  1.312703  0  0.731408  0.957795  0  2.139829  0
Zn  Zn4  1  0.06733683  0.99767871  0.55855706  1  1.312861  0  0.73349  0.959769  0  2.136164  0
Zn  Zn5  1  0.93320741  0.99443274  0.43780386  1  1.30905  0  0.734784  0.960955  0  2.106026  0
H  H6  1  0.06451307  0.45692345  0.22112473  1  0.13166  0  0.112825  0.067532  0  0.967077  0
H  H7  1  0.54497250  0.53279673  0.28450139  1  0.101556  0  0.105048  0.11916  0  1.029712  0
H  H8  1  0.64023523  0.54246583  0.36555488  1  0.038188  0  0.09499  0.099545  0  0.99798  0
H  H9  1  0.65425554  0.60115522  0.30805966  1  0.02993  0  0.091898  0.08801  0  1.010273  0
H  H10  1  0.49216381  0.44270985  0.67999855  1  0.087992  0  0.101948  0.119435  0  0.999052  0
H  H11  1  0.51688913  0.38362487  0.73455766  1  0.049513  0  0.098896  0.096352  0  0.984949  0
H  H12  1  0.53353596  0.37048710  0.64412206  1  0.082686  0  0.099467  0.101226  0  1.036974  0
H  H13  1  0.75711104  0.49758341  0.97612588  1  0.084942  0  0.102749  0.114429  0  0.994905  0
H  H14  1  0.68825559  0.41861199  0.86289704  1  0.048188  0  0.100412  0.09931  0  0.988862  0
H  H15  1  0.66683540  0.50639610  0.90932787  1  0.075295  0  0.100057  0.100647  0  0.997541  0
H  H16  1  0.95359642  0.55628335  0.70646883  1  0.078547  0  0.103605  0.042412  0  0.963036  0
H  H17  1  0.72558801  0.49124084  0.53983899  1  0.099968  0  0.10498  0.058321  0  0.985929  0
H  H18  1  0.19154027  0.48144820  0.49633714  1  0.085612  0  0.114625  0.131784  0  0.960316  0
H  H19  1  0.14776423  0.37229248  0.41177356  1  0.035031  0  0.090888  0.081634  0  1.021329  0
H  H20  1  0.26300370  0.45193148  0.46400632  1  0.048479  0  0.087741  0.085353  0  1.047479  0
H  H21  1  0.98707908  0.24263332  0.48404014  1  0.076733  0  0.108588  0.118457  0  0.9821  0
H  H22  1  0.02381852  0.21941648  0.40675130  1  0.059875  0  0.096195  0.09278  0  0.991598  0
H  H23  1  0.06506921  0.33195020  0.48538756  1  0.072481  0  0.102602  0.10635  0  1.00548  0
H  H24  1  0.34918869  0.06147142  0.54036257  1  0.067415  0  0.110957  0.118987  0  0.966338  0
H  H25  1  0.33052963  0.13300120  0.61505561  1  0.056136  0  0.094408  0.097427  0  1.006112  0
H  H26  1  0.41240545  0.17856636  0.58744486  1  0.051057  0  0.094849  0.091655  0  1.014367  0
H  H27  1  0.44921512  0.21344862  0.42489740  1  0.063241  0  0.1075  0.11804  0  0.971243  0
H  H28  1  0.35462113  0.22325938  0.37020821  1  0.066665  0  0.094876  0.099884  0  1.000855  0
H  H29  1  0.34026459  0.13424770  0.39326477  1  0.069423  0  0.096824  0.095519  0  1.012808  0
H  H30  1  0.06538961  0.83063294  0.12645710  1  0.064989  0  0.100745  0.096444  0  0.999228  0
H  H31  1  0.96132406  0.82628725  0.07116517  1  0.062417  0  0.105951  0.109892  0  0.994524  0
H  H32  1  0.99508303  0.75798455  0.01196411  1  0.079154  0  0.110484  0.121615  0  0.974558  0
H  H33  1  0.30552013  0.60099613  0.44667134  1  0.088543  0  0.104454  0.043982  0  0.976786  0
H  H34  1  0.09823757  0.94877876  0.24468890  1  0.040406  0  0.092167  0.081181  0  1.014594  0
H  H35  1  0.08453322  0.95458136  0.33520337  1  0.069545  0  0.098761  0.108245  0  1.010591  0
H  H36  1  0.03804477  0.00090563  0.27572872  1  0.053297  0  0.108043  0.121671  0  0.966822  0
H  H37  1  0.93718412  0.76894607  0.41525888  1  0.032992  0  0.088183  0.021389  0  1.036081  0
H  H38  1  0.91102271  0.46972367  0.25775380  1  0.066151  0  0.109705  0.119408  0  0.968216  0
H  H39  1  0.84356227  0.46946239  0.16273425  1  0.039779  0  0.088484  0.089194  0  1.020716  0
H  H40  1  0.85273186  0.53018885  0.26617033  1  0.071811  0  0.095371  0.099323  0  1.021378  0
H  H41  1  0.15251340  0.45955091  0.85797353  1  0.072541  0  0.100303  0.107416  0  0.99155  0
H  H42  1  0.23150414  0.42036351  0.86404867  1  0.035093  0  0.089808  0.082435  0  1.029905  0
H  H43  1  0.23593606  0.48805350  0.96111479  1  0.042811  0  0.098061  0.102108  0  0.995564  0
H  H44  1  0.22889467  0.33593034  0.74932127  1  0.058951  0  0.089955  0.083081  0  1.004718  0
H  H45  1  0.13036782  0.24935599  0.65044403  1  0.070892  0  0.095584  0.096872  0  1.069654  0
H  H46  1  0.21259286  0.22579649  0.70488407  1  0.079138  0  0.097202  0.109053  0  0.996278  0
H  H47  1  0.83346649  0.17316314  0.50092954  1  0.031303  0  0.091069  0.089991  0  1.010757  0
H  H48  1  0.78486271  0.21217868  0.56328536  1  0.066276  0  0.099003  0.101235  0  1.002634  0
H  H49  1  0.72330154  0.10168368  0.47287233  1  0.070914  0  0.105548  0.109888  0  0.974479  0
H  H50  1  0.70147923  0.17350384  0.70574810  1  0.04248  0  0.102439  0.1067  0  0.976946  0
H  H51  1  0.79052127  0.17228529  0.78267233  1  0.067776  0  0.093615  0.0974  0  1.003716  0
H  H52  1  0.74268325  0.10155048  0.66767691  1  0.069561  0  0.095859  0.095004  0  1.008746  0
H  H53  1  0.47351673  0.69853958  0.29929921  1  0.054467  0  0.098613  0.104174  0  1.009657  0
H  H54  1  0.44140875  0.74700175  0.37509458  1  0.107945  0  0.098169  0.109067  0  1.033009  0
H  H55  1  0.44463963  0.78223247  0.29801140  1  0.064066  0  0.10895  0.11681  0  0.968211  0
H  H56  1  0.38866802  0.58711007  0.13988735  1  0.058736  0  0.106465  0.111458  0  0.994826  0
H  H57  1  0.34965273  0.47137101  0.07694619  1  0.023563  0  0.098678  0.093503  0  1.011124  0
H  H58  1  0.46648524  0.54824613  0.13892505  1  0.068819  0  0.114749  0.123795  0  0.966101  0
H  H59  1  0.23744663  0.33596149  0.05045550  1  0.0694  0  0.10745  0.043816  0  0.95373  0
H  H60  1  0.19541013  0.33882279  0.28508750  1  0.058404  0  0.10791  0.047491  0  0.956846  0
H  H61  1  0.86543444  0.82507323  0.76687376  1  0.077106  0  0.111917  0.049455  0  0.958064  0
H  H62  1  0.06331893  0.91422747  0.78398706  1  0.075713  0  0.114007  0.1232  0  0.962753  0
H  H63  1  0.02569602  0.84105718  0.67281796  1  0.079923  0  0.101038  0.110057  0  0.998507  0
H  H64  1  0.97956154  0.80133302  0.73094995  1  0.032609  0  0.094838  0.086568  0  1.004132  0
H  H65  1  0.79505531  0.75988379  0.36346817  1  0.062021  0  0.096526  0.026284  0  0.993507  0
C  C66  1  0.63623815  0.64009068  0.54533787  1  1.584954  0  0.229757  0.630684  0  4.145334  0
C  C67  1  0.24145801  0.43965579  0.15785879  1  -0.045704  0  -0.003838  -0.062251  0  3.620707  0
C  C68  1  0.23755445  0.42501055  0.23370710  1  0.006295  0  0.019264  0.017825  0  3.609811  0
C  C69  1  0.33702918  0.50194108  0.30029007  1  0.008511  0  0.012913  -0.086417  0  3.604513  0
C  C70  1  0.79433155  0.76642546  0.62493303  1  0.005871  0  -0.01588  -0.092263  0  3.978509  0
C  C71  1  0.86338005  0.82565069  0.62293194  1  0.51958  0  0.104046  0.217903  0  4.010268  0
C  C72  1  0.84926285  0.82485076  0.54484499  1  0.076046  0  -0.008832  -0.140177  0  3.918237  0
C  C73  1  0.76516957  0.76721355  0.46941021  1  -0.046168  0  -0.001826  -0.056614  0  3.910888  0
C  C74  1  0.69701464  0.70703450  0.47121745  1  0.555703  0  0.098415  0.198598  0  4.010351  0
C  C75  1  0.71170935  0.70702784  0.54881383  1  0.074315  0  0.004765  -0.097896  0  3.900386  0
C  C76  1  0.69277083  0.49426870  0.74685745  1  0.580032  0  0.09508  0.147706  0  4.026248  0
C  C77  1  0.40263216  0.49586284  0.36762292  1  1.577534  0  0.225653  0.619227  0  4.126168  0
C  C78  1  0.77181534  0.51873405  0.81906681  1  0.553885  0  0.099082  0.151625  0  4.03806  0
C  C79  1  0.84534701  0.52069634  0.81054422  1  0.049267  0  -0.005309  -0.129434  0  3.922004  0
C  C80  1  0.84401740  0.50552993  0.73236119  1  -0.00151  0  -0.000974  -0.000761  0  3.926974  0
C  C81  1  0.76741116  0.48680260  0.66172828  1  0.000748  0  -0.013975  -0.028161  0  3.976379  0
C  C82  1  0.69113054  0.47980012  0.66827715  1  -0.00284  0  -0.013  -0.146945  0  3.936546  0
C  C83  1  0.23969485  0.33304477  0.52367934  1  0.573052  0  0.079521  0.13956  0  4.046365  0
C  C84  1  0.18067908  0.26030719  0.52135427  1  0.576098  0  0.079783  0.132901  0  4.048643  0
C  C85  1  0.19659275  0.18910036  0.51335061  1  -0.042399  0  -0.024148  -0.201262  0  3.987241  0
C  C86  1  0.26922102  0.18835545  0.50495571  1  0.558592  0  0.072066  0.12398  0  4.076213  0
C  C87  1  0.32649122  0.25906843  0.50410365  1  0.526437  0  0.075719  0.132952  0  4.043282  0
C  C88  1  0.37639323  0.40590161  0.51439422  1  1.536119  0  0.223858  0.628241  0  4.139394  0
C  C89  1  0.31227420  0.33183986  0.51404585  1  0.017669  0  -0.030624  -0.219832  0  3.972931  0
C  C90  1  0.96601540  0.58320740  0.10823613  1  1.574033  0  0.230115  0.651356  0  4.108421  0
C  C91  1  0.13944008  0.51335941  0.11661363  1  1.580282  0  0.228295  0.628902  0  4.119051  0
C  C92  1  0.97857795  0.35979495  0.88014067  1  1.586699  0  0.236172  0.659591  0  4.085519  0
C  C93  1  0.91786672  0.52842115  0.88506307  1  1.575738  0  0.227092  0.63353  0  4.124413  0
C  C94  1  0.96708843  0.86747976  0.36125491  1  1.55719  0  0.221671  0.603606  0  4.165332  0
C  C95  1  0.91796590  0.88808239  0.53868090  1  1.559963  0  0.225762  0.614603  0  4.127322  0
C  C96  1  0.97930147  0.11561015  0.59260844  1  1.552968  0  0.225742  0.638009  0  4.106772  0
C  C97  1  0.13309826  0.11223885  0.51048757  1  1.583349  0  0.231687  0.643227  0  4.126753  0
C  C98  1  0.95960695  0.72331848  0.15811678  1  0.55465  0  0.104285  0.17936  0  4.028329  0
C  C99  1  0.61332439  0.46820871  0.59643135  1  1.537767  0  0.222696  0.612867  0  4.140402  0
C  C100  1  0.96466399  0.79506995  0.22235134  1  0.552156  0  0.073967  0.108088  0  4.038912  0
C  C101  1  0.96021940  0.78988763  0.29296707  1  -0.003196  0  -0.010243  -0.119157  0  3.951501  0
C  C102  1  0.95417416  0.71629303  0.30393411  1  -0.00878  0  -0.033546  -0.121223  0  3.98658  0
C  C103  1  0.95559837  0.64781579  0.24216828  1  0.572977  0  0.102776  0.241183  0  4.010715  0
C  C104  1  0.95705605  0.65122220  0.16995442  1  0.045178  0  -0.027089  -0.232501  0  3.951302  0
C  C105  1  0.05847231  0.30143949  0.81454446  1  0.578887  0  0.081029  0.139357  0  4.040355  0
C  C106  1  0.06024675  0.24315420  0.74544146  1  0.554033  0  0.085438  0.150868  0  4.027497  0
C  C107  1  0.98055729  0.18253985  0.66460399  1  -0.005551  0  -0.030196  -0.223761  0  3.953228  0
C  C108  1  0.90021937  0.18056144  0.65578581  1  0.542003  0  0.081218  0.142515  0  4.041365  0
C  C109  1  0.89858884  0.23590324  0.72681206  1  0.534953  0  0.078534  0.132051  0  4.053273  0
C  C110  1  0.30411634  0.57077448  0.32350848  1  -0.045552  0  -0.004008  -0.055701  0  3.599776  0
C  C111  1  0.97770003  0.29604243  0.80596586  1  0.04149  0  -0.011907  -0.177275  0  3.953847  0
C  C112  1  0.20438108  0.49456523  0.25722368  1  -0.031432  0  0.009108  -0.001376  0  3.607895  0
C  C113  1  0.20992407  0.51043247  0.18259985  1  0.021047  0  0.005111  -0.095234  0  3.619397  0
C  C114  1  0.30858581  0.58590974  0.24661273  1  0.633661  0  0.09408  0.149133  0  3.7357  0
C  C115  1  0.34171153  0.51486536  0.22400382  1  0.604464  0  0.093421  0.144418  0  3.727982  0
C  C116  1  0.12936382  0.47692123  0.27489743  1  0.916825  0  0.110914  0.282861  0  3.905832  0
C  C117  1  0.61439792  0.57691944  0.33547477  1  0.388168  0  -0.143739  -0.175344  0  3.886791  0
C  C118  1  0.53679236  0.41729679  0.70087896  1  0.35807  0  -0.139757  -0.173179  0  3.880677  0
C  C119  1  0.71846110  0.48795370  0.91188111  1  0.369918  0  -0.134734  -0.167962  0  3.889267  0
C  C120  1  0.92369759  0.50843650  0.72487607  1  0.977046  0  0.098874  0.284647  0  3.977015  0
C  C121  1  0.77198709  0.47904032  0.58337153  1  0.925971  0  0.092475  0.266249  0  3.95468  0
C  C122  1  0.20620889  0.42798729  0.47353542  1  0.395828  0  -0.143271  -0.178224  0  3.923604  0
C  C123  1  0.04336137  0.26439016  0.47352084  1  0.3633  0  -0.134204  -0.165012  0  3.884391  0
C  C124  1  0.34764249  0.12355333  0.56356039  1  0.376368  0  -0.137792  -0.168896  0  3.900759  0
C  C125  1  0.38406684  0.20351631  0.41633201  1  0.354067  0  -0.140174  -0.168969  0  3.888906  0
C  C126  1  0.99619180  0.78808061  0.07331242  1  0.380528  0  -0.129331  -0.169399  0  3.878511  0
C  C127  1  0.33219981  0.63324450  0.41431083  1  0.993112  0  0.102995  0.304241  0  3.943231  0
C  C128  1  0.05263675  0.94692418  0.27055216  1  0.397329  0  -0.137327  -0.169163  0  3.885564  0
C  C129  1  0.94521939  0.71395077  0.37780438  1  0.961764  0  0.078609  0.271775  0  4.007191  0
C  C130  1  0.88718994  0.50846420  0.23352215  1  0.389652  0  -0.140373  -0.169881  0  3.906711  0
C  C131  1  0.19188469  0.43629306  0.89284127  1  0.402226  0  -0.141718  -0.168945  0  3.915408  0
C  C132  1  0.17962865  0.26543143  0.71379837  1  0.357886  0  -0.148546  -0.169729  0  3.904158  0
C  C133  1  0.78934643  0.15487903  0.52654448  1  0.3852  0  -0.137969  -0.166081  0  3.904803  0
C  C134  1  0.76066629  0.16594976  0.71827921  1  0.371895  0  -0.14045  -0.172212  0  3.915248  0
C  C135  1  0.43065509  0.72626193  0.30916158  1  0.32459  0  -0.141791  -0.181051  0  3.869053  0
C  C136  1  0.40302314  0.53313456  0.13713053  1  0.405669  0  -0.131513  -0.177604  0  3.88451  0
C  C137  1  0.19529782  0.36007890  0.07026514  1  0.994542  0  0.103544  0.283652  0  3.958067  0
C  C138  1  0.20758295  0.33923387  0.23126299  1  0.956401  0  0.107068  0.277806  0  3.943925  0
C  C139  1  0.81191064  0.76302748  0.70584380  1  0.949952  0  0.102335  0.28445  0  3.959985  0
C  C140  1  0.00617352  0.85817375  0.72228019  1  0.378391  0  -0.132507  -0.168065  0  3.89856  0
C  C141  1  0.74779645  0.76760986  0.38591685  1  0.989308  0  0.099166  0.305499  0  3.979844  0
O  O142  1  0.61159314  0.56057153  0.49543364  1  -1.170363  0  -0.303989  -0.576334  0  2.395805  0
O  O143  1  0.03051301  0.61117266  0.09616405  1  -1.166311  0  -0.307341  -0.565771  0  2.325872  0
O  O144  1  0.05994054  0.46543262  0.09471530  1  -1.163206  0  -0.303549  -0.565862  0  2.35055  0
O  O145  1  0.16598787  0.56432833  0.08823569  1  -1.125091  0  -0.306301  -0.513054  0  2.264089  0
O  O146  1  0.92470597  0.32979550  0.90519106  1  -1.111853  0  -0.306285  -0.519965  0  2.241739  0
O  O147  1  0.03309944  0.44013014  0.91365044  1  -1.166795  0  -0.297629  -0.557903  0  2.382414  0
O  O148  1  0.89214842  0.47225617  0.90723321  1  -1.15807  0  -0.301395  -0.563067  0  2.358052  0
O  O149  1  0.99866322  0.58887273  0.92142050  1  -1.131616  0  -0.313463  -0.528701  0  2.210372  0
O  O150  1  0.03160831  0.90400520  0.43748547  1  -1.171852  0  -0.309564  -0.569024  0  2.349573  0
O  O151  1  0.90913500  0.89175334  0.33817928  1  -1.12003  0  -0.303902  -0.505451  0  2.248553  0
O  O152  1  0.00036064  0.91276056  0.58381362  1  -1.130451  0  -0.298868  -0.509234  0  2.254096  0
O  O153  1  0.60033255  0.66701718  0.58820514  1  -1.115519  0  -0.305596  -0.509966  0  2.228742  0
O  O154  1  0.88746338  0.91153015  0.48452843  1  -1.15345  0  -0.292977  -0.556664  0  2.370235  0
O  O155  1  0.03117019  0.08524188  0.61383522  1  -1.166956  0  -0.30899  -0.564125  0  2.373861  0
O  O156  1  0.92611504  0.09051345  0.51332617  1  -1.126126  0  -0.305622  -0.523902  0  2.27333  0
O  O157  1  0.16485831  0.08936351  0.56577543  1  -1.124271  0  -0.305208  -0.530338  0  2.269843  0
O  O158  1  0.05229480  0.07559950  0.45373722  1  -1.170492  0  -0.305187  -0.568363  0  2.348448  0
O  O159  1  0.43019699  0.44180597  0.34220923  1  -1.127301  0  -0.306203  -0.511609  0  2.21924  0
O  O160  1  0.42390561  0.54393583  0.44521571  1  -1.164051  0  -0.298067  -0.562478  0  2.356337  0
O  O161  1  0.39718328  0.38492095  0.45601075  1  -1.173579  0  -0.308995  -0.57647  0  2.397153  0
O  O162  1  0.40706124  0.48553087  0.57300401  1  -1.120529  0  -0.305836  -0.518739  0  2.245852  0
O  O163  1  0.58509289  0.41231464  0.51723028  1  -1.121999  0  -0.311824  -0.534721  0  2.244584  0
O  O164  1  0.58095664  0.51713291  0.61856371  1  -1.155668  0  -0.300194  -0.552662  0  2.385406  0
O  O165  1  0.90868701  0.50149290  0.07241653  1  -1.133631  0  -0.307842  -0.531914  0  2.269263  0
O  O166  1  0.13775555  0.48203194  0.34374383  1  -1.077387  0  -0.251435  -0.358507  0  2.153952  0
O  O167  1  0.61519993  0.64834591  0.39864241  1  -1.071196  0  -0.201268  -0.179576  0  2.535487  0
O  O168  1  0.62500666  0.49016725  0.76221603  1  -1.072913  0  -0.185111  -0.145163  0  2.59849  0
O  O169  1  0.78167280  0.54424508  0.89919110  1  -1.070852  0  -0.184609  -0.141415  0  2.587183  0
O  O170  1  0.95738897  0.46535874  0.74339827  1  -1.076339  0  -0.266359  -0.350814  0  2.126634  0
O  O171  1  0.82663413  0.46309311  0.56756382  1  -1.063089  0  -0.257105  -0.350316  0  2.11893  0
O  O172  1  0.22489338  0.40331673  0.53930769  1  -1.068783  0  -0.200322  -0.163446  0  2.564761  0
O  O173  1  0.11171308  0.25947203  0.53435460  1  -1.081583  0  -0.194042  -0.163824  0  2.617686  0
O  O174  1  0.27924570  0.11482220  0.48979611  1  -1.070448  0  -0.207945  -0.182341  0  2.546546  0
O  O175  1  0.40041257  0.25998846  0.50076654  1  -1.066642  0  -0.20494  -0.18319  0  2.588979  0
O  O176  1  0.95245987  0.71470181  0.08222349  1  -1.062685  0  -0.170788  -0.119012  0  2.614017  0
O  O177  1  0.37770290  0.71321711  0.45083516  1  -1.082868  0  -0.258151  -0.349002  0  2.112441  0
O  O178  1  0.96931026  0.86609277  0.21178771  1  -1.073489  0  -0.204546  -0.174078  0  2.552347  0
O  O179  1  0.94440092  0.65847328  0.39969503  1  -1.073431  0  -0.273815  -0.360952  0  2.124941  0
O  O180  1  0.96550914  0.58246129  0.25532348  1  -1.070597  0  -0.203229  -0.185065  0  2.547325  0
O  O181  1  0.13537191  0.36139815  0.89231352  1  -1.072219  0  -0.20572  -0.179182  0  2.592588  0
O  O182  1  0.14065431  0.24764475  0.76415613  1  -1.077363  0  -0.201953  -0.163918  0  2.585038  0
O  O183  1  0.82108965  0.11978970  0.58020422  1  -1.070191  0  -0.210025  -0.182886  0  2.551761  0
O  O184  1  0.82099111  0.23652800  0.71631374  1  -1.071322  0  -0.206726  -0.179349  0  2.545362  0
O  O185  1  0.33779481  0.66323166  0.24629291  1  -1.050693  0  -0.204845  -0.179008  0  2.548555  0
O  O186  1  0.41269701  0.52368194  0.21183051  1  -1.066064  0  -0.195984  -0.171715  0  2.563146  0
O  O187  1  0.11491869  0.32228247  0.02404702  1  -1.062097  0  -0.247321  -0.322148  0  2.140886  0
O  O188  1  0.20006589  0.27407935  0.17682596  1  -1.042577  0  -0.244963  -0.326025  0  2.090177  0
O  O189  1  0.77191874  0.69627841  0.70647116  1  -1.067712  0  -0.252306  -0.338633  0  2.139142  0
O  O190  1  0.94177030  0.88682063  0.69867248  1  -1.083434  0  -0.205362  -0.19343  0  2.539134  0
O  O191  1  0.68374184  0.77082254  0.34227884  1  -1.075685  0  -0.264794  -0.349412  0  2.090819  0
