# generated using pymatgen
data_CuH2C3IN2
_symmetry_space_group_name_H-M   'P 1'
_cell_length_a   5.19879846
_cell_length_b   15.39678886
_cell_length_c   19.62125653
_cell_angle_alpha   90.00028175
_cell_angle_beta   89.99980723
_cell_angle_gamma   89.99952779
_symmetry_Int_Tables_number   1
_chemical_formula_structural   CuH2C3IN2
_chemical_formula_sum   'Cu12 H24 C36 I12 N24'
_cell_volume   1570.57959618
_cell_formula_units_Z   12
loop_
 _symmetry_equiv_pos_site_id
 _symmetry_equiv_pos_as_xyz
  1  'x, y, z'
loop_
 _atom_site_type_symbol
 _atom_site_label
 _atom_site_symmetry_multiplicity
 _atom_site_fract_x
 _atom_site_fract_y
 _atom_site_fract_z
 _atom_site_occupancy
 _atom_site_hle17_bader_spin_density
 _atom_site_hle17_ddec_charge
 _atom_site_hle17_ddec_spin_density
 _atom_site_hle17_ddec_sum_bond_order
 _atom_site_hle17_magmom
 _atom_site_hse06_10hf_bader_spin_density
 _atom_site_hse06_10hf_ddec_charge
 _atom_site_hse06_10hf_ddec_spin_density
 _atom_site_hse06_10hf_ddec_sum_bond_order
 _atom_site_hse06_10hf_magmom
 _atom_site_hse06_bader_spin_density
 _atom_site_hse06_ddec_charge
 _atom_site_hse06_ddec_spin_density
 _atom_site_hse06_ddec_sum_bond_order
 _atom_site_hse06_magmom
 _atom_site_pbe_bader_spin_density
 _atom_site_pbe_cm5_charge
 _atom_site_pbe_ddec_charge
 _atom_site_pbe_ddec_spin_density
 _atom_site_pbe_ddec_sum_bond_order
 _atom_site_pbe_magmom
Cu  Cu0  1  0.61978076  0.62157849  0.75000081  1  0  0.404856  0  1.799247  0  0  0.282235  0  2.243731  0  0  0.298378  0  2.191771  0  0  0.489063  0.272613  0  2.278691  0
Cu  Cu1  1  0.11977867  0.87841819  0.25000043  1  0  0.404871  0  1.799324  0  0  0.282224  0  2.243788  0  0  0.298398  0  2.191801  0  0  0.489078  0.272605  0  2.27873  0
Cu  Cu2  1  0.38021812  0.37841747  0.24999934  1  0  0.404865  0  1.799261  0  0  0.282219  0  2.243759  0  0  0.298402  0  2.191729  0  0  0.489077  0.272596  0  2.278738  0
Cu  Cu3  1  0.88022406  0.12158621  0.74999921  1  0  0.404873  0  1.799416  0  0  0.282238  0  2.24388  0  0  0.29839  0  2.19193  0  0  0.489062  0.272624  0  2.278809  0
Cu  Cu4  1  0.16243850  0.51026735  0.67088966  1  0  0.367898  0  1.771834  0  0  0.226897  0  2.221924  0  0  0.247704  0  2.170379  0  0  0.473978  0.213908  0  2.256849  0
Cu  Cu5  1  0.66243295  0.98973246  0.32911154  1  0  0.367914  0  1.771955  0  0  0.22695  0  2.222036  0  0  0.247722  0  2.170562  0  0  0.47401  0.213971  0  2.256937  0
Cu  Cu6  1  0.83755754  0.48973072  0.17088821  1  0  0.36792  0  1.771901  0  0  0.226975  0  2.221966  0  0  0.247744  0  2.170495  0  0  0.474029  0.213992  0  2.256884  0
Cu  Cu7  1  0.33756685  0.01027048  0.82910936  1  0  0.367933  0  1.771866  0  0  0.226969  0  2.221914  0  0  0.247735  0  2.170459  0  0  0.474  0.213991  0  2.256809  0
Cu  Cu8  1  0.83756423  0.48973186  0.32910947  1  0  0.367931  0  1.771923  0  0  0.226975  0  2.221991  0  0  0.247747  0  2.170496  0  0  0.47403  0.213988  0  2.256927  0
Cu  Cu9  1  0.33757555  0.01027064  0.67088759  1  0  0.36789  0  1.771816  0  0  0.226921  0  2.221878  0  0  0.247696  0  2.170403  0  0  0.473995  0.213939  0  2.256774  0
Cu  Cu10  1  0.16243750  0.51026524  0.82911245  1  0  0.367912  0  1.771906  0  0  0.226951  0  2.222007  0  0  0.247749  0  2.170475  0  0  0.474017  0.213966  0  2.256911  0
Cu  Cu11  1  0.66243396  0.98973327  0.17088926  1  0  0.367955  0  1.771878  0  0  0.226967  0  2.22195  0  0  0.247738  0  2.170481  0  0  0.474028  0.213986  0  2.256864  0
H  H12  1  0.92919648  0.68880596  0.61935932  1  0  0.086848  0  1.006661  0  0  0.093859  0  1.080997  0  0  0.096001  0  1.079266  0  0  0.094638  0.09224  0  1.082332  0
H  H13  1  0.42918864  0.81118597  0.38063858  1  0  0.086822  0  1.006558  0  0  0.093829  0  1.080914  0  0  0.095972  0  1.07918  0  0  0.094627  0.092208  0  1.082247  0
H  H14  1  0.07079636  0.31119114  0.11936143  1  0  0.08682  0  1.00657  0  0  0.093822  0  1.080936  0  0  0.095963  0  1.079204  0  0  0.094612  0.092204  0  1.082272  0
H  H15  1  0.57080475  0.18881145  0.88063739  1  0  0.086797  0  1.00668  0  0  0.093812  0  1.081017  0  0  0.095954  0  1.079283  0  0  0.094632  0.092191  0  1.082355  0
H  H16  1  0.07080625  0.31119260  0.38063879  1  0  0.086773  0  1.00659  0  0  0.093782  0  1.080949  0  0  0.095925  0  1.079216  0  0  0.094602  0.092164  0  1.082285  0
H  H17  1  0.57080640  0.18881064  0.61936055  1  0  0.086764  0  1.006684  0  0  0.093787  0  1.080998  0  0  0.09593  0  1.079262  0  0  0.094613  0.092167  0  1.082335  0
H  H18  1  0.92919675  0.68879963  0.88064229  1  0  0.086882  0  1.006635  0  0  0.093914  0  1.080904  0  0  0.096054  0  1.079175  0  0  0.094681  0.092296  0  1.08224  0
H  H19  1  0.42919798  0.81119231  0.11936174  1  0  0.086772  0  1.006663  0  0  0.093797  0  1.080981  0  0  0.095939  0  1.079248  0  0  0.09461  0.092178  0  1.082321  0
H  H20  1  0.30125756  0.55109858  0.52115411  1  0  0.095159  0  0.971765  0  0  0.105817  0  1.037891  0  0  0.10817  0  1.035821  0  0  0.104536  0.104048  0  1.039465  0
H  H21  1  0.80126459  0.94890214  0.47884289  1  0  0.09537  0  0.971979  0  0  0.106003  0  1.038134  0  0  0.108351  0  1.036055  0  0  0.104635  0.104233  0  1.039706  0
H  H22  1  0.69872499  0.44890245  0.02115670  1  0  0.095233  0  0.971956  0  0  0.105833  0  1.038216  0  0  0.108181  0  1.036139  0  0  0.104581  0.10406  0  1.039789  0
H  H23  1  0.19872947  0.05109264  0.97884150  1  0  0.095171  0  0.97184  0  0  0.105811  0  1.038034  0  0  0.108155  0  1.03596  0  0  0.104601  0.10404  0  1.039606  0
H  H24  1  0.69873171  0.44890907  0.47884095  1  0  0.095329  0  0.971928  0  0  0.105933  0  1.038171  0  0  0.10828  0  1.036091  0  0  0.104696  0.104165  0  1.039746  0
H  H25  1  0.19873622  0.05109511  0.52115522  1  0  0.095334  0  0.971868  0  0  0.105944  0  1.038106  0  0  0.108285  0  1.036039  0  0  0.104648  0.104172  0  1.03968  0
H  H26  1  0.30125082  0.55109546  0.97884600  1  0  0.095262  0  0.971876  0  0  0.105883  0  1.038069  0  0  0.108237  0  1.035997  0  0  0.104614  0.104113  0  1.039641  0
H  H27  1  0.80126557  0.94890592  0.02115814  1  0  0.095131  0  0.971826  0  0  0.105809  0  1.037953  0  0  0.108145  0  1.03589  0  0  0.104576  0.104047  0  1.039518  0
H  H28  1  0.70062433  0.37653408  0.63925255  1  0  0.089278  0  0.986146  0  0  0.098208  0  1.056177  0  0  0.100991  0  1.053685  0  0  0.097579  0.096168  0  1.058043  0
H  H29  1  0.20060600  0.12345970  0.36074973  1  0  0.089328  0  0.98607  0  0  0.098175  0  1.056193  0  0  0.100959  0  1.053694  0  0  0.097592  0.096135  0  1.05806  0
H  H30  1  0.29937019  0.62346184  0.13924955  1  0  0.089303  0  0.986092  0  0  0.098213  0  1.056139  0  0  0.100997  0  1.053642  0  0  0.097604  0.096173  0  1.058006  0
H  H31  1  0.79940302  0.87654669  0.86074643  1  0  0.089187  0  0.986336  0  0  0.098125  0  1.056386  0  0  0.100905  0  1.053896  0  0  0.097544  0.096088  0  1.058249  0
H  H32  1  0.29939956  0.62345668  0.36074505  1  0  0.089217  0  0.986262  0  0  0.09817  0  1.056299  0  0  0.100951  0  1.053806  0  0  0.097565  0.096133  0  1.058163  0
H  H33  1  0.79939673  0.87654405  0.63925144  1  0  0.089305  0  0.986204  0  0  0.098225  0  1.056228  0  0  0.101007  0  1.053735  0  0  0.0976  0.096184  0  1.058094  0
H  H34  1  0.70061524  0.37653802  0.86074856  1  0  0.089291  0  0.986133  0  0  0.098204  0  1.056176  0  0  0.100988  0  1.053682  0  0  0.097598  0.096164  0  1.058041  0
H  H35  1  0.20060548  0.12346226  0.13925525  1  0  0.089319  0  0.986249  0  0  0.098283  0  1.056263  0  0  0.101066  0  1.053767  0  0  0.097619  0.096245  0  1.058127  0
C  C36  1  0.75957899  0.65126456  0.60642183  1  0  -0.01265  0  3.773836  0  0  -0.054244  0  4.032792  0  0  -0.046955  0  4.049434  0  0  -0.017763  -0.058923  0  4.021685  0
C  C37  1  0.25956813  0.84873368  0.39357980  1  0  -0.012619  0  3.774072  0  0  -0.054218  0  4.033002  0  0  -0.046928  0  4.049655  0  0  -0.017833  -0.058894  0  4.021883  0
C  C38  1  0.24041787  0.34873506  0.10642087  1  0  -0.012649  0  3.773959  0  0  -0.054247  0  4.032903  0  0  -0.046959  0  4.049547  0  0  -0.017789  -0.058926  0  4.021793  0
C  C39  1  0.74041548  0.15126382  0.89357831  1  0  -0.012464  0  3.773818  0  0  -0.054068  0  4.032751  0  0  -0.046768  0  4.049389  0  0  -0.017747  -0.058748  0  4.021644  0
C  C40  1  0.24042374  0.34873984  0.39357883  1  0  -0.012635  0  3.774046  0  0  -0.054234  0  4.032974  0  0  -0.046943  0  4.049629  0  0  -0.017818  -0.058912  0  4.021864  0
C  C41  1  0.74042114  0.15126617  0.60642086  1  0  -0.012529  0  3.773922  0  0  -0.054133  0  4.032889  0  0  -0.046837  0  4.049529  0  0  -0.017769  -0.058815  0  4.021784  0
C  C42  1  0.75958294  0.65125896  0.89358030  1  0  -0.012784  0  3.773833  0  0  -0.054373  0  4.032796  0  0  -0.04708  0  4.049438  0  0  -0.017878  -0.059056  0  4.021688  0
C  C43  1  0.25958149  0.84873604  0.10642235  1  0  -0.012556  0  3.773874  0  0  -0.054173  0  4.032823  0  0  -0.046868  0  4.049473  0  0  -0.017741  -0.058856  0  4.02172  0
C  C44  1  0.66154550  0.62779272  0.54261755  1  0  -0.118386  0  3.796295  0  0  -0.08515  0  4.058183  0  0  -0.091926  0  4.084847  0  0  -0.098442  -0.080893  0  4.040274  0
C  C45  1  0.16154478  0.87219995  0.45738008  1  0  -0.118325  0  3.796196  0  0  -0.085054  0  4.058012  0  0  -0.091826  0  4.08467  0  0  -0.098424  -0.080807  0  4.040126  0
C  C46  1  0.33844063  0.37220520  0.04261864  1  0  -0.118452  0  3.796122  0  0  -0.085187  0  4.057982  0  0  -0.091962  0  4.084642  0  0  -0.098481  -0.080934  0  4.040071  0
C  C47  1  0.83844378  0.12778951  0.95737944  1  0  -0.118487  0  3.796359  0  0  -0.085256  0  4.058285  0  0  -0.092031  0  4.084941  0  0  -0.098462  -0.080995  0  4.040355  0
C  C48  1  0.33844185  0.37221038  0.45738056  1  0  -0.118254  0  3.796261  0  0  -0.08497  0  4.058079  0  0  -0.091744  0  4.084741  0  0  -0.098399  -0.08072  0  4.040191  0
C  C49  1  0.83844256  0.12779277  0.54261803  1  0  -0.118496  0  3.796243  0  0  -0.085262  0  4.058162  0  0  -0.092035  0  4.084816  0  0  -0.098512  -0.081001  0  4.04024  0
C  C50  1  0.66153902  0.62778751  0.95738253  1  0  -0.11829  0  3.796276  0  0  -0.085048  0  4.058133  0  0  -0.091821  0  4.084793  0  0  -0.098457  -0.080797  0  4.040238  0
C  C51  1  0.16154548  0.87220581  0.04261969  1  0  -0.118358  0  3.796236  0  0  -0.08512  0  4.058138  0  0  -0.091894  0  4.084792  0  0  -0.098459  -0.080859  0  4.040212  0
C  C52  1  0.43745191  0.58056894  0.55601069  1  0  -0.007598  0  3.769038  0  0  -0.051034  0  4.024379  0  0  -0.044866  0  4.043988  0  0  -0.013029  -0.054747  0  4.010865  0
C  C53  1  0.93743125  0.91943662  0.44399587  1  0  -0.007836  0  3.768689  0  0  -0.051272  0  4.024085  0  0  -0.045088  0  4.043671  0  0  -0.013016  -0.054977  0  4.010558  0
C  C54  1  0.56254751  0.41943621  0.05600717  1  0  -0.007635  0  3.768691  0  0  -0.051074  0  4.024066  0  0  -0.044892  0  4.043658  0  0  -0.013014  -0.054791  0  4.010574  0
C  C55  1  0.06254017  0.08056315  0.94398809  1  0  -0.00755  0  3.769103  0  0  -0.051017  0  4.02448  0  0  -0.044827  0  4.04407  0  0  -0.013039  -0.054738  0  4.010997  0
C  C56  1  0.56255275  0.41944196  0.44399201  1  0  -0.007795  0  3.768909  0  0  -0.051254  0  4.024308  0  0  -0.045066  0  4.043893  0  0  -0.013089  -0.054959  0  4.010776  0
C  C57  1  0.06255417  0.08056324  0.55600580  1  0  -0.007842  0  3.768868  0  0  -0.05129  0  4.024258  0  0  -0.045106  0  4.043865  0  0  -0.013113  -0.054998  0  4.010736  0
C  C58  1  0.43745137  0.58056364  0.94399196  1  0  -0.007807  0  3.769306  0  0  -0.051227  0  4.024665  0  0  -0.045059  0  4.044272  0  0  -0.013074  -0.054934  0  4.011133  0
C  C59  1  0.93745295  0.91943281  0.05601104  1  0  -0.007502  0  3.768925  0  0  -0.050978  0  4.024293  0  0  -0.044784  0  4.043893  0  0  -0.012988  -0.054697  0  4.010783  0
C  C60  1  0.73717462  0.38639664  0.69313238  1  0  -0.005402  0  3.765967  0  0  -0.047812  0  4.023526  0  0  -0.041261  0  4.04111  0  0  -0.016681  -0.051961  0  4.011751  0
C  C61  1  0.23714952  0.11359834  0.30687394  1  0  -0.005428  0  3.765838  0  0  -0.047796  0  4.023437  0  0  -0.041236  0  4.040999  0  0  -0.016732  -0.051943  0  4.011659  0
C  C62  1  0.26283460  0.61359766  0.19312836  1  0  -0.005509  0  3.765942  0  0  -0.047932  0  4.023562  0  0  -0.041373  0  4.041132  0  0  -0.016851  -0.052069  0  4.01176  0
C  C63  1  0.76286211  0.88640901  0.80687020  1  0  -0.005196  0  3.765915  0  0  -0.047631  0  4.023466  0  0  -0.04107  0  4.041041  0  0  -0.016661  -0.05178  0  4.011691  0
C  C64  1  0.26284542  0.61359542  0.30686777  1  0  -0.005293  0  3.765948  0  0  -0.047751  0  4.023486  0  0  -0.041191  0  4.041056  0  0  -0.016655  -0.051902  0  4.011716  0
C  C65  1  0.76286475  0.88640736  0.69312723  1  0  -0.005462  0  3.765886  0  0  -0.047909  0  4.023524  0  0  -0.041348  0  4.041098  0  0  -0.016813  -0.052057  0  4.011749  0
C  C66  1  0.73716813  0.38639830  0.80687128  1  0  -0.005526  0  3.765988  0  0  -0.047932  0  4.023565  0  0  -0.041376  0  4.041141  0  0  -0.0168  -0.052079  0  4.011788  0
C  C67  1  0.23715217  0.11359994  0.19313046  1  0  -0.005431  0  3.765964  0  0  -0.047934  0  4.023568  0  0  -0.041376  0  4.041133  0  0  -0.01672  -0.052083  0  4.011798  0
C  C68  1  0.61721239  0.34940616  0.75000079  1  0  -0.123069  0  3.762801  0  0  -0.088385  0  4.025589  0  0  -0.094952  0  4.052064  0  0  -0.099799  -0.084325  0  4.007739  0
C  C69  1  0.11718709  0.15059370  0.25000360  1  0  -0.123152  0  3.762881  0  0  -0.088448  0  4.025603  0  0  -0.095025  0  4.052107  0  0  -0.099852  -0.084388  0  4.00776  0
C  C70  1  0.38280189  0.65059045  0.24999681  1  0  -0.123173  0  3.762993  0  0  -0.088499  0  4.02581  0  0  -0.095068  0  4.052283  0  0  -0.099833  -0.084437  0  4.007963  0
C  C71  1  0.88282911  0.84941460  0.74999859  1  0  -0.123212  0  3.763062  0  0  -0.088515  0  4.025827  0  0  -0.095059  0  4.052226  0  0  -0.099809  -0.084454  0  4.007978  0
I  I72  1  0.33017994  0.25400224  0.75000175  1  0  0.022605  0  1.68333  0  0  0.018727  0  2.070617  0  0  0.019544  0  2.050181  0  0  0.11383  0.017822  0  2.085183  0
I  I73  1  0.83015450  0.24599379  0.25000754  1  0  0.022601  0  1.68347  0  0  0.018751  0  2.070742  0  0  0.01956  0  2.050302  0  0  0.113852  0.017848  0  2.085325  0
I  I74  1  0.66982857  0.74599177  0.24999941  1  0  0.022631  0  1.683443  0  0  0.018746  0  2.070762  0  0  0.019563  0  2.050317  0  0  0.11385  0.017839  0  2.085332  0
I  I75  1  0.16984246  0.75400867  0.75000127  1  0  0.022559  0  1.68347  0  0  0.018684  0  2.070753  0  0  0.019489  0  2.050305  0  0  0.113804  0.01778  0  2.085329  0
I  I76  1  0.80489420  0.66040812  0.44731581  1  0  0.043905  0  1.514191  0  0  0.04442  0  1.843753  0  0  0.039422  0  1.835029  0  0  0.128067  0.047721  0  1.850112  0
I  I77  1  0.30488540  0.83959195  0.55268527  1  0  0.043868  0  1.51411  0  0  0.044392  0  1.843635  0  0  0.039387  0  1.834916  0  0  0.128029  0.047689  0  1.849994  0
I  I78  1  0.19510026  0.33958712  0.94731503  1  0  0.043925  0  1.514153  0  0  0.044474  0  1.843659  0  0  0.039469  0  1.834935  0  0  0.128071  0.047777  0  1.850013  0
I  I79  1  0.69509675  0.16040668  0.05268368  1  0  0.043921  0  1.514083  0  0  0.044441  0  1.843667  0  0  0.039442  0  1.834942  0  0  0.128066  0.047744  0  1.850024  0
I  I80  1  0.19510853  0.33959109  0.55268434  1  0  0.0439  0  1.51408  0  0  0.044403  0  1.843632  0  0  0.039398  0  1.834904  0  0  0.128064  0.047702  0  1.849992  0
I  I81  1  0.69509810  0.16040856  0.44731437  1  0  0.043971  0  1.514143  0  0  0.044523  0  1.843684  0  0  0.03952  0  1.834962  0  0  0.128107  0.047819  0  1.850037  0
I  I82  1  0.80489862  0.66040819  0.05268563  1  0  0.043936  0  1.514031  0  0  0.044476  0  1.84355  0  0  0.039473  0  1.83483  0  0  0.1281  0.047772  0  1.849909  0
I  I83  1  0.30490598  0.83959512  0.94731596  1  0  0.043895  0  1.514054  0  0  0.0444  0  1.843622  0  0  0.0394  0  1.8349  0  0  0.128056  0.047701  0  1.849976  0
N  N84  1  0.60222157  0.61923552  0.65524236  1  0  -0.232616  0  3.439644  0  0  -0.148775  0  3.72112  0  0  -0.162551  0  3.734725  0  0  -0.330835  -0.139954  0  3.712133  0
N  N85  1  0.10223168  0.88076445  0.34475890  1  0  -0.232758  0  3.439804  0  0  -0.14885  0  3.721243  0  0  -0.162645  0  3.73486  0  0  -0.330825  -0.14003  0  3.712256  0
N  N86  1  0.39776890  0.38076375  0.15524139  1  0  -0.232649  0  3.439642  0  0  -0.148777  0  3.721117  0  0  -0.162554  0  3.734718  0  0  -0.330797  -0.139958  0  3.712139  0
N  N87  1  0.89777177  0.11923469  0.84475562  1  0  -0.232789  0  3.439617  0  0  -0.148891  0  3.721067  0  0  -0.162688  0  3.734677  0  0  -0.330847  -0.140073  0  3.712075  0
N  N88  1  0.39776770  0.38076693  0.34475932  1  0  -0.232735  0  3.439749  0  0  -0.148846  0  3.721199  0  0  -0.162647  0  3.734826  0  0  -0.330815  -0.140027  0  3.712224  0
N  N89  1  0.89777874  0.11923930  0.65524074  1  0  -0.232718  0  3.439635  0  0  -0.148808  0  3.72108  0  0  -0.1626  0  3.734692  0  0  -0.330854  -0.139993  0  3.712089  0
N  N90  1  0.60222614  0.61922897  0.84475927  1  0  -0.23268  0  3.439548  0  0  -0.148812  0  3.721045  0  0  -0.162599  0  3.734658  0  0  -0.330829  -0.139993  0  3.712058  0
N  N91  1  0.10222904  0.88076646  0.15524300  1  0  -0.232699  0  3.439584  0  0  -0.148781  0  3.720989  0  0  -0.162601  0  3.734625  0  0  -0.330844  -0.139961  0  3.712001  0
N  N92  1  0.40459202  0.57547592  0.62414853  1  0  -0.224096  0  3.4485  0  0  -0.138426  0  3.735329  0  0  -0.153095  0  3.749527  0  0  -0.333579  -0.128953  0  3.725846  0
N  N93  1  0.90460096  0.92452712  0.37584889  1  0  -0.223958  0  3.448295  0  0  -0.138366  0  3.735183  0  0  -0.153025  0  3.749375  0  0  -0.333635  -0.128908  0  3.725706  0
N  N94  1  0.59539692  0.42452510  0.12414959  1  0  -0.224015  0  3.448381  0  0  -0.138405  0  3.735278  0  0  -0.153073  0  3.749469  0  0  -0.333618  -0.128936  0  3.725786  0
N  N95  1  0.09540210  0.07547352  0.87585074  1  0  -0.224109  0  3.448596  0  0  -0.138484  0  3.735466  0  0  -0.153143  0  3.749656  0  0  -0.333651  -0.129017  0  3.725974  0
N  N96  1  0.59539725  0.42452978  0.37584805  1  0  -0.224055  0  3.448452  0  0  -0.138459  0  3.73536  0  0  -0.153118  0  3.749555  0  0  -0.333701  -0.128984  0  3.725885  0
N  N97  1  0.09540754  0.07547663  0.62414871  1  0  -0.223937  0  3.44825  0  0  -0.13833  0  3.73512  0  0  -0.152992  0  3.749313  0  0  -0.333537  -0.12886  0  3.725628  0
N  N98  1  0.40459620  0.57546956  0.87585311  1  0  -0.22399  0  3.44844  0  0  -0.138405  0  3.735366  0  0  -0.15307  0  3.749564  0  0  -0.333613  -0.128932  0  3.72587  0
N  N99  1  0.90459871  0.92452829  0.12414992  1  0  -0.224137  0  3.448415  0  0  -0.138494  0  3.735265  0  0  -0.153146  0  3.749457  0  0  -0.333656  -0.12903  0  3.725788  0
N  N100  1  0.92076622  0.44188725  0.71504181  1  0  -0.234511  0  3.468599  0  0  -0.150009  0  3.757911  0  0  -0.16307  0  3.768648  0  0  -0.33999  -0.141667  0  3.750777  0
N  N101  1  0.42075816  0.05810853  0.28496027  1  0  -0.234569  0  3.468752  0  0  -0.150062  0  3.758041  0  0  -0.163118  0  3.768766  0  0  -0.339994  -0.141721  0  3.750899  0
N  N102  1  0.07923311  0.55810719  0.21503876  1  0  -0.234452  0  3.468307  0  0  -0.149945  0  3.757594  0  0  -0.163007  0  3.768324  0  0  -0.339927  -0.141605  0  3.750464  0
N  N103  1  0.57925182  0.94189674  0.78495691  1  0  -0.234578  0  3.468482  0  0  -0.150093  0  3.757812  0  0  -0.16315  0  3.768541  0  0  -0.339992  -0.141755  0  3.750672  0
N  N104  1  0.07924421  0.55810741  0.28495783  1  0  -0.234517  0  3.468379  0  0  -0.149997  0  3.757675  0  0  -0.163052  0  3.7684  0  0  -0.339971  -0.141659  0  3.750551  0
N  N105  1  0.57924842  0.94189718  0.71503988  1  0  -0.234377  0  3.468297  0  0  -0.149846  0  3.757564  0  0  -0.162904  0  3.768292  0  0  -0.339872  -0.141507  0  3.750421  0
N  N106  1  0.92076770  0.44188877  0.78495986  1  0  -0.234412  0  3.468522  0  0  -0.149915  0  3.757835  0  0  -0.162977  0  3.768571  0  0  -0.339939  -0.141574  0  3.750691  0
N  N107  1  0.42075860  0.05811026  0.21504273  1  0  -0.234518  0  3.468572  0  0  -0.149993  0  3.75785  0  0  -0.163048  0  3.768579  0  0  -0.340007  -0.141654  0  3.750713  0
