# generated using pymatgen
data_Na2PH19C8(S2O)2
_symmetry_space_group_name_H-M   'P 1'
_cell_length_a   10.78465748
_cell_length_b   11.69328575
_cell_length_c   13.55098496
_cell_angle_alpha   89.65897284
_cell_angle_beta   82.80563008
_cell_angle_gamma   83.55141104
_symmetry_Int_Tables_number   1
_chemical_formula_structural   Na2PH19C8(S2O)2
_chemical_formula_sum   'Na8 P4 H76 C32 S16 O8'
_cell_volume   1684.65064193
_cell_formula_units_Z   4
loop_
 _symmetry_equiv_pos_site_id
 _symmetry_equiv_pos_as_xyz
  1  'x, y, z'
loop_
 _atom_site_type_symbol
 _atom_site_label
 _atom_site_symmetry_multiplicity
 _atom_site_fract_x
 _atom_site_fract_y
 _atom_site_fract_z
 _atom_site_occupancy
 _atom_site_hle17_bader_spin_density
 _atom_site_hle17_ddec_charge
 _atom_site_hle17_ddec_spin_density
 _atom_site_hle17_ddec_sum_bond_order
 _atom_site_hle17_magmom
 _atom_site_hse06_10hf_bader_spin_density
 _atom_site_hse06_10hf_ddec_charge
 _atom_site_hse06_10hf_ddec_spin_density
 _atom_site_hse06_10hf_ddec_sum_bond_order
 _atom_site_hse06_10hf_magmom
 _atom_site_hse06_bader_spin_density
 _atom_site_hse06_ddec_charge
 _atom_site_hse06_ddec_spin_density
 _atom_site_hse06_ddec_sum_bond_order
 _atom_site_hse06_magmom
 _atom_site_pbe_bader_spin_density
 _atom_site_pbe_cm5_charge
 _atom_site_pbe_ddec_charge
 _atom_site_pbe_ddec_spin_density
 _atom_site_pbe_ddec_sum_bond_order
 _atom_site_pbe_magmom
Na  Na0  1  0.63700337  0.90338826  0.52121140  1  0  0.819297  0  0.516541  0  0  0.75282  0  0.696778  0  0  0.762251  0  0.680591  0  0  0.55104  0.746252  0  0.707953  0
Na  Na1  1  0.36299752  0.09661155  0.47878796  1  0  0.819306  0  0.516545  0  0  0.752817  0  0.696804  0  0  0.762247  0  0.680618  0  0  0.551039  0.746249  0  0.707985  0
Na  Na2  1  0.51264679  0.77247503  0.21610275  1  0  0.829386  0  0.438065  0  0  0.762472  0  0.604484  0  0  0.772862  0  0.588323  0  0  0.485932  0.755164  0  0.615666  0
Na  Na3  1  0.48735316  0.22752477  0.78389743  1  0  0.829383  0  0.438075  0  0  0.762468  0  0.604484  0  0  0.772863  0  0.588334  0  0  0.48593  0.755162  0  0.615681  0
Na  Na4  1  0.49259264  0.27573662  0.28213699  1  0  0.828399  0  0.440574  0  0  0.761769  0  0.60649  0  0  0.772082  0  0.590447  0  0  0.486806  0.754453  0  0.617738  0
Na  Na5  1  0.50740732  0.72426318  0.71786172  1  0  0.828405  0  0.440557  0  0  0.761773  0  0.606487  0  0  0.772088  0  0.590439  0  0  0.486815  0.754455  0  0.61772  0
Na  Na6  1  0.64100803  0.56563615  0.02280527  1  0  0.819744  0  0.521894  0  0  0.75339  0  0.704056  0  0  0.762613  0  0.688044  0  0  0.55411  0.74698  0  0.715131  0
Na  Na7  1  0.35899182  0.43436451  0.97719344  1  0  0.819746  0  0.521893  0  0  0.753379  0  0.704071  0  0  0.762604  0  0.688062  0  0  0.554108  0.746976  0  0.71516  0
P  P8  1  0.60836811  0.01221166  0.30212374  1  0  0.601829  0  4.922203  0  0  0.554005  0  5.398166  0  0  0.583831  0  5.39425  0  0  0.01495  0.533295  0  5.4002  0
P  P9  1  0.39163091  0.98778814  0.69787580  1  0  0.601846  0  4.922214  0  0  0.554027  0  5.398162  0  0  0.583851  0  5.39425  0  0  0.014947  0.533303  0  5.400221  0
P  P10  1  0.39413440  0.53528463  0.19569390  1  0  0.604402  0  4.918954  0  0  0.555838  0  5.395842  0  0  0.585606  0  5.391784  0  0  0.014432  0.535209  0  5.397966  0
P  P11  1  0.60586545  0.46471604  0.80430555  1  0  0.604412  0  4.918941  0  0  0.555888  0  5.395697  0  0  0.58561  0  5.391787  0  0  0.014452  0.535246  0  5.397843  0
H  H12  1  0.02035172  0.04918030  0.18179584  1  0  0.096217  0  0.948018  0  0  0.121344  0  1.004935  0  0  0.122687  0  1.004938  0  0  0.086569  0.120387  0  1.004886  0
H  H13  1  0.97964917  0.95081951  0.81820425  1  0  0.096196  0  0.948072  0  0  0.121349  0  1.004951  0  0  0.122692  0  1.004955  0  0  0.086572  0.120393  0  1.004901  0
H  H14  1  0.91963139  0.95144696  0.14479605  1  0  0.097906  0  0.972134  0  0  0.119457  0  1.035617  0  0  0.120764  0  1.036056  0  0  0.082737  0.118441  0  1.035429  0
H  H15  1  0.08036950  0.04855285  0.85520478  1  0  0.097909  0  0.972093  0  0  0.119458  0  1.035584  0  0  0.120765  0  1.036023  0  0  0.082736  0.118442  0  1.035401  0
H  H16  1  0.89842449  0.00245720  0.26916495  1  0  0.110842  0  0.966103  0  0  0.129667  0  1.030662  0  0  0.131164  0  1.031118  0  0  0.083915  0.128448  0  1.030587  0
H  H17  1  0.10157640  0.99754260  0.73083515  1  0  0.110854  0  0.966087  0  0  0.129674  0  1.030661  0  0  0.131171  0  1.031116  0  0  0.08392  0.128457  0  1.030584  0
H  H18  1  0.93688119  0.25767640  0.22273661  1  0  0.098843  0  0.942897  0  0  0.124185  0  0.99815  0  0  0.125382  0  0.998491  0  0  0.085077  0.123475  0  0.997609  0
H  H19  1  0.06311794  0.74232254  0.77726366  1  0  0.098842  0  0.942857  0  0  0.124175  0  0.998121  0  0  0.125369  0  0.998464  0  0  0.085076  0.123461  0  0.997578  0
H  H20  1  0.81241525  0.21249146  0.30859719  1  0  0.109918  0  0.985309  0  0  0.128481  0  1.050059  0  0  0.130268  0  1.050088  0  0  0.077736  0.127127  0  1.050172  0
H  H21  1  0.18758481  0.78750749  0.69140373  1  0  0.109924  0  0.985334  0  0  0.12848  0  1.05009  0  0  0.130266  0  1.050121  0  0  0.077753  0.127121  0  1.050208  0
H  H22  1  0.77704838  0.30767512  0.21058693  1  0  0.100446  0  0.989352  0  0  0.118196  0  1.058957  0  0  0.119848  0  1.058973  0  0  0.081849  0.116931  0  1.059143  0
H  H23  1  0.22295064  0.69232468  0.78941482  1  0  0.100433  0  0.989338  0  0  0.118191  0  1.058927  0  0  0.119841  0  1.058946  0  0  0.08184  0.116924  0  1.05911  0
H  H24  1  0.96608194  0.18605806  0.04315637  1  0  0.095662  0  0.968229  0  0  0.11914  0  1.031128  0  0  0.119841  0  1.032004  0  0  0.087336  0.118571  0  1.030605  0
H  H25  1  0.03391895  0.81394174  0.95684446  1  0  0.095654  0  0.968249  0  0  0.119132  0  1.031148  0  0  0.119832  0  1.032025  0  0  0.087337  0.118564  0  1.030619  0
H  H26  1  0.80584524  0.23189216  0.02940981  1  0  0.114425  0  0.962522  0  0  0.133558  0  1.027308  0  0  0.135574  0  1.026495  0  0  0.08263  0.132052  0  1.028035  0
H  H27  1  0.19415460  0.76810851  0.97059112  1  0  0.114431  0  0.962522  0  0  0.133565  0  1.027311  0  0  0.135582  0  1.026498  0  0  0.082628  0.132059  0  1.028034  0
H  H28  1  0.86860035  0.08613033  0.00427909  1  0  0.107152  0  0.941137  0  0  0.130216  0  0.997311  0  0  0.131736  0  0.997191  0  0  0.087007  0.129044  0  0.997524  0
H  H29  1  0.13140054  0.91386948  0.99572100  1  0  0.107128  0  0.941154  0  0  0.130189  0  0.997333  0  0  0.131709  0  0.997214  0  0  0.086999  0.129015  0  0.997553  0
H  H30  1  0.97917122  0.66093799  0.30692579  1  0  0.101493  0  0.950683  0  0  0.123989  0  1.012624  0  0  0.125525  0  1.012508  0  0  0.085424  0.122827  0  1.01264  0
H  H31  1  0.02082862  0.33906267  0.69307440  1  0  0.101563  0  0.950649  0  0  0.124034  0  1.012606  0  0  0.125572  0  1.012489  0  0  0.085435  0.122875  0  1.012618  0
H  H32  1  0.07545912  0.54221644  0.35082685  1  0  0.096692  0  0.965173  0  0  0.119284  0  1.025225  0  0  0.120866  0  1.025024  0  0  0.081317  0.118058  0  1.025442  0
H  H33  1  0.92454084  0.45778337  0.64917334  1  0  0.096692  0  0.965178  0  0  0.119288  0  1.025219  0  0  0.12087  0  1.025017  0  0  0.081305  0.118062  0  1.025433  0
H  H34  1  0.10255437  0.58389412  0.22481000  1  0  0.106428  0  0.977185  0  0  0.124204  0  1.044885  0  0  0.125527  0  1.045773  0  0  0.081015  0.123053  0  1.044629  0
H  H35  1  0.89744559  0.41610568  0.77518945  1  0  0.106426  0  0.977217  0  0  0.124183  0  1.044936  0  0  0.125506  0  1.045823  0  0  0.081007  0.123033  0  1.044675  0
H  H36  1  0.06475101  0.84741029  0.26347805  1  0  0.106625  0  0.959453  0  0  0.132751  0  1.013872  0  0  0.133439  0  1.015267  0  0  0.08771  0.132274  0  1.012762  0
H  H37  1  0.93524987  0.15258952  0.73652131  1  0  0.106617  0  0.959462  0  0  0.132754  0  1.013866  0  0  0.133438  0  1.015263  0  0  0.087722  0.13228  0  1.01275  0
H  H38  1  0.19003668  0.77497988  0.18017638  1  0  0.111969  0  0.983339  0  0  0.13064  0  1.046808  0  0  0.132234  0  1.047159  0  0  0.077129  0.129406  0  1.046675  0
H  H39  1  0.80996421  0.22501992  0.81982298  1  0  0.111977  0  0.983337  0  0  0.130648  0  1.046809  0  0  0.132246  0  1.047154  0  0  0.077127  0.129417  0  1.046674  0
H  H40  1  0.22430312  0.86523834  0.27607309  1  0  0.098949  0  0.986882  0  0  0.117288  0  1.056009  0  0  0.118944  0  1.055863  0  0  0.079668  0.116063  0  1.056081  0
H  H41  1  0.77569766  0.13476233  0.72392627  1  0  0.098954  0  0.986897  0  0  0.117287  0  1.056033  0  0  0.118945  0  1.055886  0  0  0.07967  0.116065  0  1.056101  0
H  H42  1  0.03235603  0.78893774  0.44427087  1  0  0.11433  0  0.965762  0  0  0.13606  0  1.025034  0  0  0.138015  0  1.024912  0  0  0.09295  0.134595  0  1.025247  0
H  H43  1  0.96764382  0.21106293  0.55572858  1  0  0.11424  0  0.965852  0  0  0.136001  0  1.0251  0  0  0.137955  0  1.024979  0  0  0.092914  0.134537  0  1.025309  0
H  H44  1  0.19325877  0.80000814  0.45861475  1  0  0.110868  0  0.961023  0  0  0.130018  0  1.02656  0  0  0.131864  0  1.026039  0  0  0.082023  0.128677  0  1.02696  0
H  H45  1  0.80674015  0.19999253  0.54138554  1  0  0.110844  0  0.961026  0  0  0.129996  0  1.026568  0  0  0.131842  0  1.026046  0  0  0.082018  0.128656  0  1.026963  0
H  H46  1  0.12795533  0.66907793  0.48747190  1  0  0.099442  0  0.94389  0  0  0.121477  0  1.002371  0  0  0.123193  0  1.001794  0  0  0.083527  0.120168  0  1.002911  0
H  H47  1  0.87204347  0.33092359  0.51252766  1  0  0.099423  0  0.943886  0  0  0.121467  0  1.002367  0  0  0.123179  0  1.001794  0  0  0.083521  0.120156  0  1.002907  0
H  H48  1  0.59390818  0.53830022  0.51955820  1  0  0.0782  0  0.967616  0  0  0.092451  0  1.039496  0  0  0.092974  0  1.039809  0  0  0.089666  0.091941  0  1.039406  0
H  H49  1  0.40609260  0.46170044  0.48044189  1  0  0.078215  0  0.967607  0  0  0.092462  0  1.039493  0  0  0.092984  0  1.039808  0  0  0.089673  0.091961  0  1.039405  0
H  H50  1  0.62844833  0.63104547  0.41535360  1  0  0.079587  0  0.963228  0  0  0.091272  0  1.039089  0  0  0.092501  0  1.038123  0  0  0.086965  0.090345  0  1.039718  0
H  H51  1  0.37155350  0.36895433  0.58464640  1  0  0.079564  0  0.963249  0  0  0.091247  0  1.039109  0  0  0.092475  0  1.038143  0  0  0.086954  0.090325  0  1.039742  0
H  H52  1  0.48811934  0.66465984  0.49993321  1  0  0.091573  0  0.962321  0  0  0.106746  0  1.03127  0  0  0.107551  0  1.030673  0  0  0.096284  0.10605  0  1.031838  0
H  H53  1  0.51188155  0.33533997  0.50006614  1  0  0.091555  0  0.962336  0  0  0.106726  0  1.031286  0  0  0.10753  0  1.03069  0  0  0.096279  0.106035  0  1.031856  0
H  H54  1  0.82233077  0.64946961  0.47245446  1  0  0.061208  0  0.912463  0  0  0.078202  0  0.971171  0  0  0.078621  0  0.970691  0  0  0.103493  0.077802  0  0.97163  0
H  H55  1  0.17766836  0.35052933  0.52754581  1  0  0.061208  0  0.912477  0  0  0.078191  0  0.971186  0  0  0.078613  0  0.970708  0  0  0.103489  0.077786  0  0.971643  0
H  H56  1  0.78963965  0.56956539  0.58484543  1  0  0.054922  0  0.966731  0  0  0.063971  0  1.040232  0  0  0.064174  0  1.040396  0  0  0.095703  0.063725  0  1.040264  0
H  H57  1  0.21036135  0.43043356  0.41515466  1  0  0.054921  0  0.966782  0  0  0.063967  0  1.040263  0  0  0.064174  0  1.040427  0  0  0.095694  0.063713  0  1.040303  0
H  H58  1  0.79725242  0.75013855  0.68395509  1  0  0.055939  0  0.959032  0  0  0.066464  0  1.030473  0  0  0.067597  0  1.029089  0  0  0.093445  0.065559  0  1.031585  0
H  H59  1  0.20274753  0.24986126  0.31604510  1  0  0.055939  0  0.959029  0  0  0.06646  0  1.030467  0  0  0.067592  0  1.029085  0  0  0.093447  0.065556  0  1.031586  0
H  H60  1  0.94285516  0.69985747  0.61125414  1  0  0.053575  0  0.922811  0  0  0.070709  0  0.982135  0  0  0.070465  0  0.982293  0  0  0.101574  0.070807  0  0.982091  0
H  H61  1  0.05714479  0.30014234  0.38874678  1  0  0.053585  0  0.922764  0  0  0.07071  0  0.982096  0  0  0.070474  0  0.982244  0  0  0.101565  0.070806  0  0.982054  0
H  H62  1  0.00432482  0.89597738  0.60671694  1  0  0.077874  0  0.94507  0  0  0.095556  0  1.01225  0  0  0.095929  0  1.012655  0  0  0.095631  0.095135  0  1.012147  0
H  H63  1  0.99567502  0.10402329  0.39328399  1  0  0.077897  0  0.945018  0  0  0.095541  0  1.012247  0  0  0.095914  0  1.012651  0  0  0.095624  0.09512  0  1.012143  0
H  H64  1  0.85841305  0.94096171  0.68292064  1  0  0.076413  0  0.953096  0  0  0.094307  0  1.019307  0  0  0.095043  0  1.018817  0  0  0.091578  0.093553  0  1.019884  0
H  H65  1  0.14158607  0.05903723  0.31707889  1  0  0.076368  0  0.953132  0  0  0.094287  0  1.019314  0  0  0.095009  0  1.01884  0  0  0.091566  0.093528  0  1.019905  0
H  H66  1  0.89442941  0.00692455  0.56479220  1  0  0.092643  0  0.946067  0  0  0.111938  0  1.009098  0  0  0.112046  0  1.009801  0  0  0.107034  0.111729  0  1.008753  0
H  H67  1  0.10557055  0.99307525  0.43520872  1  0  0.092636  0  0.946116  0  0  0.111926  0  1.009154  0  0  0.112036  0  1.009856  0  0  0.10704  0.111715  0  1.00881  0
H  H68  1  0.60061118  0.94143606  0.01361224  1  0  0.076581  0  0.967637  0  0  0.090564  0  1.039711  0  0  0.091254  0  1.039799  0  0  0.088283  0.089986  0  1.039736  0
H  H69  1  0.39938877  0.05856375  0.98638795  1  0  0.076594  0  0.967631  0  0  0.090573  0  1.039709  0  0  0.091263  0  1.039797  0  0  0.08828  0.089999  0  1.039729  0
H  H70  1  0.62535751  0.83837102  0.91264067  1  0  0.077065  0  0.969423  0  0  0.088834  0  1.045722  0  0  0.090006  0  1.044884  0  0  0.085498  0.087934  0  1.04629  0
H  H71  1  0.37464233  0.16162965  0.08735878  1  0  0.077103  0  0.969409  0  0  0.088875  0  1.045697  0  0  0.090046  0  1.044861  0  0  0.085514  0.087976  0  1.046265  0
H  H72  1  0.48973893  0.83905324  0.00313699  1  0  0.091114  0  0.965017  0  0  0.10628  0  1.033585  0  0  0.107024  0  1.03314  0  0  0.094921  0.105594  0  1.034153  0
H  H73  1  0.51026103  0.16094656  0.99686320  1  0  0.09112  0  0.965022  0  0  0.10627  0  1.033601  0  0  0.107027  0  1.033144  0  0  0.094916  0.105587  0  1.034168  0
H  H74  1  0.82274802  0.77476710  0.96204304  1  0  0.056614  0  0.915492  0  0  0.071547  0  0.977546  0  0  0.072415  0  0.976128  0  0  0.100628  0.070801  0  0.978695  0
H  H75  1  0.17725193  0.22523271  0.03795640  1  0  0.056617  0  0.915492  0  0  0.071547  0  0.977554  0  0  0.072416  0  0.976134  0  0  0.100634  0.070803  0  0.978707  0
H  H76  1  0.79990049  0.86933842  0.06852467  1  0  0.054227  0  0.959193  0  0  0.063783  0  1.03262  0  0  0.063905  0  1.032812  0  0  0.097222  0.063602  0  1.032615  0
H  H77  1  0.20009946  0.13066138  0.93147478  1  0  0.054227  0  0.959218  0  0  0.063795  0  1.032622  0  0  0.063917  0  1.032814  0  0  0.097217  0.063613  0  1.032619  0
H  H78  1  0.81145242  0.69642179  0.17962181  1  0  0.056929  0  0.958929  0  0  0.068849  0  1.030265  0  0  0.069814  0  1.029269  0  0  0.094264  0.068018  0  1.031117  0
H  H79  1  0.18854660  0.30357801  0.82037699  1  0  0.056941  0  0.958883  0  0  0.068855  0  1.030249  0  0  0.069829  0  1.029243  0  0  0.094267  0.068025  0  1.031098  0
H  H80  1  0.95300264  0.70808145  0.09803686  1  0  0.059522  0  0.915627  0  0  0.078744  0  0.97307  0  0  0.078261  0  0.974019  0  0  0.104526  0.07899  0  0.972577  0
H  H81  1  0.04699638  0.29191836  0.90196342  1  0  0.059523  0  0.91562  0  0  0.078753  0  0.973069  0  0  0.078269  0  0.97402  0  0  0.104533  0.079002  0  0.972573  0
H  H82  1  0.01030371  0.49784786  0.10539495  1  0  0.082716  0  0.954852  0  0  0.095995  0  1.025784  0  0  0.097582  0  1.024508  0  0  0.095403  0.094613  0  1.027015  0
H  H83  1  0.98969614  0.50215281  0.89460524  1  0  0.082735  0  0.954793  0  0  0.095989  0  1.025757  0  0  0.097576  0  1.024479  0  0  0.0954  0.094605  0  1.026983  0
H  H84  1  0.86890817  0.49090870  0.19056885  1  0  0.078461  0  0.934998  0  0  0.098745  0  0.99469  0  0  0.09943  0  0.994277  0  0  0.092891  0.097945  0  0.995336  0
H  H85  1  0.13109272  0.50909110  0.80943051  1  0  0.07846  0  0.934962  0  0  0.098728  0  0.994673  0  0  0.099414  0  0.99426  0  0  0.092877  0.097926  0  0.995318  0
H  H86  1  0.89398130  0.41001340  0.07654477  1  0  0.090145  0  0.941612  0  0  0.110112  0  1.003223  0  0  0.110104  0  1.003997  0  0  0.105591  0.109969  0  1.002807  0
H  H87  1  0.10601772  0.58998640  0.92345477  1  0  0.090144  0  0.941621  0  0  0.110113  0  1.003222  0  0  0.110105  0  1.003995  0  0  0.105598  0.109965  0  1.002805  0
C  C88  1  0.83589741  0.13011083  0.16274595  1  0  0.266891  0  3.53415  0  0  0.304631  0  3.770918  0  0  0.308365  0  3.789622  0  0  -0.001238  0.30196  0  3.758088  0
C  C89  1  0.16410254  0.86988898  0.83725423  1  0  0.266913  0  3.534141  0  0  0.304652  0  3.770906  0  0  0.308386  0  3.78961  0  0  -0.001222  0.30198  0  3.758077  0
C  C90  1  0.92302704  0.02700439  0.19151506  1  0  -0.352339  0  3.689218  0  0  -0.433709  0  3.923365  0  0  -0.437878  0  3.935136  0  0  -0.250241  -0.430511  0  3.915292  0
C  C91  1  0.07697302  0.97299456  0.80848512  1  0  -0.35233  0  3.689245  0  0  -0.433724  0  3.923402  0  0  -0.437892  0  3.935171  0  0  -0.250244  -0.430533  0  3.915332  0
C  C92  1  0.84031464  0.23326834  0.23041708  1  0  -0.368337  0  3.687597  0  0  -0.446425  0  3.916413  0  0  -0.450528  0  3.927098  0  0  -0.253409  -0.44332  0  3.90897  0
C  C93  1  0.15968542  0.76673060  0.76958384  1  0  -0.368356  0  3.687576  0  0  -0.446437  0  3.91641  0  0  -0.450535  0  3.927095  0  0  -0.253435  -0.443323  0  3.908963  0
C  C94  1  0.87026987  0.16036018  0.05326612  1  0  -0.348266  0  3.657135  0  0  -0.425143  0  3.888909  0  0  -0.428369  0  3.898361  0  0  -0.246329  -0.422686  0  3.882456  0
C  C95  1  0.12972904  0.83964049  0.94673416  1  0  -0.348251  0  3.657163  0  0  -0.425128  0  3.88894  0  0  -0.428354  0  3.898393  0  0  -0.246333  -0.42267  0  3.88248  0
C  C96  1  0.16345502  0.70146021  0.32833747  1  0  0.27305  0  3.532926  0  0  0.312017  0  3.766641  0  0  0.315928  0  3.78524  0  0  6.9e-05  0.309162  0  3.753949  0
C  C97  1  0.83654494  0.29853959  0.67166123  1  0  0.273076  0  3.532896  0  0  0.312036  0  3.766636  0  0  0.315948  0  3.785229  0  0  9.4e-05  0.309166  0  3.753966  0
C  C98  1  0.07550720  0.61657741  0.30101007  1  0  -0.351925  0  3.678613  0  0  -0.432138  0  3.910057  0  0  -0.436357  0  3.921528  0  0  -0.250287  -0.428744  0  3.901962  0
C  C99  1  0.92449286  0.38342154  0.69899011  1  0  -0.352026  0  3.678662  0  0  -0.432196  0  3.910093  0  0  -0.436415  0  3.921563  0  0  -0.250298  -0.42881  0  3.902013  0
C  C100  1  0.16111220  0.80344254  0.25746159  1  0  -0.367485  0  3.673214  0  0  -0.444423  0  3.897477  0  0  -0.448544  0  3.908407  0  0  -0.253607  -0.441217  0  3.889752  0
C  C101  1  0.83888775  0.19655726  0.74253859  1  0  -0.367495  0  3.673222  0  0  -0.444444  0  3.897499  0  0  -0.448561  0  3.908419  0  0  -0.253622  -0.44124  0  3.889778  0
C  C102  1  0.12761627  0.74238595  0.43625855  1  0  -0.355628  0  3.657984  0  0  -0.43197  0  3.88883  0  0  -0.436131  0  3.898648  0  0  -0.249001  -0.428816  0  3.882004  0
C  C103  1  0.87238171  0.25761471  0.56374183  1  0  -0.355503  0  3.658088  0  0  -0.431871  0  3.888915  0  0  -0.436028  0  3.898741  0  0  -0.248954  -0.428713  0  3.882094  0
C  C104  1  0.58682552  0.62787758  0.49367843  1  0  -0.097895  0  3.661828  0  0  -0.190886  0  3.928668  0  0  -0.185674  0  3.932685  0  0  -0.156333  -0.194156  0  3.925826  0
C  C105  1  0.41317526  0.37212309  0.50632240  1  0  -0.097856  0  3.661848  0  0  -0.190854  0  3.928727  0  0  -0.185639  0  3.932741  0  0  -0.156314  -0.194112  0  3.92583  0
C  C106  1  0.78009328  0.65562495  0.55114030  1  0  0.055815  0  3.654315  0  0  -0.001472  0  3.921607  0  0  0.004657  0  3.927133  0  0  -0.078447  -0.005639  0  3.917945  0
C  C107  1  0.21990761  0.34437486  0.44885979  1  0  0.055812  0  3.654367  0  0  -0.001436  0  3.921605  0  0  0.004671  0  3.927162  0  0  -0.078419  -0.005589  0  3.91793  0
C  C108  1  0.84488830  0.73727087  0.60720916  1  0  0.046713  0  3.678192  0  0  -0.010702  0  3.947312  0  0  -0.0045  0  3.953158  0  0  -0.078339  -0.014814  0  3.943147  0
C  C109  1  0.15511259  0.26272894  0.39279093  1  0  0.04669  0  3.678145  0  0  -0.01071  0  3.947243  0  0  -0.004511  0  3.953092  0  0  -0.078345  -0.014828  0  3.943084  0
C  C110  1  0.90383090  0.92614480  0.60588393  1  0  -0.081009  0  3.661967  0  0  -0.173852  0  3.927056  0  0  -0.168386  0  3.932249  0  0  -0.14511  -0.177247  0  3.92338  0
C  C111  1  0.09616822  0.07385414  0.39411635  1  0  -0.080957  0  3.661889  0  0  -0.173788  0  3.926982  0  0  -0.168313  0  3.932185  0  0  -0.145072  -0.177178  0  3.923315  0
C  C112  1  0.58920865  0.85312369  0.99173365  1  0  -0.096359  0  3.663647  0  0  -0.188299  0  3.928783  0  0  -0.183193  0  3.933021  0  0  -0.155976  -0.191526  0  3.925836  0
C  C113  1  0.41079120  0.14687697  0.00826580  1  0  -0.096412  0  3.663661  0  0  -0.188331  0  3.928795  0  0  -0.183237  0  3.933024  0  0  -0.155964  -0.191557  0  3.925851  0
C  C114  1  0.78585208  0.78336833  0.04187805  1  0  0.053375  0  3.668911  0  0  -0.00314  0  3.940333  0  0  0.003204  0  3.945552  0  0  -0.077891  -0.007434  0  3.936761  0
C  C115  1  0.21414694  0.21663147  0.95812223  1  0  0.053309  0  3.668831  0  0  -0.003199  0  3.940287  0  0  0.003144  0  3.945508  0  0  -0.077911  -0.007486  0  3.93671  0
C  C116  1  0.85349720  0.69214361  0.10093905  1  0  0.048194  0  3.672327  0  0  -0.012624  0  3.945307  0  0  -0.006701  0  3.951478  0  0  -0.078012  -0.016497  0  3.940927  0
C  C117  1  0.14649984  0.30785705  0.89906215  1  0  0.048271  0  3.672178  0  0  -0.012582  0  3.945214  0  0  -0.006668  0  3.951394  0  0  -0.077995  -0.016452  0  3.940831  0
C  C118  1  0.90867533  0.49081855  0.11148241  1  0  -0.080395  0  3.657904  0  0  -0.170703  0  3.921375  0  0  -0.165324  0  3.925845  0  0  -0.14645  -0.173831  0  3.918076  0
C  C119  1  0.09132462  0.50918125  0.88851704  1  0  -0.08037  0  3.657766  0  0  -0.17064  0  3.92123  0  0  -0.165259  0  3.9257  0  0  -0.146428  -0.173765  0  3.917928  0
S  S120  1  0.69913224  0.85380605  0.31485552  1  0  -0.650353  0  1.888936  0  0  -0.60628  0  2.217031  0  0  -0.621093  0  2.204513  0  0  -0.294058  -0.595436  0  2.225472  0
S  S121  1  0.30086689  0.14619290  0.68514475  1  0  -0.650359  0  1.888975  0  0  -0.606287  0  2.217076  0  0  -0.621098  0  2.204558  0  0  -0.294055  -0.595446  0  2.225534  0
S  S122  1  0.62556093  0.11613890  0.41822904  1  0  -0.712775  0  1.907809  0  0  -0.663879  0  2.230761  0  0  -0.677797  0  2.217541  0  0  -0.302709  -0.653992  0  2.239736  0
S  S123  1  0.37443819  0.88386005  0.58177124  1  0  -0.712795  0  1.907806  0  0  -0.663895  0  2.230747  0  0  -0.677811  0  2.217526  0  0  -0.302708  -0.653997  0  2.239719  0
S  S124  1  0.42719329  0.01221718  0.27485048  1  0  -0.714513  0  1.855936  0  0  -0.662964  0  2.171977  0  0  -0.678523  0  2.159395  0  0  -0.292168  -0.652589  0  2.180319  0
S  S125  1  0.57280563  0.98778348  0.72514907  1  0  -0.714518  0  1.855972  0  0  -0.662968  0  2.172007  0  0  -0.678535  0  2.159442  0  0  -0.292164  -0.65259  0  2.180351  0
S  S126  1  0.67072030  0.09494893  0.16587041  1  0  -0.257118  0  2.235422  0  0  -0.222373  0  2.574196  0  0  -0.230659  0  2.56987  0  0  -0.041605  -0.216522  0  2.577248  0
S  S127  1  0.32927966  0.90505087  0.83412977  1  0  -0.257117  0  2.235413  0  0  -0.222373  0  2.57419  0  0  -0.230658  0  2.569861  0  0  -0.041604  -0.216516  0  2.577238  0
S  S128  1  0.57411942  0.49878422  0.22669795  1  0  -0.715822  0  1.849386  0  0  -0.663439  0  2.163493  0  0  -0.678786  0  2.150809  0  0  -0.297653  -0.653105  0  2.172299  0
S  S129  1  0.42588064  0.50121473  0.77330149  1  0  -0.715826  0  1.849418  0  0  -0.663436  0  2.163488  0  0  -0.678776  0  2.150826  0  0  -0.297645  -0.6531  0  2.1723  0
S  S130  1  0.38015087  0.64177561  0.07766166  1  0  -0.713415  0  1.927173  0  0  -0.665265  0  2.253038  0  0  -0.679156  0  2.239817  0  0  -0.301619  -0.655432  0  2.262285  0
S  S131  1  0.61984898  0.35822506  0.92233779  1  0  -0.713408  0  1.927159  0  0  -0.665265  0  2.252997  0  0  -0.679151  0  2.239802  0  0  -0.301609  -0.65543  0  2.262252  0
S  S132  1  0.30436396  0.39504722  0.18333677  1  0  -0.657209  0  1.897476  0  0  -0.611009  0  2.226522  0  0  -0.62601  0  2.213851  0  0  -0.296301  -0.599994  0  2.235204  0
S  S133  1  0.69563600  0.60495258  0.81666046  1  0  -0.657176  0  1.897418  0  0  -0.610978  0  2.226437  0  0  -0.625969  0  2.213783  0  0  -0.296308  -0.599949  0  2.235106  0
S  S134  1  0.32760894  0.63136713  0.32961334  1  0  -0.262305  0  2.250028  0  0  -0.228307  0  2.588877  0  0  -0.236546  0  2.584319  0  0  -0.042637  -0.222773  0  2.592019  0
S  S135  1  0.67239113  0.36863182  0.67038758  1  0  -0.262331  0  2.250001  0  0  -0.228338  0  2.588841  0  0  -0.236573  0  2.584298  0  0  -0.042662  -0.222799  0  2.591994  0
O  O136  1  0.64879944  0.69706897  0.55556410  1  0  -0.371559  0  2.363342  0  0  -0.289078  0  2.620232  0  0  -0.30481  0  2.622114  0  0  -0.323374  -0.278133  0  2.618666  0
O  O137  1  0.35120145  0.30293084  0.44443673  1  0  -0.371574  0  2.363412  0  0  -0.289089  0  2.620259  0  0  -0.304816  0  2.622145  0  0  -0.323379  -0.278147  0  2.618704  0
O  O138  1  0.84336197  0.84502835  0.55626332  1  0  -0.322334  0  2.337431  0  0  -0.247458  0  2.596588  0  0  -0.262692  0  2.597899  0  0  -0.299835  -0.236849  0  2.595236  0
O  O139  1  0.15663881  0.15497231  0.44373677  1  0  -0.322344  0  2.337373  0  0  -0.247481  0  2.596537  0  0  -0.262709  0  2.597841  0  0  -0.299855  -0.236871  0  2.595179  0
O  O140  1  0.65369456  0.77167868  0.05340278  1  0  -0.367462  0  2.361926  0  0  -0.28606  0  2.618791  0  0  -0.301819  0  2.620775  0  0  -0.318599  -0.274942  0  2.616961  0
O  O141  1  0.34630540  0.22832113  0.94659667  1  0  -0.367458  0  2.361934  0  0  -0.286053  0  2.618786  0  0  -0.301812  0  2.620772  0  0  -0.318606  -0.274937  0  2.616962  0
O  O142  1  0.84541572  0.58154412  0.05933386  1  0  -0.326109  0  2.336288  0  0  -0.250371  0  2.59813  0  0  -0.265488  0  2.599768  0  0  -0.302347  -0.239988  0  2.596721  0
O  O143  1  0.15458434  0.41845482  0.94066632  1  0  -0.326169  0  2.336292  0  0  -0.250422  0  2.598141  0  0  -0.265541  0  2.599784  0  0  -0.302361  -0.240046  0  2.59674  0
