# generated using pymatgen
data_NdH11C18N3O7
_symmetry_space_group_name_H-M   'P 1'
_cell_length_a   7.40554654
_cell_length_b   11.97183647
_cell_length_c   19.32410701
_cell_angle_alpha   81.95746793
_cell_angle_beta   90.00204196
_cell_angle_gamma   89.98794739
_symmetry_Int_Tables_number   1
_chemical_formula_structural   NdH11C18N3O7
_chemical_formula_sum   'Nd4 H44 C72 N12 O28'
_cell_volume   1696.38592104
_cell_formula_units_Z   4
loop_
 _symmetry_equiv_pos_site_id
 _symmetry_equiv_pos_as_xyz
  1  'x, y, z'
loop_
 _atom_site_type_symbol
 _atom_site_label
 _atom_site_symmetry_multiplicity
 _atom_site_fract_x
 _atom_site_fract_y
 _atom_site_fract_z
 _atom_site_occupancy
 _atom_site_pbe_bader_charge
 _atom_site_pbe_bader_spin_density
 _atom_site_pbe_cm5_charge
 _atom_site_pbe_ddec_charge
 _atom_site_pbe_ddec_spin_density
 _atom_site_pbe_ddec_sum_bond_order
 _atom_site_pbe_magmom
Nd  Nd0  1  0.25416970  0.05692624  0.02557889  1  2.238505  0  1.490823  2.114112  0  2.098577  0
Nd  Nd1  1  0.25427374  0.94306075  0.47440785  1  2.238799  0  1.490966  2.114046  0  2.098572  0
Nd  Nd2  1  0.74573164  0.94304524  0.97440540  1  2.23866  0  1.490831  2.11418  0  2.098388  0
Nd  Nd3  1  0.74578423  0.05694514  0.52558473  1  2.238737  0  1.490975  2.114006  0  2.098754  0
H  H4  1  0.59377140  0.37710197  0.09503275  1  0.080464  0  0.109459  0.109253  0  0.993486  0
H  H5  1  0.59391698  0.62292384  0.40505163  1  0.082207  0  0.109411  0.108975  0  0.992748  0
H  H6  1  0.40628253  0.62285493  0.90500387  1  0.081191  0  0.109425  0.109251  0  0.993264  0
H  H7  1  0.40619906  0.37709566  0.59495790  1  0.0807  0  0.10943  0.10912  0  0.992865  0
H  H8  1  0.70824150  0.57825828  0.07640435  1  0.081465  0  0.109151  0.118226  0  0.996149  0
H  H9  1  0.70821192  0.42170258  0.42370053  1  0.083718  0  0.109359  0.118484  0  0.995626  0
H  H10  1  0.29190426  0.42167235  0.92365251  1  0.081932  0  0.109283  0.118394  0  0.995778  0
H  H11  1  0.29187711  0.57833711  0.57631283  1  0.082883  0  0.109255  0.118372  0  0.995363  0
H  H12  1  0.85817107  0.64840583  0.96341363  1  0.122798  0  0.114287  0.086443  0  1.02429  0
H  H13  1  0.85825192  0.35153428  0.53667799  1  0.12299  0  0.11424  0.086311  0  1.024437  0
H  H14  1  0.14195308  0.35154704  0.03662671  1  0.123103  0  0.114241  0.086323  0  1.024647  0
H  H15  1  0.14183845  0.64848394  0.46332479  1  0.123255  0  0.114218  0.086062  0  1.02481  0
H  H16  1  0.91335431  0.09720282  0.79935564  1  0.105824  0  0.113781  0.115369  0  0.990141  0
H  H17  1  0.91368441  0.90280538  0.70067734  1  0.10624  0  0.113643  0.115069  0  0.990703  0
H  H18  1  0.08654027  0.90282923  0.20059899  1  0.105742  0  0.113731  0.115274  0  0.990641  0
H  H19  1  0.08644649  0.09717980  0.29934162  1  0.107943  0  0.113623  0.115149  0  0.990698  0
H  H20  1  0.74917203  0.20541099  0.69718186  1  0.124318  0  0.116117  0.135964  0  0.98779  0
H  H21  1  0.74947903  0.79465028  0.80282481  1  0.123853  0  0.116229  0.135914  0  0.98825  0
H  H22  1  0.25069554  0.79465365  0.30279566  1  0.123841  0  0.116058  0.135687  0  0.988056  0
H  H23  1  0.25062486  0.20534838  0.19717987  1  0.12391  0  0.116134  0.135947  0  0.988138  0
H  H24  1  0.64809514  0.40383348  0.70882126  1  0.136093  0  0.10746  0.071664  0  1.039921  0
H  H25  1  0.64834800  0.59630679  0.79120226  1  0.137844  0  0.107327  0.071516  0  1.040008  0
H  H26  1  0.35178863  0.59622246  0.29120381  1  0.136852  0  0.1075  0.071628  0  1.040119  0
H  H27  1  0.35172347  0.40373825  0.20880007  1  0.137481  0  0.107422  0.071508  0  1.040039  0
H  H28  1  0.41287093  0.25085277  0.86082587  1  0.153267  0  0.119776  0.118768  0  0.98899  0
H  H29  1  0.41331120  0.74916185  0.63923799  1  0.153144  0  0.119948  0.118965  0  0.988833  0
H  H30  1  0.58692778  0.74912943  0.13917752  1  0.151451  0  0.119871  0.119044  0  0.989037  0
H  H31  1  0.58672652  0.25079767  0.36077515  1  0.153333  0  0.119905  0.118991  0  0.989029  0
H  H32  1  0.25421563  0.37803877  0.76524009  1  0.096478  0  0.117272  0.125018  0  0.96918  0
H  H33  1  0.25478396  0.62201144  0.73483893  1  0.097541  0  0.117331  0.124961  0  0.969349  0
H  H34  1  0.74555337  0.62193769  0.23477641  1  0.095942  0  0.117185  0.124986  0  0.968961  0
H  H35  1  0.74532128  0.37798020  0.26519503  1  0.097692  0  0.117249  0.125026  0  0.969245  0
H  H36  1  0.12735324  0.29210763  0.66469961  1  0.127918  0  0.119755  0.089156  0  1.003015  0
H  H37  1  0.12770828  0.70800401  0.83529536  1  0.127225  0  0.119453  0.088366  0  1.00321  0
H  H38  1  0.87256024  0.70789845  0.33527369  1  0.128563  0  0.119629  0.089113  0  1.003157  0
H  H39  1  0.87238479  0.29201510  0.16471627  1  0.12686  0  0.119477  0.088546  0  1.003181  0
H  H40  1  0.96531400  0.12533796  0.13137891  1  0.636187  0  0.298328  0.36859  0  0.974583  0
H  H41  1  0.96535804  0.87461501  0.36860570  1  0.636724  0  0.298382  0.368518  0  0.974579  0
H  H42  1  0.03460759  0.87467581  0.86860259  1  0.636443  0  0.298511  0.368775  0  0.97432  0
H  H43  1  0.03464457  0.12538470  0.63137499  1  0.6369  0  0.298393  0.368534  0  0.974583  0
H  H44  1  0.93233600  0.17188069  0.05406962  1  0.618861  0  0.298556  0.377494  0  0.972292  0
H  H45  1  0.93246648  0.82809516  0.44592224  1  0.619275  0  0.29848  0.37733  0  0.972398  0
H  H46  1  0.06754373  0.82807752  0.94590501  1  0.618896  0  0.298534  0.377518  0  0.972149  0
H  H47  1  0.06751317  0.17192112  0.55405922  1  0.618711  0  0.298624  0.377543  0  0.97213  0
C  C48  1  0.78221100  0.38954435  0.93337855  1  0.513427  0  0.126107  0.15808  0  3.95233  0
C  C49  1  0.78256888  0.61046649  0.56667551  1  0.511482  0  0.125997  0.157948  0  3.954032  0
C  C50  1  0.21774166  0.61042090  0.06664439  1  0.512242  0  0.126202  0.158243  0  3.952765  0
C  C51  1  0.21753365  0.38957196  0.43332173  1  0.513334  0  0.126137  0.158084  0  3.953704  0
C  C52  1  0.69898164  0.34143625  0.99641845  1  -0.022928  0  -0.013088  -0.124522  0  3.916091  0
C  C53  1  0.69931086  0.65858283  0.50364333  1  -0.020832  0  -0.01317  -0.12502  0  3.91655  0
C  C54  1  0.30097912  0.65852052  0.00360515  1  -0.028773  0  -0.013229  -0.125204  0  3.917029  0
C  C55  1  0.30082542  0.34146150  0.49635381  1  -0.028202  0  -0.013243  -0.124867  0  3.916639  0
C  C56  1  0.66717036  0.41112840  0.04784454  1  -0.072226  0  -0.068515  -0.05794  0  3.969423  0
C  C57  1  0.66737282  0.58887278  0.45224172  1  -0.072336  0  -0.06863  -0.057462  0  3.968033  0
C  C58  1  0.33288762  0.58881963  0.95219484  1  -0.065447  0  -0.068526  -0.057998  0  3.969973  0
C  C59  1  0.33277697  0.41116147  0.54776027  1  -0.066224  0  -0.068593  -0.05782  0  3.968435  0
C  C60  1  0.72663223  0.52193431  0.03738170  1  0.00084  0  -0.081044  -0.112246  0  3.968547  0
C  C61  1  0.72671381  0.47802592  0.46271392  1  -0.002192  0  -0.081609  -0.113206  0  3.968706  0
C  C62  1  0.27347572  0.47801083  0.96265981  1  0.000507  0  -0.081187  -0.112173  0  3.968839  0
C  C63  1  0.27341708  0.52200028  0.53729550  1  -0.000746  0  -0.081567  -0.112939  0  3.968118  0
C  C64  1  0.81005727  0.56167730  0.97384703  1  0.541272  0  0.051369  0.109562  0  3.962684  0
C  C65  1  0.81019186  0.43828292  0.52624086  1  0.542052  0  0.051054  0.109543  0  3.962557  0
C  C66  1  0.19003853  0.43827528  0.02619488  1  0.54002  0  0.051186  0.109288  0  3.963147  0
C  C67  1  0.18991202  0.56174747  0.47376849  1  0.541679  0  0.051319  0.109873  0  3.962483  0
C  C68  1  0.63034346  0.22260250  0.01015560  1  1.600335  0  0.238792  0.651392  0  4.140929  0
C  C69  1  0.63061028  0.77740993  0.48989901  1  1.60436  0  0.239134  0.651677  0  4.141248  0
C  C70  1  0.36955248  0.77736078  0.98985071  1  1.601779  0  0.239345  0.652195  0  4.139934  0
C  C71  1  0.36945174  0.22261799  0.51010101  1  1.603634  0  0.239304  0.651743  0  4.141251  0
C  C72  1  0.79502368  0.33245405  0.86903275  1  0.552347  0  0.131564  0.166813  0  3.936497  0
C  C73  1  0.79541534  0.66758196  0.63100273  1  0.55551  0  0.131714  0.166924  0  3.936915  0
C  C74  1  0.20487766  0.66752523  0.13097746  1  0.553078  0  0.131528  0.166939  0  3.936775  0
C  C75  1  0.20466694  0.33243264  0.36899698  1  0.556479  0  0.131804  0.167288  0  3.936062  0
C  C76  1  0.88035998  0.22824687  0.86406010  1  -0.051055  0  -0.012143  -0.126576  0  3.944677  0
C  C77  1  0.88069440  0.77179557  0.63596378  1  -0.05241  0  -0.012435  -0.126947  0  3.944438  0
C  C78  1  0.11953190  0.77174248  0.13592702  1  -0.050652  0  -0.012364  -0.126956  0  3.944662  0
C  C79  1  0.11936492  0.22822501  0.36403531  1  -0.05163  0  -0.012346  -0.127056  0  3.944612  0
C  C80  1  0.85600195  0.18011206  0.80256427  1  -0.07821  0  -0.067951  -0.054183  0  3.967164  0
C  C81  1  0.85631329  0.81992715  0.69745744  1  -0.083527  0  -0.067974  -0.054192  0  3.96701  0
C  C82  1  0.14390208  0.81990752  0.19740828  1  -0.08103  0  -0.067837  -0.054324  0  3.967651  0
C  C83  1  0.14377574  0.18007664  0.30254662  1  -0.085179  0  -0.067933  -0.054167  0  3.967351  0
C  C84  1  0.76722365  0.24017677  0.74587930  1  0.006078  0  -0.083177  -0.128792  0  3.957007  0
C  C85  1  0.76754493  0.75987646  0.75414063  1  0.009772  0  -0.083209  -0.1288  0  3.957466  0
C  C86  1  0.23267227  0.75986212  0.25410647  1  0.009152  0  -0.08296  -0.128285  0  3.956359  0
C  C87  1  0.23255220  0.24012872  0.24586497  1  0.009168  0  -0.08313  -0.12893  0  3.957511  0
C  C88  1  0.70498989  0.34798091  0.75296711  1  0.452995  0  0.046896  0.10118  0  3.986923  0
C  C89  1  0.70530712  0.65210341  0.74705819  1  0.450959  0  0.047309  0.101974  0  3.987362  0
C  C90  1  0.29489389  0.65204668  0.24704853  1  0.452588  0  0.046812  0.101488  0  3.986875  0
C  C91  1  0.29480082  0.34791072  0.25294414  1  0.452387  0  0.047132  0.102057  0  3.98714  0
C  C92  1  0.00719770  0.17039903  0.91702538  1  1.487581  0  0.204264  0.607059  0  4.237149  0
C  C93  1  0.00744269  0.82964547  0.58297628  1  1.486211  0  0.204543  0.607869  0  4.235649  0
C  C94  1  0.99271444  0.82959093  0.08294923  1  1.486209  0  0.204652  0.607696  0  4.236159  0
C  C95  1  0.99262878  0.17036652  0.41702400  1  1.485631  0  0.204369  0.60758  0  4.235767  0
C  C96  1  0.29692725  0.06154938  0.75289589  1  0.59023  0  0.137433  0.171198  0  3.959958  0
C  C97  1  0.29701947  0.93855576  0.74708193  1  0.551474  0  0.137653  0.171804  0  3.959311  0
C  C98  1  0.70303890  0.93845287  0.24708007  1  0.590844  0  0.137293  0.171163  0  3.960033  0
C  C99  1  0.70298044  0.06145393  0.25289444  1  0.551531  0  0.137516  0.17139  0  3.959081  0
C  C100  1  0.37487155  0.10306228  0.81045831  1  -0.057788  0  0.004226  -0.092076  0  3.888968  0
C  C101  1  0.37507716  0.89702826  0.68954104  1  -0.059084  0  0.004273  -0.091504  0  3.889024  0
C  C102  1  0.62502033  0.89693739  0.18953176  1  -0.058545  0  0.004284  -0.091991  0  3.889359  0
C  C103  1  0.62492275  0.10297267  0.31043756  1  -0.058405  0  0.004383  -0.091562  0  3.888796  0
C  C104  1  0.35623883  0.21786439  0.81582192  1  -0.030299  0  -0.052188  -0.030432  0  3.92848  0
C  C105  1  0.35655664  0.78222068  0.68420189  1  -0.024698  0  -0.052433  -0.030967  0  3.928824  0
C  C106  1  0.64363144  0.78213492  0.18416556  1  -0.028597  0  -0.052464  -0.030955  0  3.928936  0
C  C107  1  0.64347297  0.21777222  0.31580236  1  -0.024804  0  -0.052412  -0.030833  0  3.92942  0
C  C108  1  0.26936580  0.28816155  0.76288694  1  -0.029114  0  -0.075804  -0.119613  0  3.975305  0
C  C109  1  0.26970583  0.71192126  0.73713589  1  -0.032779  0  -0.075577  -0.119155  0  3.974632  0
C  C110  1  0.73049502  0.71183271  0.23710531  1  -0.028236  0  -0.075688  -0.119291  0  3.974888  0
C  C111  1  0.73033189  0.28808004  0.26288176  1  -0.032952  0  -0.075598  -0.119361  0  3.974997  0
C  C112  1  0.19974487  0.24056742  0.70688400  1  0.481812  0  0.051704  0.098615  0  3.971184  0
C  C113  1  0.20002306  0.75954827  0.79312121  1  0.481831  0  0.052064  0.099749  0  3.970927  0
C  C114  1  0.80017807  0.75943174  0.29309514  1  0.482437  0  0.052012  0.09854  0  3.971557  0
C  C115  1  0.80003221  0.24047029  0.20688886  1  0.481887  0  0.052096  0.099342  0  3.970508  0
C  C116  1  0.48724159  0.03406751  0.86464805  1  1.554446  0  0.220189  0.627274  0  4.183362  0
C  C117  1  0.48737657  0.96600112  0.63534345  1  1.551991  0  0.220011  0.626731  0  4.183879  0
C  C118  1  0.51266920  0.96593867  0.13534296  1  1.553249  0  0.220273  0.627005  0  4.18398  0
C  C119  1  0.51264225  0.03397531  0.36463659  1  1.552874  0  0.219987  0.626769  0  4.184451  0
N  N120  1  0.20989415  0.12962957  0.70219296  1  -1.218791  0  -0.303165  -0.293569  0  3.339488  0
N  N121  1  0.21004920  0.87047638  0.79779008  1  -1.220508  0  -0.303506  -0.294534  0  3.339661  0
N  N122  1  0.79006660  0.87037399  0.29778038  1  -1.219654  0  -0.303117  -0.293375  0  3.339663  0
N  N123  1  0.78998581  0.12954014  0.20219919  1  -1.220867  0  -0.303413  -0.293955  0  3.339071  0
N  N124  1  0.71113274  0.39048724  0.81352671  1  -1.172573  0  -0.308041  -0.28751  0  3.329727  0
N  N125  1  0.71150772  0.60958865  0.68649929  1  -1.170827  0  -0.308164  -0.288004  0  3.330909  0
N  N126  1  0.28874564  0.60952272  0.18649392  1  -1.172451  0  -0.308032  -0.287826  0  3.33059  0
N  N127  1  0.28858671  0.39043173  0.31350085  1  -1.172311  0  -0.308252  -0.288288  0  3.330375  0
N  N128  1  0.83324567  0.49864700  0.92265055  1  -1.177822  0  -0.316227  -0.299874  0  3.320039  0
N  N129  1  0.83349834  0.50133178  0.57741579  1  -1.179743  0  -0.315401  -0.298887  0  3.320305  0
N  N130  1  0.16676910  0.50130899  0.07738192  1  -1.178319  0  -0.315989  -0.299498  0  3.3201  0
N  N131  1  0.16660824  0.49870302  0.42258775  1  -1.180055  0  -0.315659  -0.299118  0  3.320506  0
O  O132  1  0.46657860  0.20853918  0.02762425  1  -1.183072  0  -0.381978  -0.622844  0  2.256106  0
O  O133  1  0.46682335  0.79146626  0.47243058  1  -1.186489  0  -0.382086  -0.622778  0  2.255974  0
O  O134  1  0.53333084  0.79142558  0.97238308  1  -1.184874  0  -0.382147  -0.623035  0  2.255311  0
O  O135  1  0.53323463  0.20853338  0.52756418  1  -1.186131  0  -0.382111  -0.622844  0  2.256008  0
O  O136  1  0.74313460  0.14283115  0.00506577  1  -1.216545  0  -0.354136  -0.664655  0  2.36585  0
O  O137  1  0.74332984  0.85718939  0.49496279  1  -1.21734  0  -0.354381  -0.664687  0  2.366226  0
O  O138  1  0.25675459  0.85712408  0.99492974  1  -1.215692  0  -0.354336  -0.664813  0  2.365485  0
O  O139  1  0.25669707  0.14285530  0.50503694  1  -1.216296  0  -0.354401  -0.664772  0  2.366037  0
O  O140  1  0.00755032  0.06082366  0.92823282  1  -1.176387  0  -0.443645  -0.763191  0  2.374119  0
O  O141  1  0.00772068  0.93921135  0.57176118  1  -1.176369  0  -0.443546  -0.763062  0  2.373842  0
O  O142  1  0.99234966  0.93916312  0.07174549  1  -1.176269  0  -0.443719  -0.763128  0  2.373918  0
O  O143  1  0.99235215  0.06079730  0.42823916  1  -1.176726  0  -0.443609  -0.763065  0  2.373674  0
O  O144  1  0.12092886  0.22555569  0.94728778  1  -1.160014  0  -0.344139  -0.581782  0  2.227875  0
O  O145  1  0.12122209  0.77449207  0.55270458  1  -1.160303  0  -0.344436  -0.582294  0  2.227076  0
O  O146  1  0.87898058  0.77443925  0.05267790  1  -1.160205  0  -0.344398  -0.582191  0  2.227643  0
O  O147  1  0.87887369  0.22552494  0.44730030  1  -1.160045  0  -0.344331  -0.582134  0  2.227495  0
O  O148  1  0.46158484  0.05049970  0.92863047  1  -1.212626  0  -0.453162  -0.76604  0  2.452555  0
O  O149  1  0.46174068  0.94953557  0.57136926  1  -1.212351  0  -0.452928  -0.765536  0  2.452702  0
O  O150  1  0.53832595  0.94948618  0.07136191  1  -1.212869  0  -0.453129  -0.765802  0  2.452511  0
O  O151  1  0.53831594  0.05043107  0.42861408  1  -1.212418  0  -0.452948  -0.765632  0  2.452441  0
O  O152  1  0.61213147  0.97058471  0.84901334  1  -1.163051  0  -0.334797  -0.579313  0  2.142526  0
O  O153  1  0.61222652  0.02948150  0.65098309  1  -1.162116  0  -0.334829  -0.579404  0  2.142103  0
O  O154  1  0.38779146  0.02941877  0.15097875  1  -1.16227  0  -0.334912  -0.579315  0  2.142743  0
O  O155  1  0.38779365  0.97049665  0.34900578  1  -1.163077  0  -0.334809  -0.57928  0  2.142744  0
O  O156  1  0.03146262  0.16167449  0.08918495  1  -1.260405  0  -0.634235  -0.816336  0  2.108423  0
O  O157  1  0.03156872  0.83830074  0.41080018  1  -1.261584  0  -0.634178  -0.816111  0  2.108505  0
O  O158  1  0.96844006  0.83830294  0.91078049  1  -1.260942  0  -0.634294  -0.816397  0  2.107939  0
O  O159  1  0.96842579  0.16171542  0.58918649  1  -1.261186  0  -0.634359  -0.816338  0  2.108606  0
