# generated using pymatgen
data_Zn3H16(C19O6)2
_symmetry_space_group_name_H-M   'P 1'
_cell_length_a   23.75099480
_cell_length_b   27.89641273
_cell_length_c   27.89624235
_cell_angle_alpha   79.56609523
_cell_angle_beta   64.81526958
_cell_angle_gamma   64.81507400
_symmetry_Int_Tables_number   1
_chemical_formula_structural   Zn3H16(C19O6)2
_chemical_formula_sum   'Zn6 H32 C76 O24'
_cell_volume   15136.14284603
_cell_formula_units_Z   2
loop_
 _symmetry_equiv_pos_site_id
 _symmetry_equiv_pos_as_xyz
  1  'x, y, z'
loop_
 _atom_site_type_symbol
 _atom_site_label
 _atom_site_symmetry_multiplicity
 _atom_site_fract_x
 _atom_site_fract_y
 _atom_site_fract_z
 _atom_site_occupancy
 _atom_site_pbe_bader_charge
 _atom_site_pbe_bader_spin_density
 _atom_site_pbe_cm5_charge
 _atom_site_pbe_ddec_charge
 _atom_site_pbe_ddec_spin_density
 _atom_site_pbe_ddec_sum_bond_order
 _atom_site_pbe_magmom
Zn  Zn0  1  0.00000039  0.53603759  0.46396288  1  1.29245  0  0.739069  0.97754  0  2.065353  0
Zn  Zn1  1  0.44623627  0.99998839  0.99999182  1  1.280785  0  0.732085  0.971557  0  2.090906  0
Zn  Zn2  1  0.55376302  0.00000703  0.00001204  1  1.279818  0  0.732039  0.971529  0  2.091018  0
Zn  Zn3  1  0.53604513  0.46396122  0.46396109  1  1.305334  0  0.739078  0.977266  0  2.06465  0
Zn  Zn4  1  0.00000012  0.46396266  0.53603761  1  1.310266  0  0.73901  0.977257  0  2.06539  0
Zn  Zn5  1  0.46395667  0.53603897  0.53603881  1  1.293919  0  0.739112  0.977376  0  2.064549  0
H  H6  1  0.22050699  0.18867761  0.18864177  1  0.055399  0  0.108034  0.111027  0  0.98588  0
H  H7  1  0.40923024  0.18860974  0.81130264  1  0.064481  0  0.107987  0.111645  0  0.98725  0
H  H8  1  0.59787057  0.81131295  0.81135169  1  0.06573  0  0.107771  0.111349  0  0.985539  0
H  H9  1  0.40913269  0.81139666  0.18870779  1  0.06422  0  0.107965  0.111906  0  0.986985  0
H  H10  1  0.40212946  0.18865000  0.18868494  1  0.065716  0  0.107781  0.111389  0  0.985521  0
H  H11  1  0.59086520  0.81129299  0.18860426  1  0.064252  0  0.107993  0.111924  0  0.986996  0
H  H12  1  0.77949294  0.81136139  0.81131866  1  0.055407  0  0.108075  0.111055  0  0.9859  0
H  H13  1  0.59077192  0.18869542  0.81139050  1  0.064718  0  0.107995  0.111644  0  0.987218  0
H  H14  1  0.29086455  0.11871201  0.11867494  1  0.079862  0  0.108348  0.114025  0  0.991684  0
H  H15  1  0.40963363  0.11863394  0.88126547  1  0.092345  0  0.108881  0.115541  0  0.992014  0
H  H16  1  0.52831731  0.88127901  0.88131516  1  0.06821  0  0.108889  0.115604  0  0.991261  0
H  H17  1  0.40953010  0.88136580  0.11873424  1  0.091237  0  0.109003  0.1159  0  0.991292  0
H  H18  1  0.47168237  0.11868631  0.11871969  1  0.06825  0  0.108867  0.115568  0  0.991227  0
H  H19  1  0.59046773  0.88126603  0.11863501  1  0.091305  0  0.10898  0.115858  0  0.991305  0
H  H20  1  0.70913578  0.88132739  0.88128582  1  0.079951  0  0.10836  0.114031  0  0.991619  0
H  H21  1  0.59036795  0.11873143  0.88136572  1  0.092329  0  0.108871  0.115511  0  0.991977  0
H  H22  1  0.18843312  0.25119257  0.37196569  1  0.082612  0  0.108795  0.112976  0  0.984563  0
H  H23  1  0.43960427  0.37195932  0.74881836  1  0.09761  0  0.109085  0.112673  0  0.985541  0
H  H24  1  0.81167569  0.74881000  0.62803200  1  0.079744  0  0.108658  0.11263  0  0.984601  0
H  H25  1  0.56032424  0.62804006  0.25118081  1  0.090604  0  0.109172  0.112658  0  0.985535  0
H  H26  1  0.18838287  0.37196525  0.25119052  1  0.082146  0  0.108758  0.112885  0  0.98476  0
H  H27  1  0.43967600  0.74881810  0.37195960  1  0.090644  0  0.109182  0.112705  0  0.985541  0
H  H28  1  0.81150364  0.62803849  0.74881081  1  0.082908  0  0.108816  0.112831  0  0.98486  0
H  H29  1  0.56039063  0.25118169  0.62803982  1  0.097886  0  0.109091  0.112689  0  0.985583  0
H  H30  1  0.11852880  0.32128853  0.44168705  1  0.102868  0  0.109562  0.115943  0  0.989186  0
H  H31  1  0.43979550  0.44167610  0.67871517  1  0.11966  0  0.109525  0.11553  0  0.990584  0
H  H32  1  0.88158553  0.67870968  0.55831197  1  0.103417  0  0.109556  0.115869  0  0.989377  0
H  H33  1  0.56013772  0.55832091  0.32128375  1  0.118886  0  0.109623  0.115741  0  0.990313  0
H  H34  1  0.11848098  0.44168727  0.32128732  1  0.102663  0  0.109644  0.11599  0  0.989301  0
H  H35  1  0.43986218  0.67871551  0.44167896  1  0.118868  0  0.109629  0.115782  0  0.990274  0
H  H36  1  0.88140960  0.55831489  0.67871587  1  0.103618  0  0.109571  0.115979  0  0.988912  0
H  H37  1  0.56020181  0.32128468  0.55832245  1  0.119581  0  0.1095  0.115559  0  0.990575  0
C  C38  1  0.07253939  0.42745455  0.42745510  1  1.515515  0  0.222117  0.600462  0  4.150657  0
C  C39  1  0.49999922  0.26720937  0.73278911  1  0.023766  0  -0.041849  -0.107929  0  4.107892  0
C  C40  1  0.44875627  0.82677731  0.17328082  1  0.065619  0  -0.082507  -0.130152  0  3.951944  0
C  C41  1  0.37792207  0.17325621  0.17327301  1  0.085574  0  -0.083116  -0.130243  0  3.947606  0
C  C42  1  0.55124275  0.82671932  0.17322285  1  0.065551  0  -0.082526  -0.130171  0  3.951999  0
C  C43  1  0.72449964  0.82675293  0.82672538  1  -0.042307  0  -0.081452  -0.12747  0  3.94826  0
C  C44  1  0.55118881  0.17327239  0.82677394  1  0.064659  0  -0.082545  -0.129755  0  3.952244  0
C  C45  1  0.27549980  0.17327221  0.17324993  1  -0.042457  0  -0.081358  -0.127332  0  3.948154  0
C  C46  1  0.44881153  0.17322660  0.82672741  1  0.065009  0  -0.082549  -0.129734  0  3.952289  0
C  C47  1  0.62207781  0.82672536  0.82674466  1  0.085432  0  -0.083125  -0.13018  0  3.947648  0
C  C48  1  0.76719978  0.73278086  0.73277563  1  0.01183  0  -0.041648  -0.106394  0  4.111886  0
C  C49  1  0.31456824  0.13437276  0.13434881  1  0.053542  0  -0.078648  -0.082816  0  3.9826  0
C  C50  1  0.44897362  0.13432236  0.86562650  1  -0.065884  0  -0.07972  -0.084772  0  3.987056  0
C  C51  1  0.58333884  0.86562523  0.86564205  1  -0.002742  0  -0.0798  -0.085524  0  3.983335  0
C  C52  1  0.44891856  0.86567801  0.13437624  1  -0.065141  0  -0.079855  -0.084874  0  3.986525  0
C  C53  1  0.41666028  0.13435832  0.13437351  1  -0.002736  0  -0.079832  -0.085534  0  3.983363  0
C  C54  1  0.55107878  0.86562435  0.13432292  1  -0.065316  0  -0.079798  -0.08475  0  3.986537  0
C  C55  1  0.68543069  0.86565317  0.86562475  1  0.053352  0  -0.078611  -0.082661  0  3.982613  0
C  C56  1  0.49999951  0.73279041  0.26720893  1  0.023702  0  -0.041954  -0.108024  0  4.108148  0
C  C57  1  0.55102745  0.13437208  0.86567691  1  -0.065897  0  -0.07972  -0.084667  0  3.987089  0
C  C58  1  0.38537702  0.11459436  0.11459150  1  -0.0524  0  -0.018431  -0.037616  0  3.972948  0
C  C59  1  0.23279740  0.26722249  0.26722311  1  0.011777  0  -0.041666  -0.1065  0  4.111848  0
C  C60  1  0.50000073  0.11457482  0.88542399  1  0.000889  0  -0.018262  -0.037618  0  3.9768  0
C  C61  1  0.61462378  0.88540939  0.88540434  1  -0.052433  0  -0.018485  -0.037734  0  3.972959  0
C  C62  1  0.49999971  0.88542021  0.11457985  1  0.001977  0  -0.018137  -0.037685  0  3.977012  0
C  C63  1  0.30665232  0.19331624  0.19331665  1  0.02321  0  0.004995  0.146068  0  4.108595  0
C  C64  1  0.50000129  0.19329759  0.80669990  1  0.02638  0  0.005475  0.145996  0  4.113501  0
C  C65  1  0.69334632  0.80668513  0.80668348  1  0.023215  0  0.005039  0.146073  0  4.108687  0
C  C66  1  0.49999926  0.80670140  0.19329951  1  0.025333  0  0.005363  0.145985  0  4.113121  0
C  C67  1  0.26692780  0.23304518  0.23304531  1  -0.393626  0  -0.040744  -0.103876  0  4.112304  0
C  C68  1  0.49999997  0.23302778  0.76697209  1  -0.41455  0  -0.039861  -0.101067  0  4.107024  0
C  C69  1  0.73307110  0.76695698  0.76695462  1  -0.393454  0  -0.04073  -0.103868  0  4.112404  0
C  C70  1  0.50000016  0.76696884  0.23303033  1  -0.414593  0  -0.039841  -0.101076  0  4.107219  0
C  C71  1  0.17299776  0.29294823  0.36106495  1  0.055463  0  -0.080975  -0.129452  0  3.946341  0
C  C72  1  0.46593329  0.36105960  0.70706100  1  -0.045206  0  -0.081226  -0.129018  0  3.948933  0
C  C73  1  0.82706295  0.70705117  0.63893269  1  0.053155  0  -0.08095  -0.128804  0  3.94626  0
C  C74  1  0.49999971  0.42745040  0.57254963  1  1.511806  0  0.22276  0.600149  0  4.15021  0
C  C75  1  0.53402927  0.63893741  0.29293881  1  -0.039439  0  -0.081477  -0.129041  0  3.948922  0
C  C76  1  0.17296977  0.36106582  0.29294733  1  0.050862  0  -0.081006  -0.129404  0  3.946576  0
C  C77  1  0.46597013  0.70706069  0.36106191  1  -0.039416  0  -0.08145  -0.129037  0  3.948944  0
C  C78  1  0.82697733  0.63893554  0.70705226  1  0.055761  0  -0.081122  -0.129253  0  3.946657  0
C  C79  1  0.53406505  0.29293830  0.63893914  1  -0.045508  0  -0.081304  -0.129054  0  3.948981  0
C  C80  1  0.92746345  0.57254365  0.57254707  1  1.515657  0  0.222032  0.600325  0  4.150867  0
C  C81  1  0.13408977  0.33194553  0.39987463  1  -0.130041  0  -0.078961  -0.082708  0  3.981457  0
C  C82  1  0.46602487  0.39986680  0.66806304  1  0.058592  0  -0.078373  -0.081802  0  3.982016  0
C  C83  1  0.86596744  0.66805584  0.60012552  1  -0.125104  0  -0.078866  -0.082635  0  3.981523  0
C  C84  1  0.53393329  0.60013100  0.33193844  1  0.058804  0  -0.078292  -0.082026  0  3.981887  0
C  C85  1  0.13406644  0.39987576  0.33194404  1  -0.124684  0  -0.079031  -0.082681  0  3.981277  0
C  C86  1  0.46606655  0.66806098  0.39986823  1  0.058845  0  -0.07836  -0.082179  0  3.981927  0
C  C87  1  0.86587538  0.60012640  0.66805671  1  -0.130944  0  -0.078817  -0.082715  0  3.980994  0
C  C88  1  0.49999973  0.57254938  0.42745049  1  1.511243  0  0.222749  0.600125  0  4.150592  0
C  C89  1  0.53397215  0.33193683  0.60013223  1  0.058509  0  -0.078338  -0.081905  0  3.982005  0
C  C90  1  0.11427163  0.38572798  0.38572764  1  0.096251  0  -0.016685  -0.039803  0  3.974582  0
C  C91  1  0.49999868  0.38571858  0.61428086  1  -0.123536  0  -0.017657  -0.039646  0  3.972536  0
C  C92  1  0.88573152  0.61427260  0.61427257  1  0.09597  0  -0.01669  -0.039772  0  3.974536  0
C  C93  1  0.49999959  0.61428200  0.38571771  1  -0.122395  0  -0.017842  -0.03973  0  3.972966  0
C  C94  1  0.19307433  0.30694073  0.30693890  1  0.018813  0  0.006863  0.15  0  4.106698  0
C  C95  1  0.49999841  0.30693124  0.69306822  1  0.001253  0  0.006376  0.149085  0  4.109767  0
C  C96  1  0.80692256  0.69306143  0.69305933  1  0.018185  0  0.006862  0.149597  0  4.106757  0
C  C97  1  0.49999985  0.69306696  0.30693248  1  0.003387  0  0.006483  0.149241  0  4.109787  0
C  C98  1  0.49999875  0.92717144  0.07282830  1  1.532833  0  0.218947  0.594282  0  4.164306  0
C  C99  1  0.42714954  0.07283768  0.07284016  1  1.519008  0  0.219611  0.597762  0  4.161213  0
C  C100  1  0.50000011  0.07282280  0.92717611  1  1.534539  0  0.219266  0.594791  0  4.163773  0
C  C101  1  0.57284946  0.92716013  0.92716140  1  1.51867  0  0.219675  0.597838  0  4.16089  0
C  C102  1  0.10960769  0.50000888  0.50000994  1  1.676439  0  0.223789  0.656287  0  4.257253  0
C  C103  1  0.60959442  0.49999875  0.49999836  1  1.682502  0  0.22478  0.655917  0  4.258296  0
C  C104  1  0.89039218  0.49999051  0.49999088  1  1.676127  0  0.223825  0.65648  0  4.257221  0
C  C105  1  0.39040632  0.50000104  0.50000139  1  1.682206  0  0.224774  0.655999  0  4.258425  0
C  C106  1  0.17010170  0.50002027  0.50002070  1  0.128927  0  -0.004579  -0.126936  0  3.8556  0
C  C107  1  0.67008517  0.50000895  0.50000692  1  0.133225  0  -0.00454  -0.127433  0  3.856304  0
C  C108  1  0.82990270  0.49998149  0.49997999  1  0.128418  0  -0.004643  -0.127217  0  3.855204  0
C  C109  1  0.32992241  0.49999242  0.49999264  1  0.132953  0  -0.004655  -0.127499  0  3.855713  0
C  C110  1  0.22167036  0.50000794  0.50000767  1  -0.297368  0  -0.005126  0.028754  0  4.236421  0
C  C111  1  0.72164568  0.50000454  0.50000275  1  -0.192126  0  -0.005196  0.029271  0  4.236124  0
C  C112  1  0.77832501  0.49999580  0.49999408  1  -0.29697  0  -0.004972  0.028966  0  4.235253  0
C  C113  1  0.27834719  0.49999921  0.49999871  1  -0.191868  0  -0.004996  0.029332  0  4.235311  0
O  O114  1  0.05599640  0.47586278  0.41212254  1  -1.148962  0  -0.315316  -0.551335  0  2.287617  0
O  O115  1  0.53184276  0.41211969  0.52414484  1  -1.145885  0  -0.315554  -0.551343  0  2.287084  0
O  O116  1  0.94398083  0.52413700  0.58788073  1  -1.14937  0  -0.315298  -0.551164  0  2.287688  0
O  O117  1  0.46814195  0.58788049  0.47585493  1  -1.145543  0  -0.315537  -0.551351  0  2.28736  0
O  O118  1  0.05601758  0.41212123  0.47586197  1  -1.149281  0  -0.3153  -0.551191  0  2.287649  0
O  O119  1  0.53185868  0.52414505  0.41211899  1  -1.14557  0  -0.315516  -0.551301  0  2.287366  0
O  O120  1  0.94400719  0.58787658  0.52413846  1  -1.148987  0  -0.315276  -0.551254  0  2.287674  0
O  O121  1  0.46815796  0.47585474  0.58788021  1  -1.145841  0  -0.315551  -0.551342  0  2.287126  0
O  O122  1  0.08578608  0.53208069  0.46791718  1  -1.118341  0  -0.307845  -0.538474  0  2.216321  0
O  O123  1  0.61784966  0.46790661  0.46791866  1  -1.118024  0  -0.308758  -0.538528  0  2.217449  0
O  O124  1  0.08577333  0.46793072  0.53209320  1  -1.118261  0  -0.307871  -0.538436  0  2.216438  0
O  O125  1  0.55368119  0.53207977  0.53206830  1  -1.125642  0  -0.30788  -0.537492  0  2.215339  0
O  O126  1  0.91422758  0.46790642  0.53206945  1  -1.118061  0  -0.307901  -0.538491  0  2.216344  0
O  O127  1  0.44631940  0.46793229  0.46792080  1  -1.125602  0  -0.307856  -0.537476  0  2.215391  0
O  O128  1  0.91421506  0.53208253  0.46791964  1  -1.118345  0  -0.307847  -0.538497  0  2.21622  0
O  O129  1  0.38215051  0.53208129  0.53209367  1  -1.11812  0  -0.308764  -0.538576  0  2.217295  0
O  O130  1  0.54791953  0.94358946  0.05643044  1  -1.152469  0  -0.317716  -0.552551  0  2.287265  0
O  O131  1  0.49147516  0.05642128  0.05647000  1  -1.140226  0  -0.31838  -0.554634  0  2.288496  0
O  O132  1  0.54786671  0.05647775  0.94364832  1  -1.153533  0  -0.31787  -0.552729  0  2.287205  0
O  O133  1  0.60436042  0.94360235  0.94355925  1  -1.15171  0  -0.317653  -0.554084  0  2.285236  0
O  O134  1  0.45213402  0.05635210  0.94352041  1  -1.153569  0  -0.317871  -0.552746  0  2.287354  0
O  O135  1  0.39564242  0.05644061  0.05639721  1  -1.152106  0  -0.317554  -0.553914  0  2.285526  0
O  O136  1  0.45207919  0.94356957  0.05640960  1  -1.152622  0  -0.317731  -0.552479  0  2.28739  0
O  O137  1  0.50852819  0.94352938  0.94357737  1  -1.140218  0  -0.318391  -0.554568  0  2.288535  0
