# generated using pymatgen
data_CdH26C38(NO2)2
_symmetry_space_group_name_H-M   'P 1'
_cell_length_a   10.15671922
_cell_length_b   11.72574425
_cell_length_c   14.16422347
_cell_angle_alpha   98.15189220
_cell_angle_beta   102.72185271
_cell_angle_gamma   109.11803101
_symmetry_Int_Tables_number   1
_chemical_formula_structural   CdH26C38(NO2)2
_chemical_formula_sum   'Cd2 H52 C76 N4 O8'
_cell_volume   1512.26304315
_cell_formula_units_Z   2
loop_
 _symmetry_equiv_pos_site_id
 _symmetry_equiv_pos_as_xyz
  1  'x, y, z'
loop_
 _atom_site_type_symbol
 _atom_site_label
 _atom_site_symmetry_multiplicity
 _atom_site_fract_x
 _atom_site_fract_y
 _atom_site_fract_z
 _atom_site_occupancy
 _atom_site_hle17_bader_spin_density
 _atom_site_hle17_ddec_charge
 _atom_site_hle17_ddec_spin_density
 _atom_site_hle17_ddec_sum_bond_order
 _atom_site_hle17_magmom
 _atom_site_hse06_10hf_bader_spin_density
 _atom_site_hse06_10hf_ddec_charge
 _atom_site_hse06_10hf_ddec_spin_density
 _atom_site_hse06_10hf_ddec_sum_bond_order
 _atom_site_hse06_10hf_magmom
 _atom_site_hse06_bader_spin_density
 _atom_site_hse06_ddec_charge
 _atom_site_hse06_ddec_spin_density
 _atom_site_hse06_ddec_sum_bond_order
 _atom_site_hse06_magmom
 _atom_site_pbe_bader_spin_density
 _atom_site_pbe_cm5_charge
 _atom_site_pbe_ddec_charge
 _atom_site_pbe_ddec_spin_density
 _atom_site_pbe_ddec_sum_bond_order
 _atom_site_pbe_magmom
Cd  Cd0  1  0.26822965  0.93077631  0.90039477  1  0  1.139134  0  1.711783  0  0  0.947327  0  2.171413  0  0  1.005409  0  2.115703  0  0  0.787166  0.902812  0  2.211725  0
Cd  Cd1  1  0.73176807  0.06921785  0.09960785  1  0  1.139197  0  1.711809  0  0  0.947387  0  2.171448  0  0  1.005471  0  2.115735  0  0  0.787173  0.90287  0  2.211763  0
H  H2  1  0.08835206  0.31350952  0.96053658  1  0  0.1104  0  0.94144  0  0  0.123385  0  0.996092  0  0  0.12639  0  0.995541  0  0  0.111249  0.121127  0  0.996784  0
H  H3  1  0.91163859  0.68648460  0.03946278  1  0  0.110417  0  0.941424  0  0  0.123389  0  0.996085  0  0  0.126391  0  0.995535  0  0  0.111291  0.121132  0  0.996779  0
H  H4  1  0.43441196  0.37727676  0.81801778  1  0  0.11011  0  0.953879  0  0  0.119924  0  1.014747  0  0  0.122323  0  1.015639  0  0  0.109112  0.118063  0  1.014554  0
H  H5  1  0.56558147  0.62271919  0.18198720  1  0  0.110172  0  0.953754  0  0  0.119967  0  1.014633  0  0  0.122372  0  1.015529  0  0  0.109129  0.118105  0  1.014442  0
H  H6  1  0.46160584  0.88960325  0.64515749  1  0  0.105661  0  0.96313  0  0  0.112738  0  1.031146  0  0  0.116316  0  1.028623  0  0  0.104277  0.110186  0  1.032855  0
H  H7  1  0.53839868  0.11040208  0.35484475  1  0  0.105636  0  0.963098  0  0  0.112703  0  1.03113  0  0  0.116278  0  1.028614  0  0  0.104269  0.110152  0  1.032836  0
H  H8  1  0.42786598  0.16550029  0.83052449  1  0  0.08829  0  0.960952  0  0  0.094  0  1.028181  0  0  0.096029  0  1.027061  0  0  0.11782  0.092354  0  1.029148  0
H  H9  1  0.57213005  0.83449938  0.16948065  1  0  0.088339  0  0.960863  0  0  0.094097  0  1.028057  0  0  0.096131  0  1.026926  0  0  0.117831  0.092449  0  1.029023  0
H  H10  1  0.81067060  0.95814775  0.90632457  1  0  0.106087  0  0.972151  0  0  0.112974  0  1.043098  0  0  0.116842  0  1.039275  0  0  0.103625  0.110244  0  1.046004  0
H  H11  1  0.18932872  0.04185014  0.09367593  1  0  0.106048  0  0.972175  0  0  0.112913  0  1.043137  0  0  0.116778  0  1.039324  0  0  0.103613  0.110186  0  1.04605  0
H  H12  1  0.02845371  0.43922664  0.85416612  1  0  0.107932  0  0.960935  0  0  0.117623  0  1.021129  0  0  0.120228  0  1.021685  0  0  0.108411  0.11556  0  1.02128  0
H  H13  1  0.97154019  0.56077033  0.14582846  1  0  0.107931  0  0.960931  0  0  0.117618  0  1.02112  0  0  0.120227  0  1.021676  0  0  0.108406  0.115554  0  1.021272  0
H  H14  1  0.09856941  0.10738252  0.96831611  1  0  0.100453  0  0.974228  0  0  0.104849  0  1.042704  0  0  0.107895  0  1.039664  0  0  0.116988  0.102427  0  1.045067  0
H  H15  1  0.90142809  0.89261348  0.03168670  1  0  0.100461  0  0.974257  0  0  0.104896  0  1.042696  0  0  0.107944  0  1.039654  0  0  0.116983  0.10247  0  1.045054  0
H  H16  1  0.83110909  0.79202976  0.62277779  1  0  0.106277  0  0.958151  0  0  0.114427  0  1.02435  0  0  0.118357  0  1.021277  0  0  0.104627  0.111618  0  1.026395  0
H  H17  1  0.16888987  0.20796257  0.37722339  1  0  0.106296  0  0.958231  0  0  0.114409  0  1.02445  0  0  0.118325  0  1.021391  0  0  0.104667  0.111601  0  1.026493  0
H  H18  1  0.04462996  0.65795486  0.86294873  1  0  0.07941  0  0.953261  0  0  0.08454  0  1.023805  0  0  0.086711  0  1.022112  0  0  0.11721  0.082845  0  1.02512  0
H  H19  1  0.95537004  0.34204218  0.13704402  1  0  0.079389  0  0.953243  0  0  0.084511  0  1.023788  0  0  0.086684  0  1.022096  0  0  0.117192  0.082818  0  1.025103  0
H  H20  1  0.49271797  0.78975042  0.92740515  1  0  0.07957  0  0.951616  0  0  0.088303  0  1.015773  0  0  0.089675  0  1.015125  0  0  0.117906  0.08722  0  1.016261  0
H  H21  1  0.50728478  0.21024842  0.07259673  1  0  0.079573  0  0.951628  0  0  0.088284  0  1.015814  0  0  0.089659  0  1.015165  0  0  0.11791  0.087202  0  1.016302  0
H  H22  1  0.72089437  0.65178600  0.43796322  1  0  0.082318  0  0.979626  0  0  0.09045  0  1.049213  0  0  0.092909  0  1.048864  0  0  0.09213  0.088731  0  1.049449  0
H  H23  1  0.27911101  0.34821659  0.56203529  1  0  0.082287  0  0.979617  0  0  0.090412  0  1.049221  0  0  0.092871  0  1.048871  0  0  0.092107  0.088691  0  1.04946  0
H  H24  1  0.49784940  0.57762796  0.91959776  1  0  0.107427  0  0.950632  0  0  0.118689  0  1.009268  0  0  0.121328  0  1.009771  0  0  0.109312  0.116477  0  1.00968  0
H  H25  1  0.50214994  0.42236527  0.08040642  1  0  0.107384  0  0.950625  0  0  0.118652  0  1.009264  0  0  0.12129  0  1.009767  0  0  0.109277  0.116439  0  1.009678  0
H  H26  1  0.40116588  0.84987177  0.32277802  1  0  0.095663  0  0.955869  0  0  0.105178  0  1.019926  0  0  0.107524  0  1.019738  0  0  0.100181  0.103442  0  1.020218  0
H  H27  1  0.59884172  0.15013363  0.67721836  1  0  0.095644  0  0.955942  0  0  0.105168  0  1.019967  0  0  0.107536  0  1.019766  0  0  0.100156  0.103416  0  1.020268  0
H  H28  1  0.67559003  0.00614639  0.45651302  1  0  0.083744  0  0.95577  0  0  0.095022  0  1.019034  0  0  0.097617  0  1.01807  0  0  0.094883  0.093006  0  1.01994  0
H  H29  1  0.32441628  0.99385611  0.54349693  1  0  0.083791  0  0.955713  0  0  0.09506  0  1.018978  0  0  0.097648  0  1.018027  0  0  0.094906  0.093028  0  1.019899  0
H  H30  1  0.18487873  0.75703884  0.44568933  1  0  0.08554  0  0.957862  0  0  0.09763  0  1.018108  0  0  0.100475  0  1.017125  0  0  0.097379  0.095815  0  1.018489  0
H  H31  1  0.81512118  0.24296745  0.55430452  1  0  0.085621  0  0.957778  0  0  0.097734  0  1.017985  0  0  0.100579  0  1.017002  0  0  0.097414  0.09592  0  1.018367  0
H  H32  1  0.44051979  0.57863304  0.60539097  1  0  0.082837  0  0.961097  0  0  0.0932  0  1.02476  0  0  0.095728  0  1.024237  0  0  0.094387  0.09129  0  1.025286  0
H  H33  1  0.55947716  0.42136396  0.39460269  1  0  0.082926  0  0.961068  0  0  0.093289  0  1.024714  0  0  0.095816  0  1.024192  0  0  0.094446  0.09138  0  1.025239  0
H  H34  1  0.86500423  0.07270020  0.36885533  1  0  0.103879  0  0.965263  0  0  0.1135  0  1.027255  0  0  0.11656  0  1.025608  0  0  0.101836  0.111159  0  1.028698  0
H  H35  1  0.13500525  0.92730974  0.63115462  1  0  0.103829  0  0.96535  0  0  0.11352  0  1.027282  0  0  0.116578  0  1.025633  0  0  0.10181  0.11118  0  1.028724  0
H  H36  1  0.91669564  0.72120264  0.35698452  1  0  0.077602  0  0.957458  0  0  0.091387  0  1.014558  0  0  0.093918  0  1.013646  0  0  0.094436  0.08975  0  1.014891  0
H  H37  1  0.08330568  0.27879990  0.64301475  1  0  0.077635  0  0.957449  0  0  0.091407  0  1.01456  0  0  0.093937  0  1.013649  0  0  0.094448  0.089772  0  1.014892  0
H  H38  1  0.33102976  0.47850358  0.36058488  1  0  0.091582  0  0.9484  0  0  0.104061  0  1.007496  0  0  0.106819  0  1.006531  0  0  0.100122  0.10205  0  1.008271  0
H  H39  1  0.66897232  0.52150547  0.63941319  1  0  0.091568  0  0.94844  0  0  0.104027  0  1.007554  0  0  0.106781  0  1.006593  0  0  0.100105  0.102003  0  1.008344  0
H  H40  1  0.25648899  0.50993421  0.69589293  1  0  0.070805  0  0.982347  0  0  0.081924  0  1.045184  0  0  0.083842  0  1.045753  0  0  0.0892  0.080664  0  1.044777  0
H  H41  1  0.74350954  0.49006650  0.30410144  1  0  0.070893  0  0.982419  0  0  0.082006  0  1.045246  0  0  0.083924  0  1.045817  0  0  0.089246  0.080746  0  1.044839  0
H  H42  1  0.99075475  0.93348151  0.32325975  1  0  0.084374  0  0.954445  0  0  0.09621  0  1.013205  0  0  0.098336  0  1.013534  0  0  0.095697  0.094609  0  1.013067  0
H  H43  1  0.00924935  0.06652287  0.67674513  1  0  0.084362  0  0.954392  0  0  0.096236  0  1.013132  0  0  0.098361  0  1.013453  0  0  0.095704  0.094635  0  1.012997  0
H  H44  1  0.29021656  0.76758611  0.14025406  1  0  0.095179  0  0.959055  0  0  0.107051  0  1.016152  0  0  0.109594  0  1.015453  0  0  0.0989  0.105236  0  1.016641  0
H  H45  1  0.70978542  0.23241556  0.85973956  1  0  0.095264  0  0.958922  0  0  0.107069  0  1.016085  0  0  0.109615  0  1.015387  0  0  0.09893  0.105255  0  1.016576  0
H  H46  1  0.00601631  0.69557983  0.54119278  1  0  0.087238  0  0.956734  0  0  0.098494  0  1.017798  0  0  0.100843  0  1.017069  0  0  0.100958  0.096826  0  1.01829  0
H  H47  1  0.99398358  0.30442644  0.45880319  1  0  0.087269  0  0.956682  0  0  0.098501  0  1.017761  0  0  0.100851  0  1.01703  0  0  0.100959  0.096834  0  1.018254  0
H  H48  1  0.23012286  0.39633052  0.17794332  1  0  0.086228  0  0.958345  0  0  0.09756  0  1.018159  0  0  0.099912  0  1.017781  0  0  0.096665  0.095777  0  1.018694  0
H  H49  1  0.76987202  0.60366642  0.82205565  1  0  0.086218  0  0.958426  0  0  0.097527  0  1.018262  0  0  0.099877  0  1.017887  0  0  0.09666  0.095743  0  1.018797  0
H  H50  1  0.03922915  0.57022865  0.66525301  1  0  0.080637  0  0.95613  0  0  0.092715  0  1.015876  0  0  0.095066  0  1.015647  0  0  0.095498  0.091012  0  1.016054  0
H  H51  1  0.96077504  0.42977582  0.33474060  1  0  0.080668  0  0.956029  0  0  0.092687  0  1.015833  0  0  0.095036  0  1.015611  0  0  0.09546  0.090984  0  1.016016  0
H  H52  1  0.20610495  0.54127457  0.06714660  1  0  0.068223  0  0.999626  0  0  0.077476  0  1.067497  0  0  0.079355  0  1.068401  0  0  0.085777  0.076123  0  1.067059  0
H  H53  1  0.79389098  0.45872241  0.93284901  1  0  0.068204  0  0.999655  0  0  0.077465  0  1.067504  0  0  0.079312  0  1.068435  0  0  0.085789  0.076112  0  1.067066  0
C  C54  1  0.26214009  0.36445772  0.88931319  1  0  0.084223  0  3.781548  0  0  0.094298  0  4.015509  0  0  0.098261  0  4.036278  0  0  0.010243  0.091884  0  4.001242  0
C  C55  1  0.73785603  0.63553739  0.11068505  1  0  0.08417  0  3.781632  0  0  0.094296  0  4.015562  0  0  0.098261  0  4.036329  0  0  0.01015  0.091882  0  4.001296  0
C  C56  1  0.16555867  0.28518867  0.93020141  1  0  -0.156134  0  3.696182  0  0  -0.171271  0  3.937243  0  0  -0.179075  0  3.958483  0  0  -0.080941  -0.166271  0  3.923211  0
C  C57  1  0.83443541  0.71480640  0.06979862  1  0  -0.156172  0  3.696285  0  0  -0.171295  0  3.937349  0  0  -0.179096  0  3.958583  0  0  -0.08098  -0.1663  0  3.923318  0
C  C58  1  0.97516834  0.86222678  0.81636741  1  0  0.606277  0  3.971323  0  0  0.559525  0  4.261187  0  0  0.593078  0  4.256548  0  0  0.181905  0.536756  0  4.26307  0
C  C59  1  0.02483524  0.13776928  0.18363426  1  0  0.606252  0  3.971474  0  0  0.55951  0  4.261326  0  0  0.59306  0  4.256687  0  0  0.181929  0.536743  0  4.263211  0
C  C60  1  0.62862850  0.92928682  0.78090051  1  0  -0.077433  0  3.791494  0  0  -0.048612  0  4.023951  0  0  -0.058867  0  4.047937  0  0  -0.025696  -0.04218  0  4.008532  0
C  C61  1  0.37137244  0.07071015  0.21910155  1  0  -0.077439  0  3.791579  0  0  -0.048618  0  4.024019  0  0  -0.058869  0  4.048009  0  0  -0.025698  -0.042187  0  4.0086  0
C  C62  1  0.54760539  0.97816124  0.84244109  1  0  0.648635  0  3.937645  0  0  0.595914  0  4.234248  0  0  0.631354  0  4.225692  0  0  0.198941  0.571545  0  4.239298  0
C  C63  1  0.45239718  0.02183480  0.15756182  1  0  0.648346  0  3.937723  0  0  0.595645  0  4.234316  0  0  0.631083  0  4.225766  0  0  0.198831  0.571277  0  4.239365  0
C  C64  1  0.35909721  0.32149984  0.85287509  1  0  -0.154068  0  3.706317  0  0  -0.172847  0  3.956614  0  0  -0.180262  0  3.977843  0  0  -0.078642  -0.168077  0  3.942468  0
C  C65  1  0.64090069  0.67849709  0.14712790  1  0  -0.154147  0  3.706053  0  0  -0.17289  0  3.956308  0  0  -0.180317  0  3.977548  0  0  -0.078623  -0.168122  0  3.942164  0
C  C66  1  0.26328007  0.49014424  0.88778294  1  0  0.092027  0  3.772398  0  0  0.102366  0  4.006587  0  0  0.106734  0  4.025983  0  0  0.013419  0.099509  0  3.993372  0
C  C67  1  0.73671620  0.50985362  0.11221848  1  0  0.092173  0  3.772383  0  0  0.102379  0  4.006747  0  0  0.10675  0  4.026136  0  0  0.013441  0.099522  0  3.993528  0
C  C68  1  0.56647917  0.88453835  0.67798669  1  0  -0.092476  0  3.684414  0  0  -0.126395  0  3.929032  0  0  -0.123633  0  3.946591  0  0  -0.076415  -0.127395  0  3.916709  0
C  C69  1  0.43352094  0.11546139  0.32201487  1  0  -0.092382  0  3.684485  0  0  -0.126286  0  3.929112  0  0  -0.123525  0  3.946677  0  0  -0.076379  -0.127284  0  3.916785  0
C  C70  1  0.35661615  0.20377688  0.85953383  1  0  0.136079  0  3.709519  0  0  0.104392  0  3.963318  0  0  0.111969  0  3.982029  0  0  0.050621  0.099469  0  3.950634  0
C  C71  1  0.64338152  0.79622189  0.14047075  1  0  0.136015  0  3.709184  0  0  0.104263  0  3.963002  0  0  0.111839  0  3.981715  0  0  0.050561  0.099344  0  3.950315  0
C  C72  1  0.83111185  0.86839125  0.76923306  1  0  -0.063233  0  3.79114  0  0  -0.035812  0  4.024352  0  0  -0.045173  0  4.047674  0  0  -0.02377  -0.029961  0  4.009116  0
C  C73  1  0.16888646  0.13160196  0.23077166  1  0  -0.063176  0  3.791245  0  0  -0.035771  0  4.024458  0  0  -0.045128  0  4.047773  0  0  -0.023746  -0.02992  0  4.009221  0
C  C74  1  0.76113229  0.92143866  0.82661245  1  0  -0.082126  0  3.712969  0  0  -0.11859  0  3.955845  0  0  -0.115562  0  3.975123  0  0  -0.085295  -0.121022  0  3.943983  0
C  C75  1  0.23886644  0.07855550  0.17339033  1  0  -0.082044  0  3.712884  0  0  -0.118482  0  3.955779  0  0  -0.115456  0  3.975055  0  0  -0.08526  -0.120923  0  3.943923  0
C  C76  1  0.63709601  0.83391840  0.61893839  1  0  0.054131  0  3.789241  0  0  0.072195  0  4.028144  0  0  0.069573  0  4.051979  0  0  -0.007893  0.07374  0  4.011461  0
C  C77  1  0.36289808  0.16607668  0.38106093  1  0  0.054147  0  3.789477  0  0  0.072191  0  4.028376  0  0  0.069566  0  4.052206  0  0  -0.007902  0.073734  0  4.01169  0
C  C78  1  0.13429351  0.51394782  0.87144597  1  0  -0.164929  0  3.702487  0  0  -0.180319  0  3.946714  0  0  -0.187567  0  3.966393  0  0  -0.07936  -0.175775  0  3.934122  0
C  C79  1  0.86570117  0.48605098  0.12855108  1  0  -0.164979  0  3.70236  0  0  -0.18033  0  3.94661  0  0  -0.187582  0  3.966289  0  0  -0.079359  -0.175785  0  3.934018  0
C  C80  1  0.43403398  0.71517205  0.46399045  1  0  -0.037075  0  3.720219  0  0  -0.039402  0  3.967574  0  0  -0.039451  0  3.989208  0  0  -0.007674  -0.039289  0  3.952898  0
C  C81  1  0.56596289  0.28483421  0.53600362  1  0  -0.037343  0  3.720345  0  0  -0.039712  0  3.96766  0  0  -0.039761  0  3.98929  0  0  -0.007782  -0.039598  0  3.952981  0
C  C82  1  0.57579935  0.78745444  0.50924006  1  0  -0.029172  0  3.715286  0  0  -0.028447  0  3.958307  0  0  -0.028553  0  3.98037  0  0  -0.004438  -0.028445  0  3.943409  0
C  C83  1  0.42419692  0.21254809  0.49075629  1  0  -0.029114  0  3.715402  0  0  -0.02835  0  3.958377  0  0  -0.02845  0  3.980433  0  0  -0.004414  -0.028349  0  3.943475  0
C  C84  1  0.32539050  0.67253282  0.51935762  1  0  0.051508  0  3.815405  0  0  0.070203  0  4.045849  0  0  0.069052  0  4.071817  0  0  -0.011204  0.070717  0  4.028449  0
C  C85  1  0.67460860  0.32747159  0.48063869  1  0  0.051751  0  3.815262  0  0  0.070438  0  4.04569  0  0  0.069289  0  4.071647  0  0  -0.011146  0.070948  0  4.028297  0
C  C86  1  0.17116777  0.16935132  0.93530130  1  0  0.129882  0  3.693157  0  0  0.099263  0  3.942273  0  0  0.10592  0  3.961881  0  0  0.047346  0.094796  0  3.92925  0
C  C87  1  0.82882733  0.83064377  0.06469748  1  0  0.129981  0  3.693255  0  0  0.099319  0  3.942358  0  0  0.105979  0  3.961961  0  0  0.047435  0.09486  0  3.929327  0
C  C88  1  0.77089776  0.82805451  0.66596238  1  0  -0.100994  0  3.67693  0  0  -0.134517  0  3.921983  0  0  -0.132146  0  3.938943  0  0  -0.078667  -0.134873  0  3.909862  0
C  C89  1  0.22909652  0.17193869  0.33403957  1  0  -0.101037  0  3.677095  0  0  -0.134526  0  3.922161  0  0  -0.132139  0  3.93912  0  0  -0.078695  -0.134882  0  3.910038  0
C  C90  1  0.14204594  0.63527459  0.87608160  1  0  0.138942  0  3.709541  0  0  0.108046  0  3.960999  0  0  0.1154  0  3.979187  0  0  0.055583  0.103163  0  3.948804  0
C  C91  1  0.85795201  0.36472240  0.12391434  1  0  0.138949  0  3.709468  0  0  0.108088  0  3.960899  0  0  0.115436  0  3.979093  0  0  0.055636  0.103203  0  3.948707  0
C  C92  1  0.37500670  0.66995864  0.35389165  1  0  0.063228  0  3.7926  0  0  0.080903  0  4.024884  0  0  0.080547  0  4.050037  0  0  -0.005998  0.081373  0  4.007644  0
C  C93  1  0.62499421  0.33004764  0.64610377  1  0  0.063282  0  3.792502  0  0  0.081102  0  4.024561  0  0  0.080752  0  4.049708  0  0  -0.005946  0.081572  0  4.007311  0
C  C94  1  0.39238969  0.70918791  0.91065203  1  0  0.150223  0  3.693409  0  0  0.118754  0  3.943721  0  0  0.126295  0  3.962721  0  0  0.058246  0.113787  0  3.930693  0
C  C95  1  0.60761164  0.29080997  0.08935091  1  0  0.150292  0  3.693472  0  0  0.118834  0  3.943806  0  0  0.126372  0  3.962807  0  0  0.058303  0.113867  0  3.930776  0
C  C96  1  0.68465739  0.82421072  0.45252825  1  0  0.050226  0  3.81367  0  0  0.070563  0  4.040404  0  0  0.069606  0  4.066586  0  0  -0.01261  0.071108  0  4.022795  0
C  C97  1  0.31534249  0.17579086  0.54747420  1  0  0.050181  0  3.813853  0  0  0.070463  0  4.04064  0  0  0.069505  0  4.06682  0  0  -0.01269  0.07101  0  4.023023  0
C  C98  1  0.75301036  0.74447436  0.42344060  1  0  -0.131816  0  3.762928  0  0  -0.149985  0  4.007868  0  0  -0.153444  0  4.029808  0  0  -0.09802  -0.147782  0  3.993211  0
C  C99  1  0.24699055  0.25552724  0.57656061  1  0  -0.131744  0  3.762949  0  0  -0.149893  0  4.007893  0  0  -0.153355  0  4.029841  0  0  -0.097938  -0.147691  0  3.993234  0
C  C100  1  0.39449727  0.59070536  0.90618483  1  0  -0.15632  0  3.696344  0  0  -0.173896  0  3.942451  0  0  -0.180963  0  3.96244  0  0  -0.07828  -0.169241  0  3.929326  0
C  C101  1  0.60550403  0.40929249  0.09382164  1  0  -0.15637  0  3.696437  0  0  -0.173914  0  3.942585  0  0  -0.180979  0  3.962571  0  0  -0.078286  -0.169257  0  3.929461  0
C  C102  1  0.36270376  0.75050659  0.29094711  1  0  -0.109277  0  3.723562  0  0  -0.127983  0  3.964944  0  0  -0.130616  0  3.986365  0  0  -0.086942  -0.126244  0  3.950312  0
C  C103  1  0.63729409  0.24949965  0.70904994  1  0  -0.109351  0  3.723494  0  0  -0.128093  0  3.964811  0  0  -0.130754  0  3.986222  0  0  -0.086933  -0.126337  0  3.950195  0
C  C104  1  0.72783386  0.94327167  0.43376655  1  0  -0.115023  0  3.734852  0  0  -0.134729  0  3.980173  0  0  -0.138088  0  4.002092  0  0  -0.091419  -0.132139  0  3.965113  0
C  C105  1  0.27217085  0.05673178  0.56623902  1  0  -0.115061  0  3.734852  0  0  -0.134726  0  3.980199  0  0  -0.138081  0  4.00211  0  0  -0.091394  -0.132122  0  3.965144  0
C  C106  1  0.20088414  0.70324923  0.50108830  1  0  -0.121963  0  3.740563  0  0  -0.141296  0  3.985105  0  0  -0.144632  0  4.006728  0  0  -0.091204  -0.139066  0  3.970417  0
C  C107  1  0.79911480  0.29675242  0.49890484  1  0  -0.122128  0  3.740604  0  0  -0.141484  0  3.985158  0  0  -0.14482  0  4.00678  0  0  -0.091251  -0.139254  0  3.970471  0
C  C108  1  0.34401956  0.60268841  0.59025510  1  0  -0.122796  0  3.762187  0  0  -0.139071  0  4.002437  0  0  -0.142322  0  4.024532  0  0  -0.096301  -0.13659  0  3.987258  0
C  C109  1  0.65598193  0.39731690  0.40974524  1  0  -0.12301  0  3.762276  0  0  -0.139296  0  4.002555  0  0  -0.142546  0  4.024648  0  0  -0.096376  -0.136814  0  3.987376  0
C  C110  1  0.83573689  0.98170678  0.38618010  1  0  -0.050906  0  3.742079  0  0  -0.064331  0  3.990508  0  0  -0.065504  0  4.011672  0  0  -0.088472  -0.063566  0  3.976127  0
C  C111  1  0.16427606  0.01829945  0.61383277  1  0  -0.050797  0  3.741977  0  0  -0.064314  0  3.990454  0  0  -0.065482  0  4.011616  0  0  -0.088427  -0.063548  0  3.976068  0
C  C112  1  0.86352111  0.78399794  0.37794991  1  0  -0.081888  0  3.814596  0  0  -0.093179  0  4.063558  0  0  -0.094864  0  4.085674  0  0  -0.10079  -0.091869  0  4.048264  0
C  C113  1  0.13648220  0.21600458  0.62205461  1  0  -0.081941  0  3.814583  0  0  -0.093218  0  4.063546  0  0  -0.094904  0  4.085662  0  0  -0.100812  -0.091909  0  4.048253  0
C  C114  1  0.32403287  0.54193695  0.31193112  1  0  -0.110698  0  3.733575  0  0  -0.129867  0  3.975074  0  0  -0.1325  0  3.996109  0  0  -0.091239  -0.128249  0  3.960967  0
C  C115  1  0.67596904  0.45806933  0.68806588  1  0  -0.110643  0  3.733591  0  0  -0.129828  0  3.975018  0  0  -0.13246  0  3.996054  0  0  -0.091255  -0.128199  0  3.960913  0
C  C116  1  0.24103149  0.56536953  0.64188791  1  0  -0.07235  0  3.796034  0  0  -0.082937  0  4.042732  0  0  -0.085005  0  4.065569  0  0  -0.096  -0.081461  0  4.026893  0
C  C117  1  0.75897266  0.43463491  0.35810993  1  0  -0.072451  0  3.796056  0  0  -0.083032  0  4.042728  0  0  -0.085101  0  4.065565  0  0  -0.09608  -0.081555  0  4.026887  0
C  C118  1  0.90515287  0.90249878  0.35926875  1  0  -0.069966  0  3.768364  0  0  -0.085019  0  4.016939  0  0  -0.087352  0  4.039337  0  0  -0.095854  -0.083126  0  4.0015  0
C  C119  1  0.09485767  0.09750654  0.64074081  1  0  -0.069999  0  3.7683  0  0  -0.085085  0  4.016914  0  0  -0.087413  0  4.039318  0  0  -0.095903  -0.083193  0  4.001477  0
C  C120  1  0.30045364  0.70410543  0.18832671  1  0  -0.079448  0  3.782861  0  0  -0.088972  0  4.026646  0  0  -0.090567  0  4.047308  0  0  -0.098569  -0.087356  0  4.012025  0
C  C121  1  0.69954607  0.29589806  0.81166959  1  0  -0.079475  0  3.782797  0  0  -0.088955  0  4.026603  0  0  -0.090556  0  4.047269  0  0  -0.098594  -0.087341  0  4.011979  0
C  C122  1  0.10019221  0.66859084  0.55456144  1  0  -0.049632  0  3.764397  0  0  -0.060904  0  4.010958  0  0  -0.061983  0  4.032153  0  0  -0.086766  -0.060143  0  3.996414  0
C  C123  1  0.89980569  0.33141077  0.44543575  1  0  -0.049643  0  3.764595  0  0  -0.060892  0  4.011151  0  0  -0.06197  0  4.032345  0  0  -0.086786  -0.060132  0  3.996606  0
C  C124  1  0.26574310  0.49572241  0.20926352  1  0  -0.086837  0  3.808536  0  0  -0.096741  0  4.054797  0  0  -0.098511  0  4.076122  0  0  -0.100841  -0.09531  0  4.040586  0
C  C125  1  0.73425642  0.50427828  0.79073453  1  0  -0.086857  0  3.808552  0  0  -0.096749  0  4.054822  0  0  -0.098519  0  4.07614  0  0  -0.100809  -0.095317  0  4.040605  0
C  C126  1  0.11954291  0.59885060  0.62482082  1  0  -0.05495  0  3.758075  0  0  -0.071839  0  4.006387  0  0  -0.07342  0  4.027759  0  0  -0.089647  -0.070427  0  3.991452  0
C  C127  1  0.88046569  0.40115479  0.37517855  1  0  -0.05494  0  3.757986  0  0  -0.07177  0  4.006249  0  0  -0.073351  0  4.027616  0  0  -0.089596  -0.070361  0  3.991317  0
C  C128  1  0.25295757  0.57687258  0.14732402  1  0  -0.09525  0  3.813967  0  0  -0.108687  0  4.063179  0  0  -0.110652  0  4.084891  0  0  -0.106501  -0.107306  0  4.04834  0
C  C129  1  0.74704337  0.42312905  0.85267367  1  0  -0.095192  0  3.813972  0  0  -0.108626  0  4.063161  0  0  -0.110563  0  4.084885  0  0  -0.106513  -0.107245  0  4.048322  0
N  N130  1  0.26883011  0.73129785  0.89661752  1  0  -0.315549  0  3.242966  0  0  -0.237051  0  3.502341  0  0  -0.257144  0  3.520969  0  0  -0.321728  -0.223391  0  3.489514  0
N  N131  1  0.73116884  0.26869914  0.10337999  1  0  -0.315572  0  3.243149  0  0  -0.23709  0  3.502508  0  0  -0.25718  0  3.521135  0  0  -0.321759  -0.223429  0  3.489682  0
N  N132  1  0.26608664  0.12979603  0.90115409  1  0  -0.335279  0  3.252262  0  0  -0.255422  0  3.514603  0  0  -0.276787  0  3.534392  0  0  -0.323554  -0.241022  0  3.501231  0
N  N133  1  0.73391165  0.87020184  0.09884836  1  0  -0.335344  0  3.2522  0  0  -0.255485  0  3.514608  0  0  -0.276852  0  3.534397  0  0  -0.323573  -0.241085  0  3.501231  0
O  O134  1  0.02018714  0.88384616  0.91160154  1  0  -0.660488  0  1.940985  0  0  -0.600923  0  2.182534  0  0  -0.628658  0  2.172111  0  0  -0.341805  -0.5803  0  2.188243  0
O  O135  1  0.97981842  0.11615454  0.08840241  1  0  -0.660507  0  1.941081  0  0  -0.600919  0  2.182585  0  0  -0.628649  0  2.17216  0  0  -0.341798  -0.580297  0  2.188298  0
O  O136  1  0.41516752  0.95776962  0.79887610  1  0  -0.624256  0  2.000392  0  0  -0.556527  0  2.250274  0  0  -0.584695  0  2.239282  0  0  -0.323211  -0.535788  0  2.257973  0
O  O137  1  0.58483759  0.04223476  0.20112964  1  0  -0.624153  0  2.000421  0  0  -0.55645  0  2.250311  0  0  -0.584619  0  2.239323  0  0  -0.323155  -0.535703  0  2.257993  0
O  O138  1  0.05047421  0.84098909  0.76015153  1  0  -0.625223  0  1.948585  0  0  -0.567665  0  2.185781  0  0  -0.594621  0  2.177767  0  0  -0.325536  -0.547205  0  2.190687  0
O  O139  1  0.94952999  0.15900606  0.23985012  1  0  -0.625269  0  1.948625  0  0  -0.567674  0  2.185741  0  0  -0.594646  0  2.177771  0  0  -0.325598  -0.547214  0  2.19065  0
O  O140  1  0.61061114  0.03399908  0.93324087  1  0  -0.694432  0  2.056644  0  0  -0.633837  0  2.33585  0  0  -0.661174  0  2.31958  0  0  -0.350758  -0.613409  0  2.345705  0
O  O141  1  0.38938520  0.96598950  0.06676296  1  0  -0.694279  0  2.056556  0  0  -0.633703  0  2.335774  0  0  -0.661041  0  2.319511  0  0  -0.350731  -0.613276  0  2.345626  0
