# generated using pymatgen
data_GdH18C18(NO2)4
_symmetry_space_group_name_H-M   'P 1'
_cell_length_a   9.91554556
_cell_length_b   10.31815917
_cell_length_c   11.00404187
_cell_angle_alpha   77.74432998
_cell_angle_beta   76.65637231
_cell_angle_gamma   65.87730627
_symmetry_Int_Tables_number   1
_chemical_formula_structural   GdH18C18(NO2)4
_chemical_formula_sum   'Gd2 H36 C36 N8 O16'
_cell_volume   990.91224147
_cell_formula_units_Z   2
loop_
 _symmetry_equiv_pos_site_id
 _symmetry_equiv_pos_as_xyz
  1  'x, y, z'
loop_
 _atom_site_type_symbol
 _atom_site_label
 _atom_site_symmetry_multiplicity
 _atom_site_fract_x
 _atom_site_fract_y
 _atom_site_fract_z
 _atom_site_occupancy
 _atom_site_hle17_bader_spin_density
 _atom_site_hle17_ddec_charge
 _atom_site_hle17_ddec_spin_density
 _atom_site_hle17_ddec_sum_bond_order
 _atom_site_hle17_magmom
 _atom_site_hse06_10hf_bader_spin_density
 _atom_site_hse06_10hf_ddec_charge
 _atom_site_hse06_10hf_ddec_spin_density
 _atom_site_hse06_10hf_ddec_sum_bond_order
 _atom_site_hse06_10hf_magmom
 _atom_site_hse06_bader_spin_density
 _atom_site_hse06_ddec_charge
 _atom_site_hse06_ddec_spin_density
 _atom_site_hse06_ddec_sum_bond_order
 _atom_site_hse06_magmom
 _atom_site_pbe_bader_spin_density
 _atom_site_pbe_cm5_charge
 _atom_site_pbe_ddec_charge
 _atom_site_pbe_ddec_spin_density
 _atom_site_pbe_ddec_sum_bond_order
 _atom_site_pbe_magmom
Gd  Gd0  1  0.05595427  0.77297625  0.17627834  1  0  2.159463  0  1.831591  0  0  2.062207  0  2.216929  0  0  2.12203  0  2.150584  0  0  1.484906  2.015018  0  2.271783  0
Gd  Gd1  1  0.94404460  0.22702421  0.82372063  1  0  2.159429  0  1.831655  0  0  2.062136  0  2.217043  0  0  2.121978  0  2.150665  0  0  1.484895  2.014976  0  2.271847  0
H  H2  1  0.33724382  0.15078979  0.84055948  1  0  0.106588  0  0.973524  0  0  0.114166  0  1.037788  0  0  0.117724  0  1.035728  0  0  0.107816  0.111446  0  1.039563  0
H  H3  1  0.66275567  0.84921174  0.15943824  1  0  0.106559  0  0.973559  0  0  0.114184  0  1.037775  0  0  0.117743  0  1.035715  0  0  0.107815  0.111464  0  1.03955  0
H  H4  1  0.39370603  0.87282649  0.19113283  1  0  0.103052  0  0.957247  0  0  0.109976  0  1.023122  0  0  0.113701  0  1.020761  0  0  0.105783  0.107108  0  1.025215  0
H  H5  1  0.60629388  0.12717398  0.80886593  1  0  0.103017  0  0.957254  0  0  0.10994  0  1.023134  0  0  0.113665  0  1.020773  0  0  0.105775  0.107073  0  1.025227  0
H  H6  1  0.56580495  0.58980890  0.27521049  1  0  0.105697  0  0.931916  0  0  0.119777  0  0.982818  0  0  0.123506  0  0.98056  0  0  0.10993  0.117087  0  0.984516  0
H  H7  1  0.43419392  0.41019157  0.72478849  1  0  0.105664  0  0.931892  0  0  0.11972  0  0.982819  0  0  0.123465  0  0.98054  0  0  0.109888  0.117031  0  0.984516  0
H  H8  1  0.24512818  0.49558949  0.58027274  1  0  0.113925  0  0.95606  0  0  0.118901  0  1.024051  0  0  0.12308  0  1.02131  0  0  0.108869  0.115878  0  1.026327  0
H  H9  1  0.75487173  0.50441097  0.41972511  1  0  0.113933  0  0.956062  0  0  0.118904  0  1.024056  0  0  0.123087  0  1.021314  0  0  0.108866  0.115881  0  1.026332  0
H  H10  1  0.70388882  0.08332291  0.49641097  1  0  0.107134  0  0.930998  0  0  0.119691  0  0.98383  0  0  0.12348  0  0.981525  0  0  0.110972  0.117058  0  0.985486  0
H  H11  1  0.29611005  0.91667756  0.50358801  1  0  0.107107  0  0.930983  0  0  0.119659  0  0.983825  0  0  0.123448  0  0.981519  0  0  0.11096  0.117024  0  0.985481  0
H  H12  1  0.55258336  0.79797978  0.38423271  1  0  0.095975  0  0.97541  0  0  0.105043  0  1.040112  0  0  0.107385  0  1.03997  0  0  0.102724  0.103092  0  1.040853  0
H  H13  1  0.44741466  0.20202284  0.61576692  1  0  0.095967  0  0.975387  0  0  0.105026  0  1.040102  0  0  0.107366  0  1.039962  0  0  0.102723  0.103076  0  1.040841  0
H  H14  1  0.53499948  0.86048585  0.73380838  1  0  0.051634  0  0.962677  0  0  0.064308  0  1.031586  0  0  0.063218  0  1.035038  0  0  0.094937  0.064235  0  1.030528  0
H  H15  1  0.46500085  0.13951355  0.26619141  1  0  0.051629  0  0.962685  0  0  0.064312  0  1.031592  0  0  0.063222  0  1.035045  0  0  0.094936  0.064239  0  1.030534  0
H  H16  1  0.58039070  0.69415351  0.68074586  1  0  0.055215  0  0.941371  0  0  0.068767  0  1.005422  0  0  0.068367  0  1.007054  0  0  0.09525  0.068761  0  1.004465  0
H  H17  1  0.41960963  0.30584588  0.31925303  1  0  0.055221  0  0.941385  0  0  0.068768  0  1.005442  0  0  0.068368  0  1.007074  0  0  0.095249  0.068763  0  1.004484  0
H  H18  1  0.67182152  0.56846685  0.87066655  1  0  0.065869  0  0.96104  0  0  0.074049  0  1.032117  0  0  0.075107  0  1.031672  0  0  0.103349  0.072985  0  1.032726  0
H  H19  1  0.32817735  0.43153362  0.12933242  1  0  0.065872  0  0.961026  0  0  0.074066  0  1.03209  0  0  0.075125  0  1.03164  0  0  0.103354  0.073002  0  1.032697  0
H  H20  1  0.63683360  0.73503156  0.91878278  1  0  0.060877  0  0.942596  0  0  0.074337  0  1.005999  0  0  0.074203  0  1.007655  0  0  0.098477  0.074464  0  1.004586  0
H  H21  1  0.36316716  0.26496676  0.08121534  1  0  0.06086  0  0.942638  0  0  0.074322  0  1.006042  0  0  0.074187  0  1.007699  0  0  0.098486  0.074449  0  1.004628  0
H  H22  1  0.98132290  0.25679737  0.45009693  1  0  0.086914  0  0.944443  0  0  0.101375  0  1.003981  0  0  0.102549  0  1.003778  0  0  0.110751  0.100414  0  1.004228  0
H  H23  1  0.01867823  0.74320528  0.54990658  1  0  0.086922  0  0.944383  0  0  0.101352  0  1.003945  0  0  0.102531  0  1.003726  0  0  0.110715  0.100391  0  1.004192  0
H  H24  1  0.15731986  0.18655779  0.34960076  1  0  0.05234  0  0.922362  0  0  0.069709  0  0.982398  0  0  0.069771  0  0.983285  0  0  0.096784  0.069326  0  0.982219  0
H  H25  1  0.84268065  0.81344380  0.65040492  1  0  0.052395  0  0.922352  0  0  0.069764  0  0.982371  0  0  0.069782  0  0.983309  0  0  0.096784  0.069377  0  0.982195  0
H  H26  1  0.00468547  0.14950995  0.22771957  1  0  0.095756  0  0.954047  0  0  0.111075  0  1.010187  0  0  0.112595  0  1.009576  0  0  0.114455  0.109798  0  1.010795  0
H  H27  1  0.99531674  0.85048735  0.77228571  1  0  0.09583  0  0.953919  0  0  0.111064  0  1.010136  0  0  0.112584  0  1.009524  0  0  0.114477  0.109787  0  1.010745  0
H  H28  1  0.84144772  0.29425306  0.28357195  1  0  0.053363  0  0.94176  0  0  0.064882  0  1.012243  0  0  0.065196  0  1.012551  0  0  0.096396  0.064654  0  1.012061  0
H  H29  1  0.15855552  0.70574423  0.71643221  1  0  0.053352  0  0.941737  0  0  0.06486  0  1.012197  0  0  0.065173  0  1.012506  0  0  0.096378  0.064636  0  1.012011  0
H  H30  1  0.44765495  0.63337875  0.06388206  1  0  0.325977  0  0.911869  0  0  0.310128  0  0.969375  0  0  0.318101  0  0.96259  0  0  0.318547  0.304514  0  0.97414  0
H  H31  1  0.55234580  0.36661958  0.93611787  1  0  0.325975  0  0.911859  0  0  0.31013  0  0.969364  0  0  0.318103  0  0.96258  0  0  0.318551  0.304522  0  0.974128  0
H  H32  1  0.28455306  0.85422409  0.74727026  1  0  0.306821  0  0.908211  0  0  0.29014  0  0.972312  0  0  0.297039  0  0.967374  0  0  0.312407  0.285267  0  0.975856  0
H  H33  1  0.71544685  0.14577639  0.25273031  1  0  0.306793  0  0.908211  0  0  0.290118  0  0.972311  0  0  0.297017  0  0.967375  0  0  0.312393  0.285245  0  0.975856  0
H  H34  1  0.07914922  0.46345545  0.36330560  1  0  0.318964  0  0.902769  0  0  0.304397  0  0.957756  0  0  0.31189  0  0.952072  0  0  0.319572  0.299039  0  0.961936  0
H  H35  1  0.92085088  0.53654717  0.63669450  1  0  0.319005  0  0.902695  0  0  0.304426  0  0.957714  0  0  0.311922  0  0.952029  0  0  0.319593  0.299071  0  0.961893  0
H  H36  1  0.96648955  0.38018977  0.06226929  1  0  0.323103  0  0.898624  0  0  0.303553  0  0.962597  0  0  0.3118  0  0.95582  0  0  0.314952  0.297596  0  0.967667  0
H  H37  1  0.03350997  0.61980644  0.93773496  1  0  0.323084  0  0.898632  0  0  0.303518  0  0.962638  0  0  0.311767  0  0.955859  0  0  0.314935  0.297564  0  0.967707  0
C  C38  1  0.35132474  0.01345545  0.01809828  1  0  -0.067996  0  3.739397  0  0  -0.045696  0  3.968048  0  0  -0.051668  0  3.988664  0  0  -0.011707  -0.041853  0  3.953449  0
C  C39  1  0.64867474  0.98654609  0.98190035  1  0  -0.068026  0  3.739378  0  0  -0.045694  0  3.968041  0  0  -0.051664  0  3.988657  0  0  -0.011718  -0.041851  0  3.953443  0
C  C40  1  0.40996983  0.08483229  0.90930397  1  0  -0.079675  0  3.725672  0  0  -0.100631  0  3.971952  0  0  -0.101202  0  3.990791  0  0  -0.082595  -0.099825  0  3.959318  0
C  C41  1  0.59002862  0.91516924  0.09069397  1  0  -0.079632  0  3.72563  0  0  -0.100631  0  3.971892  0  0  -0.101205  0  3.99073  0  0  -0.082568  -0.099824  0  3.959255  0
C  C42  1  0.44168331  0.92877207  0.10867654  1  0  -0.071608  0  3.737994  0  0  -0.096305  0  3.991189  0  0  -0.096796  0  4.010081  0  0  -0.081812  -0.095828  0  3.978773  0
C  C43  1  0.55831617  0.07122946  0.89132118  1  0  -0.071583  0  3.738052  0  0  -0.096281  0  3.991228  0  0  -0.096771  0  4.010115  0  0  -0.081831  -0.095806  0  3.978815  0
C  C44  1  0.19365576  0.02359006  0.03474180  1  0  0.734102  0  3.851497  0  0  0.685095  0  4.146055  0  0  0.720735  0  4.134767  0  0  0.243833  0.661362  0  4.151812  0
C  C45  1  0.80634311  0.97641043  0.96525990  1  0  0.734197  0  3.851355  0  0  0.685112  0  4.146037  0  0  0.720752  0  4.134747  0  0  0.24385  0.661378  0  4.151796  0
C  C46  1  0.39380667  0.54936474  0.41929552  1  0  -0.054167  0  3.746733  0  0  -0.031743  0  3.976733  0  0  -0.03799  0  3.998968  0  0  -0.012354  -0.02788  0  3.961674  0
C  C47  1  0.60619324  0.45063572  0.58070233  1  0  -0.054198  0  3.746701  0  0  -0.031795  0  3.976704  0  0  -0.038045  0  3.998946  0  0  -0.012403  -0.027931  0  3.961644  0
C  C48  1  0.53813535  0.54977161  0.37377403  1  0  -0.064576  0  3.712969  0  0  -0.088751  0  3.964581  0  0  -0.089165  0  3.983089  0  0  -0.078281  -0.087941  0  3.951727  0
C  C49  1  0.46186437  0.45022670  0.62622339  1  0  -0.064558  0  3.7129  0  0  -0.08868  0  3.964465  0  0  -0.089105  0  3.982972  0  0  -0.078205  -0.087871  0  3.951612  0
C  C50  1  0.35617315  0.49872246  0.54610005  1  0  -0.066419  0  3.705698  0  0  -0.090459  0  3.959107  0  0  -0.091056  0  3.977782  0  0  -0.076985  -0.09007  0  3.94687  0
C  C51  1  0.64382573  0.50127800  0.45389802  1  0  -0.066452  0  3.705718  0  0  -0.090478  0  3.959151  0  0  -0.091079  0  3.977824  0  0  -0.076986  -0.090088  0  3.946913  0
C  C52  1  0.27984791  0.60654027  0.33339816  1  0  0.628835  0  3.943259  0  0  0.583811  0  4.2408  0  0  0.617047  0  4.233356  0  0  0.199918  0.561705  0  4.244301  0
C  C53  1  0.72015097  0.39346019  0.66660082  1  0  0.628921  0  3.943145  0  0  0.583903  0  4.240672  0  0  0.617142  0  4.233228  0  0  0.199938  0.561797  0  4.244175  0
C  C54  1  0.64328497  0.93363167  0.43304948  1  0  -0.055841  0  3.740721  0  0  -0.033201  0  3.971143  0  0  -0.038539  0  3.991507  0  0  -0.013514  -0.029539  0  3.957109  0
C  C55  1  0.35671536  0.06636772  0.56694941  1  0  -0.055807  0  3.740577  0  0  -0.03318  0  3.971018  0  0  -0.038515  0  3.991384  0  0  -0.013548  -0.029517  0  3.956984  0
C  C56  1  0.61395160  0.04730373  0.49888090  1  0  -0.079083  0  3.732536  0  0  -0.101637  0  3.983948  0  0  -0.101776  0  4.00153  0  0  -0.081184  -0.101391  0  3.971691  0
C  C57  1  0.38604831  0.95269674  0.50111786  1  0  -0.079047  0  3.732514  0  0  -0.101592  0  3.983922  0  0  -0.101735  0  4.00151  0  0  -0.081154  -0.101346  0  3.971664  0
C  C58  1  0.52843673  0.88670529  0.43500034  1  0  -0.072749  0  3.730833  0  0  -0.096081  0  3.980696  0  0  -0.09685  0  4.000876  0  0  -0.079552  -0.095539  0  3.967638  0
C  C59  1  0.47156421  0.11329518  0.56499911  1  0  -0.072746  0  3.730694  0  0  -0.096064  0  3.980563  0  0  -0.096835  0  4.000745  0  0  -0.079539  -0.095522  0  3.967508  0
C  C60  1  0.79336221  0.86838398  0.35470771  1  0  0.62427  0  3.950903  0  0  0.57934  0  4.250719  0  0  0.612538  0  4.243968  0  0  0.189964  0.557057  0  4.25379  0
C  C61  1  0.20663873  0.13161649  0.64529174  1  0  0.624232  0  3.950843  0  0  0.579297  0  4.250671  0  0  0.612493  0  4.243926  0  0  0.18996  0.557014  0  4.253745  0
C  C62  1  0.32965121  0.72800592  0.91631343  1  0  0.738508  0  3.897999  0  0  0.673773  0  4.197765  0  0  0.708504  0  4.191836  0  0  0.338829  0.650313  0  4.201044  0
C  C63  1  0.67034955  0.27199241  0.08368649  1  0  0.738414  0  3.898102  0  0  0.673662  0  4.197915  0  0  0.708394  0  4.191989  0  0  0.338793  0.650213  0  4.201193  0
C  C64  1  0.52354736  0.75629149  0.76010281  1  0  0.044319  0  3.609341  0  0  -0.012183  0  3.87043  0  0  -0.008477  0  3.883438  0  0  -0.057463  -0.014437  0  3.862137  0
C  C65  1  0.47645297  0.24370792  0.23989699  1  0  0.044331  0  3.609389  0  0  -0.012174  0  3.870472  0  0  -0.008468  0  3.883482  0  0  -0.057446  -0.014428  0  3.862178  0
C  C66  1  0.58696219  0.67570734  0.88339280  1  0  0.042895  0  3.593297  0  0  -0.009586  0  3.847694  0  0  -0.005479  0  3.858312  0  0  -0.055367  -0.012241  0  3.840456  0
C  C67  1  0.41303856  0.32429099  0.11660713  1  0  0.042864  0  3.593441  0  0  -0.009617  0  3.847811  0  0  -0.005507  0  3.858426  0  0  -0.055396  -0.012263  0  3.840578  0
C  C68  1  0.04194291  0.26757762  0.35428400  1  0  0.042758  0  3.604988  0  0  -0.015339  0  3.868404  0  0  -0.011604  0  3.879346  0  0  -0.052868  -0.017529  0  3.860668  0
C  C69  1  0.95805657  0.73242395  0.64571917  1  0  0.042629  0  3.605137  0  0  -0.015427  0  3.868477  0  0  -0.011663  0  3.87942  0  0  -0.052866  -0.017607  0  3.860738  0
C  C70  1  0.96356142  0.25753634  0.25300098  1  0  0.037097  0  3.595099  0  0  -0.021298  0  3.858059  0  0  -0.01697  0  3.867778  0  0  -0.055744  -0.02395  0  3.851253  0
C  C71  1  0.03643890  0.74246308  0.74700154  1  0  0.037047  0  3.595105  0  0  -0.021213  0  3.857938  0  0  -0.016877  0  3.867646  0  0  -0.055725  -0.023867  0  3.851131  0
C  C72  1  0.03109499  0.45436887  0.19214111  1  0  0.736249  0  3.892658  0  0  0.669383  0  4.195415  0  0  0.703762  0  4.190655  0  0  0.341535  0.646068  0  4.197603  0
C  C73  1  0.96890803  0.54563161  0.80785791  1  0  0.736236  0  3.892654  0  0  0.669368  0  4.195445  0  0  0.703759  0  4.190676  0  0  0.341564  0.646059  0  4.197634  0
N  N74  1  0.45490829  0.66649754  0.96934391  1  0  -0.487988  0  3.267645  0  0  -0.429044  0  3.515437  0  0  -0.449889  0  3.52105  0  0  -0.432215  -0.415034  0  3.510863  0
N  N75  1  0.54509143  0.33350079  0.03065624  1  0  -0.487927  0  3.26763  0  0  -0.428996  0  3.51544  0  0  -0.449841  0  3.521053  0  0  -0.432215  -0.415013  0  3.510884  0
N  N76  1  0.36586517  0.77366092  0.79166522  1  0  -0.494525  0  3.19589  0  0  -0.438131  0  3.448615  0  0  -0.458717  0  3.454363  0  0  -0.435556  -0.424601  0  3.444578  0
N  N77  1  0.63413413  0.22633849  0.20833480  1  0  -0.49446  0  3.1958  0  0  -0.438087  0  3.448551  0  0  -0.458674  0  3.454302  0  0  -0.435539  -0.424556  0  3.44451  0
N  N78  1  0.04330050  0.41180738  0.31588595  1  0  -0.484072  0  3.221144  0  0  -0.423936  0  3.472227  0  0  -0.444151  0  3.47691  0  0  -0.426052  -0.410062  0  3.468685  0
N  N79  1  0.95669795  0.58819418  0.68411562  1  0  -0.48403  0  3.221251  0  0  -0.423928  0  3.472379  0  0  -0.444147  0  3.477054  0  0  -0.426044  -0.410062  0  3.468838  0
N  N80  1  0.00014996  0.35836729  0.14803948  1  0  -0.477367  0  3.189441  0  0  -0.416063  0  3.437003  0  0  -0.436695  0  3.441296  0  0  -0.4243  -0.402099  0  3.433926  0
N  N81  1  0.99984994  0.64163320  0.85196292  1  0  -0.477334  0  3.189496  0  0  -0.416052  0  3.43707  0  0  -0.43669  0  3.441359  0  0  -0.424301  -0.402098  0  3.434001  0
O  O82  1  0.14464211  0.95511007  0.13319601  1  0  -0.733876  0  2.058596  0  0  -0.689043  0  2.310584  0  0  -0.715533  0  2.298042  0  0  -0.404247  -0.669684  0  2.31907  0
O  O83  1  0.85535634  0.04489147  0.86680375  1  0  -0.733923  0  2.058534  0  0  -0.689041  0  2.31054  0  0  -0.715532  0  2.29799  0  0  -0.404251  -0.669687  0  2.319024  0
O  O84  1  0.11823489  0.09889347  0.94857848  1  0  -0.726858  0  2.088619  0  0  -0.686588  0  2.356773  0  0  -0.713072  0  2.343975  0  0  -0.413905  -0.6672  0  2.365532  0
O  O85  1  0.88176441  0.90110594  0.05142244  1  0  -0.726868  0  2.088556  0  0  -0.686575  0  2.356738  0  0  -0.713062  0  2.34395  0  0  -0.4139  -0.667181  0  2.365497  0
O  O86  1  0.14381880  0.62010501  0.37612446  1  0  -0.68761  0  1.988203  0  0  -0.644664  0  2.221539  0  0  -0.668608  0  2.212067  0  0  -0.35626  -0.627347  0  2.227419  0
O  O87  1  0.85618069  0.37989654  0.62387508  1  0  -0.687615  0  1.988145  0  0  -0.644666  0  2.221478  0  0  -0.668615  0  2.212005  0  0  -0.356242  -0.627357  0  2.227361  0
O  O88  1  0.31817433  0.64622777  0.21686608  1  0  -0.700898  0  2.057386  0  0  -0.659269  0  2.305126  0  0  -0.684412  0  2.295933  0  0  -0.36217  -0.641294  0  2.310803  0
O  O89  1  0.68182454  0.35377269  0.78313199  1  0  -0.700952  0  2.057401  0  0  -0.65932  0  2.305148  0  0  -0.684463  0  2.295942  0  0  -0.362189  -0.641346  0  2.310816  0
O  O90  1  0.82983595  0.74858360  0.31655572  1  0  -0.668372  0  1.963151  0  0  -0.630354  0  2.199926  0  0  -0.655254  0  2.191626  0  0  -0.365795  -0.612552  0  2.205226  0
O  O91  1  0.17016541  0.25141580  0.68344477  1  0  -0.668368  0  1.963173  0  0  -0.630342  0  2.199952  0  0  -0.655241  0  2.191645  0  0  -0.365785  -0.612542  0  2.205251  0
O  O92  1  0.87987604  0.93906782  0.32302943  1  0  -0.696555  0  1.933115  0  0  -0.655995  0  2.164915  0  0  -0.680621  0  2.155098  0  0  -0.379199  -0.638247  0  2.170976  0
O  O93  1  0.12012490  0.06093266  0.67697093  1  0  -0.696524  0  1.933091  0  0  -0.655951  0  2.164885  0  0  -0.680578  0  2.155062  0  0  -0.379194  -0.638206  0  2.170943  0
O  O94  1  0.19934518  0.73976650  0.97103374  1  0  -0.710269  0  2.023779  0  0  -0.66808  0  2.279065  0  0  -0.691393  0  2.267055  0  0  -0.386604  -0.651667  0  2.287601  0
O  O95  1  0.80065515  0.26023292  0.02896788  1  0  -0.710237  0  2.02392  0  0  -0.668022  0  2.279207  0  0  -0.691339  0  2.267199  0  0  -0.386578  -0.651612  0  2.287737  0
O  O96  1  0.04909499  0.56525988  0.12679215  1  0  -0.737191  0  2.045243  0  0  -0.693805  0  2.303643  0  0  -0.717415  0  2.289645  0  0  -0.39522  -0.67644  0  2.312968  0
O  O97  1  0.95090449  0.43474166  0.87320557  1  0  -0.737201  0  2.045137  0  0  -0.693806  0  2.303563  0  0  -0.717418  0  2.28955  0  0  -0.395257  -0.676447  0  2.312884  0
