# generated using pymatgen
data_ZnH13PdC19N7O
_symmetry_space_group_name_H-M   'P 1'
_cell_length_a   9.73020152
_cell_length_b   9.73017259
_cell_length_c   11.54960092
_cell_angle_alpha   82.44999836
_cell_angle_beta   82.45014263
_cell_angle_gamma   71.99177398
_symmetry_Int_Tables_number   1
_chemical_formula_structural   ZnH13PdC19N7O
_chemical_formula_sum   'Zn2 H26 Pd2 C38 N14 O2'
_cell_volume   1026.10463759
_cell_formula_units_Z   2
loop_
 _symmetry_equiv_pos_site_id
 _symmetry_equiv_pos_as_xyz
  1  'x, y, z'
loop_
 _atom_site_type_symbol
 _atom_site_label
 _atom_site_symmetry_multiplicity
 _atom_site_fract_x
 _atom_site_fract_y
 _atom_site_fract_z
 _atom_site_occupancy
 _atom_site_hle17_bader_spin_density
 _atom_site_hle17_ddec_charge
 _atom_site_hle17_ddec_spin_density
 _atom_site_hle17_ddec_sum_bond_order
 _atom_site_hle17_magmom
 _atom_site_hse06_10hf_bader_spin_density
 _atom_site_hse06_10hf_ddec_charge
 _atom_site_hse06_10hf_ddec_spin_density
 _atom_site_hse06_10hf_ddec_sum_bond_order
 _atom_site_hse06_10hf_magmom
 _atom_site_hse06_bader_spin_density
 _atom_site_hse06_ddec_charge
 _atom_site_hse06_ddec_spin_density
 _atom_site_hse06_ddec_sum_bond_order
 _atom_site_hse06_magmom
 _atom_site_pbe_bader_spin_density
 _atom_site_pbe_cm5_charge
 _atom_site_pbe_ddec_charge
 _atom_site_pbe_ddec_spin_density
 _atom_site_pbe_ddec_sum_bond_order
 _atom_site_pbe_magmom
Zn  Zn0  1  0.26452043  0.73547972  0.74999996  1  0  0.988559  0  2.017865  0  0  0.801272  0  2.486551  0  0  0.842094  0  2.438503  0  0  0.715629  0.77409  0  2.518426  0
Zn  Zn1  1  0.73547933  0.26452117  0.25000004  1  0  0.988555  0  2.017851  0  0  0.801257  0  2.486535  0  0  0.842075  0  2.438488  0  0  0.715615  0.774077  0  2.518409  0
H  H2  1  0.54179934  0.56295164  0.72737850  1  0  0.424296  0  0.883796  0  0  0.385962  0  0.958202  0  0  0.397277  0  0.941759  0  0  0.284598  0.378577  0  0.968875  0
H  H3  1  0.43704933  0.45819985  0.77262097  1  0  0.424289  0  0.883784  0  0  0.385956  0  0.95819  0  0  0.397271  0  0.941747  0  0  0.284569  0.37857  0  0.968866  0
H  H4  1  0.45820042  0.43704926  0.27262150  1  0  0.424288  0  0.883785  0  0  0.385957  0  0.958187  0  0  0.39727  0  0.941748  0  0  0.284573  0.378572  0  0.968862  0
H  H5  1  0.56295179  0.54179996  0.22737813  1  0  0.424266  0  0.883817  0  0  0.385937  0  0.958216  0  0  0.39725  0  0.941776  0  0  0.28456  0.378547  0  0.968899  0
H  H6  1  0.28308538  0.51399118  0.98256166  1  0  0.089619  0  0.920672  0  0  0.1001  0  0.977117  0  0  0.102603  0  0.975259  0  0  0.123061  0.098375  0  0.978479  0
H  H7  1  0.48600720  0.71691622  0.51743677  1  0  0.089606  0  0.920686  0  0  0.100068  0  0.977161  0  0  0.10257  0  0.975302  0  0  0.123041  0.098341  0  0.978524  0
H  H8  1  0.71691470  0.48600863  0.01743669  1  0  0.089641  0  0.920681  0  0  0.100121  0  0.977123  0  0  0.102624  0  0.975266  0  0  0.123086  0.098393  0  0.978488  0
H  H9  1  0.51399120  0.28308576  0.48256326  1  0  0.089644  0  0.920656  0  0  0.100123  0  0.977101  0  0  0.102627  0  0.975244  0  0  0.123067  0.098396  0  0.978463  0
H  H10  1  0.11721783  0.47701953  0.16169586  1  0  0.112647  0  0.950486  0  0  0.121729  0  1.008335  0  0  0.124205  0  1.008827  0  0  0.108681  0.120045  0  1.007966  0
H  H11  1  0.52298087  0.88278244  0.33830178  1  0  0.112671  0  0.950446  0  0  0.121742  0  1.008313  0  0  0.124217  0  1.008805  0  0  0.108683  0.12006  0  1.007943  0
H  H12  1  0.88278225  0.52298028  0.83830249  1  0  0.112656  0  0.950459  0  0  0.121724  0  1.008329  0  0  0.124199  0  1.00882  0  0  0.108675  0.120037  0  1.007959  0
H  H13  1  0.47702025  0.11721737  0.66169732  1  0  0.112692  0  0.950428  0  0  0.121759  0  1.008295  0  0  0.124234  0  1.008786  0  0  0.10869  0.120076  0  1.007926  0
H  H14  1  0.87081349  0.66070704  0.18917154  1  0  0.102552  0  0.938717  0  0  0.112234  0  0.998458  0  0  0.114601  0  0.997401  0  0  0.108462  0.110684  0  0.998977  0
H  H15  1  0.33929225  0.12918653  0.31082937  1  0  0.102524  0  0.938749  0  0  0.112201  0  0.998491  0  0  0.114569  0  0.997433  0  0  0.108452  0.110649  0  0.999008  0
H  H16  1  0.12918731  0.33929385  0.81082922  1  0  0.102527  0  0.938752  0  0  0.112203  0  0.998495  0  0  0.114571  0  0.997439  0  0  0.108451  0.110654  0  0.999014  0
H  H17  1  0.66070712  0.87081219  0.68917092  1  0  0.102538  0  0.938734  0  0  0.112214  0  0.998486  0  0  0.114581  0  0.99743  0  0  0.108464  0.110662  0  0.999002  0
H  H18  1  0.80534699  0.87596820  0.04281389  1  0  0.096135  0  0.990429  0  0  0.101195  0  1.063266  0  0  0.104171  0  1.06187  0  0  0.093348  0.098981  0  1.064574  0
H  H19  1  0.12403039  0.19465250  0.45718603  1  0  0.096204  0  0.990393  0  0  0.101231  0  1.06325  0  0  0.104213  0  1.061845  0  0  0.093378  0.099016  0  1.064555  0
H  H20  1  0.19465413  0.12403161  0.95718608  1  0  0.096159  0  0.990395  0  0  0.101183  0  1.063261  0  0  0.104158  0  1.061865  0  0  0.093347  0.098966  0  1.064572  0
H  H21  1  0.87596866  0.80534731  0.54281244  1  0  0.096187  0  0.990394  0  0  0.101219  0  1.063256  0  0  0.104201  0  1.06185  0  0  0.093389  0.099005  0  1.064558  0
H  H22  1  0.77049713  0.06323160  0.91741465  1  0  0.10215  0  0.980096  0  0  0.106095  0  1.054326  0  0  0.109487  0  1.052212  0  0  0.095945  0.103452  0  1.05636  0
H  H23  1  0.93676942  0.22950186  0.58258462  1  0  0.10213  0  0.980104  0  0  0.10608  0  1.054332  0  0  0.109469  0  1.052219  0  0  0.095937  0.103432  0  1.056365  0
H  H24  1  0.22950367  0.93676929  0.08258351  1  0  0.102126  0  0.980105  0  0  0.106076  0  1.054336  0  0  0.109466  0  1.052221  0  0  0.095936  0.103435  0  1.056369  0
H  H25  1  0.06322995  0.77049687  0.41741479  1  0  0.102133  0  0.980099  0  0  0.106079  0  1.054328  0  0  0.10947  0  1.052214  0  0  0.095937  0.103433  0  1.05636  0
H  H26  1  0.74513157  0.25486945  0.74999943  1  0  0.107265  0  0.930265  0  0  0.118449  0  0.984866  0  0  0.120576  0  0.984584  0  0  0.113374  0.11701  0  0.984974  0
H  H27  1  0.25486715  0.74513145  0.24999982  1  0  0.107282  0  0.930245  0  0  0.118465  0  0.98485  0  0  0.120588  0  0.984575  0  0  0.113381  0.117023  0  0.984956  0
Pd  Pd28  1  0.50000069  0.00000073  0.99999793  1  0  0.138126  0  3.572139  0  0  0.137613  0  4.113006  0  0  0.140452  0  4.07709  0  0  0.635127  0.137127  0  4.138015  0
Pd  Pd29  1  0.00000067  0.49999972  0.49999990  1  0  0.13812  0  3.572171  0  0  0.137632  0  4.113011  0  0  0.140471  0  4.077093  0  0  0.635108  0.137134  0  4.138031  0
C  C30  1  0.43039093  0.90519649  0.88818184  1  0  0.060161  0  3.518746  0  0  0.039026  0  3.856144  0  0  0.048245  0  3.863846  0  0  -0.024093  0.032325  0  3.85166  0
C  C31  1  0.09480269  0.56961040  0.61181805  1  0  0.060147  0  3.518641  0  0  0.039004  0  3.856046  0  0  0.048222  0  3.86375  0  0  -0.024128  0.032299  0  3.851571  0
C  C32  1  0.56960987  0.09480441  0.11181631  1  0  0.060185  0  3.518596  0  0  0.039046  0  3.856004  0  0  0.048263  0  3.863705  0  0  -0.024103  0.03234  0  3.851524  0
C  C33  1  0.90519675  0.43039158  0.38818186  1  0  0.060165  0  3.518675  0  0  0.03902  0  3.856078  0  0  0.048237  0  3.863782  0  0  -0.024111  0.032313  0  3.851607  0
C  C34  1  0.45827984  0.18295190  0.89505403  1  0  0.040201  0  3.552021  0  0  0.015821  0  3.897899  0  0  0.024312  0  3.905576  0  0  -0.031706  0.009837  0  3.892948  0
C  C35  1  0.81704800  0.54171882  0.60494674  1  0  0.040234  0  3.552055  0  0  0.015851  0  3.897924  0  0  0.02434  0  3.905602  0  0  -0.031707  0.009871  0  3.89297  0
C  C36  1  0.54172096  0.81704899  0.10494499  1  0  0.040199  0  3.551971  0  0  0.015816  0  3.897854  0  0  0.024306  0  3.905532  0  0  -0.0317  0.009834  0  3.892899  0
C  C37  1  0.18295208  0.45828099  0.39505421  1  0  0.040206  0  3.551998  0  0  0.015814  0  3.897886  0  0  0.024304  0  3.905564  0  0  -0.031705  0.009832  0  3.892933  0
C  C38  1  0.17635921  0.59197381  0.99968142  1  0  0.144759  0  3.680648  0  0  0.115321  0  3.931433  0  0  0.121546  0  3.948936  0  0  0.05933  0.11122  0  3.919817  0
C  C39  1  0.40802476  0.82364099  0.50031872  1  0  0.144806  0  3.680719  0  0  0.115385  0  3.931496  0  0  0.121612  0  3.948994  0  0  0.05934  0.111286  0  3.919878  0
C  C40  1  0.82364088  0.40802600  0.00031953  1  0  0.144722  0  3.680754  0  0  0.115287  0  3.93152  0  0  0.121511  0  3.949021  0  0  0.059261  0.111189  0  3.9199  0
C  C41  1  0.59197532  0.17635882  0.49968137  1  0  0.144716  0  3.68072  0  0  0.115287  0  3.931491  0  0  0.121509  0  3.948993  0  0  0.059301  0.111188  0  3.919873  0
C  C42  1  0.08331241  0.57146338  0.09866002  1  0  -0.107967  0  3.712127  0  0  -0.122982  0  3.965967  0  0  -0.129615  0  3.988666  0  0  -0.076846  -0.118444  0  3.950866  0
C  C43  1  0.42853682  0.91668679  0.40133938  1  0  -0.108004  0  3.712134  0  0  -0.123024  0  3.965974  0  0  -0.129654  0  3.988672  0  0  -0.076831  -0.118492  0  3.950881  0
C  C44  1  0.91668735  0.42853751  0.90133998  1  0  -0.107905  0  3.712075  0  0  -0.122927  0  3.965916  0  0  -0.129558  0  3.988613  0  0  -0.076783  -0.118388  0  3.950811  0
C  C45  1  0.57146326  0.08331303  0.59865897  1  0  -0.107986  0  3.712165  0  0  -0.122996  0  3.965993  0  0  -0.129626  0  3.988692  0  0  -0.076804  -0.118465  0  3.950901  0
C  C46  1  0.94784230  0.67441218  0.11434659  1  0  0.001704  0  3.712563  0  0  -0.017805  0  3.963644  0  0  -0.015424  0  3.984353  0  0  -0.063731  -0.019272  0  3.949687  0
C  C47  1  0.32558721  0.05215837  0.38565168  1  0  0.001727  0  3.712545  0  0  -0.01777  0  3.963596  0  0  -0.015391  0  3.984309  0  0  -0.063769  -0.019244  0  3.949643  0
C  C48  1  0.05215914  0.32558655  0.88565173  1  0  0.001629  0  3.712664  0  0  -0.017865  0  3.963715  0  0  -0.015486  0  3.984425  0  0  -0.063801  -0.019339  0  3.949762  0
C  C49  1  0.67441255  0.94784253  0.61434745  1  0  0.001629  0  3.712607  0  0  -0.017873  0  3.963669  0  0  -0.015495  0  3.984382  0  0  -0.063861  -0.019344  0  3.949711  0
C  C50  1  0.91072097  0.79461117  0.03181296  1  0  -0.135392  0  3.703563  0  0  -0.152228  0  3.947643  0  0  -0.159464  0  3.970533  0  0  -0.080741  -0.14758  0  3.932793  0
C  C51  1  0.20538896  0.08927957  0.46818684  1  0  -0.13548  0  3.703531  0  0  -0.152276  0  3.947597  0  0  -0.159518  0  3.970486  0  0  -0.080763  -0.147623  0  3.932739  0
C  C52  1  0.08927983  0.20538973  0.96818606  1  0  -0.135318  0  3.703519  0  0  -0.152099  0  3.947597  0  0  -0.159332  0  3.970485  0  0  -0.080709  -0.147449  0  3.932747  0
C  C53  1  0.79461112  0.91072024  0.53181325  1  0  -0.135388  0  3.703472  0  0  -0.152188  0  3.947562  0  0  -0.159428  0  3.970448  0  0  -0.080723  -0.147536  0  3.932704  0
C  C54  1  0.00942377  0.80776828  0.93460867  1  0  0.168118  0  3.749308  0  0  0.166009  0  3.986519  0  0  0.171394  0  4.007599  0  0  0.118427  0.162476  0  3.972239  0
C  C55  1  0.19222969  0.99057634  0.56539120  1  0  0.16819  0  3.749207  0  0  0.166062  0  3.986404  0  0  0.17145  0  4.007486  0  0  0.118455  0.16253  0  3.972117  0
C  C56  1  0.99057559  0.19223044  0.06539161  1  0  0.168063  0  3.749304  0  0  0.165873  0  3.986576  0  0  0.171259  0  4.007656  0  0  0.118416  0.162345  0  3.972291  0
C  C57  1  0.80777072  0.00942239  0.43460810  1  0  0.168178  0  3.74912  0  0  0.166025  0  3.986387  0  0  0.171412  0  4.007467  0  0  0.118428  0.162485  0  3.972108  0
C  C58  1  0.97820983  0.93094861  0.84125117  1  0  0.199413  0  3.745904  0  0  0.193986  0  3.984945  0  0  0.201268  0  4.004253  0  0  0.129623  0.189258  0  3.97145  0
C  C59  1  0.06904901  0.02178975  0.65874868  1  0  0.199376  0  3.745929  0  0  0.193967  0  3.984956  0  0  0.201251  0  4.004263  0  0  0.129627  0.189241  0  3.971453  0
C  C60  1  0.02178953  0.06905011  0.15874911  1  0  0.199449  0  3.745816  0  0  0.194071  0  3.984841  0  0  0.201354  0  4.004146  0  0  0.129647  0.189337  0  3.971355  0
C  C61  1  0.93094932  0.97820898  0.34125085  1  0  0.199457  0  3.745806  0  0  0.194028  0  3.984885  0  0  0.20131  0  4.004193  0  0  0.129644  0.18931  0  3.971378  0
C  C62  1  0.85438232  0.05206819  0.84401355  1  0  -0.134374  0  3.676263  0  0  -0.155144  0  3.929997  0  0  -0.162101  0  3.950943  0  0  -0.0777  -0.150191  0  3.915687  0
C  C63  1  0.94793126  0.14561880  0.65598574  1  0  -0.134386  0  3.676277  0  0  -0.15517  0  3.930019  0  0  -0.162127  0  3.950963  0  0  -0.077745  -0.150212  0  3.915697  0
C  C64  1  0.14561912  0.94793053  0.15598477  1  0  -0.134372  0  3.676218  0  0  -0.155156  0  3.929959  0  0  -0.162111  0  3.950901  0  0  -0.077707  -0.150202  0  3.915649  0
C  C65  1  0.05206883  0.85438101  0.34401348  1  0  -0.134399  0  3.676274  0  0  -0.155157  0  3.930017  0  0  -0.162113  0  3.95096  0  0  -0.077721  -0.150202  0  3.915694  0
C  C66  1  0.84036189  0.15963833  0.74999960  1  0  0.011602  0  3.706072  0  0  -0.005982  0  3.955813  0  0  -0.002959  0  3.976613  0  0  -0.060584  -0.007799  0  3.941557  0
C  C67  1  0.15963683  0.84036257  0.24999965  1  0  0.011598  0  3.706158  0  0  -0.005996  0  3.955923  0  0  -0.00297  0  3.976715  0  0  -0.060593  -0.007807  0  3.94166  0
N  N68  1  0.38506153  0.84932384  0.82460265  1  0  -0.410687  0  3.006912  0  0  -0.351193  0  3.294478  0  0  -0.368035  0  3.306253  0  0  -0.357532  -0.339938  0  3.286571  0
N  N69  1  0.15067711  0.61493898  0.67539888  1  0  -0.410681  0  3.006813  0  0  -0.351184  0  3.294384  0  0  -0.368029  0  3.306163  0  0  -0.357496  -0.339931  0  3.286477  0
N  N70  1  0.61493823  0.15067706  0.17539735  1  0  -0.410711  0  3.006777  0  0  -0.351213  0  3.294344  0  0  -0.368055  0  3.306119  0  0  -0.357526  -0.339957  0  3.286435  0
N  N71  1  0.84932368  0.38506191  0.32460187  1  0  -0.410711  0  3.006844  0  0  -0.351213  0  3.294412  0  0  -0.368053  0  3.306189  0  0  -0.357526  -0.339961  0  3.286504  0
N  N72  1  0.43402951  0.29034138  0.83199746  1  0  -0.423281  0  2.862027  0  0  -0.368302  0  3.106715  0  0  -0.383835  0  3.119292  0  0  -0.346921  -0.358075  0  3.098022  0
N  N73  1  0.70966074  0.56596774  0.66800224  1  0  -0.423288  0  2.862087  0  0  -0.368308  0  3.106775  0  0  -0.38384  0  3.119351  0  0  -0.346896  -0.35809  0  3.098082  0
N  N74  1  0.56597025  0.70965952  0.16800340  1  0  -0.423271  0  2.86204  0  0  -0.368291  0  3.106727  0  0  -0.383824  0  3.119307  0  0  -0.346908  -0.358068  0  3.098035  0
N  N75  1  0.29034109  0.43403315  0.33199667  1  0  -0.423274  0  2.862022  0  0  -0.368295  0  3.106719  0  0  -0.383828  0  3.119298  0  0  -0.346907  -0.358075  0  3.098025  0
N  N76  1  0.14001823  0.70631880  0.91950376  1  0  -0.33851  0  3.24549  0  0  -0.271233  0  3.506206  0  0  -0.287448  0  3.522708  0  0  -0.309665  -0.26027  0  3.495242  0
N  N77  1  0.29368132  0.85998040  0.58049711  1  0  -0.338559  0  3.24549  0  0  -0.271269  0  3.506192  0  0  -0.287485  0  3.522695  0  0  -0.309666  -0.260306  0  3.495222  0
N  N78  1  0.85998049  0.29368210  0.08049722  1  0  -0.33854  0  3.245569  0  0  -0.271207  0  3.506254  0  0  -0.287425  0  3.522761  0  0  -0.309638  -0.260248  0  3.495289  0
N  N79  1  0.70632012  0.14001832  0.41950294  1  0  -0.338539  0  3.245444  0  0  -0.271239  0  3.506164  0  0  -0.287454  0  3.522665  0  0  -0.309639  -0.260273  0  3.495195  0
N  N80  1  0.07998127  0.92001766  0.74999993  1  0  -0.374242  0  3.325257  0  0  -0.305808  0  3.5774  0  0  -0.323025  0  3.593309  0  0  -0.318988  -0.2944  0  3.566792  0
N  N81  1  0.92001746  0.07998323  0.25000018  1  0  -0.374287  0  3.325205  0  0  -0.305861  0  3.57736  0  0  -0.323073  0  3.593266  0  0  -0.318994  -0.29445  0  3.566753  0
O  O82  1  0.43996252  0.56003899  0.74999910  1  0  -0.854353  0  1.965388  0  0  -0.782677  0  2.19428  0  0  -0.803459  0  2.155463  0  0  -0.589564  -0.768867  0  2.219339  0
O  O83  1  0.56003828  0.43996191  0.24999905  1  0  -0.854317  0  1.965373  0  0  -0.782648  0  2.194254  0  0  -0.803422  0  2.155442  0  0  -0.589534  -0.768834  0  2.21932  0
