# generated using pymatgen
data_CuH7C7SN4Cl
_symmetry_space_group_name_H-M   'P 1'
_cell_length_a   7.11936042
_cell_length_b   7.92012938
_cell_length_c   22.28954450
_cell_angle_alpha   89.99864051
_cell_angle_beta   89.99999092
_cell_angle_gamma   96.28321585
_symmetry_Int_Tables_number   1
_chemical_formula_structural   CuH7C7SN4Cl
_chemical_formula_sum   'Cu4 H28 C28 S4 N16 Cl4'
_cell_volume   1249.27428623
_cell_formula_units_Z   4
loop_
 _symmetry_equiv_pos_site_id
 _symmetry_equiv_pos_as_xyz
  1  'x, y, z'
loop_
 _atom_site_type_symbol
 _atom_site_label
 _atom_site_symmetry_multiplicity
 _atom_site_fract_x
 _atom_site_fract_y
 _atom_site_fract_z
 _atom_site_occupancy
 _atom_site_hle17_ddec_charge
 _atom_site_hle17_ddec_spin_density
 _atom_site_hle17_ddec_sum_bond_order
 _atom_site_hle17_magmom
 _atom_site_hse06_10hf_bader_charge
 _atom_site_hse06_10hf_bader_spin_density
 _atom_site_hse06_10hf_ddec_charge
 _atom_site_hse06_10hf_ddec_spin_density
 _atom_site_hse06_10hf_ddec_sum_bond_order
 _atom_site_hse06_10hf_magmom
 _atom_site_hse06_bader_charge
 _atom_site_hse06_bader_spin_density
 _atom_site_hse06_ddec_charge
 _atom_site_hse06_ddec_spin_density
 _atom_site_hse06_ddec_sum_bond_order
 _atom_site_hse06_magmom
 _atom_site_pbe_cm5_charge
 _atom_site_pbe_ddec_charge
 _atom_site_pbe_ddec_spin_density
 _atom_site_pbe_ddec_sum_bond_order
 _atom_site_pbe_magmom
Cu  Cu0  1  0.59748941  0.42111187  0.70639756  1  0.617269  0.602389  2.136614  0.403  0.894996  0.514978  0.597704  0.705609  2.560143  0.514  0.97858  0.604319  0.675244  0.795913  2.493422  0.601  0.581177  0.559114  0.642931  2.600167  0.461
Cu  Cu1  1  0.90251469  0.57888882  0.20640282  1  0.617163  0.602405  2.136765  0.403  0.89495  0.514977  0.597648  0.705617  2.560341  0.514  0.978455  0.604305  0.675207  0.795912  2.493592  0.601  0.581272  0.559097  0.642946  2.600333  0.461
Cu  Cu2  1  0.40250702  0.57889267  0.29359707  1  0.6173  -0.602387  2.136447  -0.403  0.894867  -0.51499  0.597722  -0.705626  2.559999  -0.514  0.978584  -0.60433  0.675279  -0.795928  2.493255  -0.601  0.581162  0.55917  -0.642927  2.599988  -0.461
Cu  Cu3  1  0.09748718  0.42111338  0.79359719  1  0.617232  -0.602403  2.136688  -0.403  0.894861  -0.514987  0.59775  -0.705627  2.560225  -0.514  0.978452  -0.604309  0.67519  -0.79591  2.493501  -0.601  0.581256  0.559148  -0.642943  2.600202  -0.461
H  H4  1  0.54841211  0.36289789  0.48184320  1  0.318955  0.000436  0.9562  0.002  0.545391  0.000793  0.28546  0.00019  1.047561  0.001  0.562808  0.000675  0.295378  0.000194  1.039397  0.001  0.284674  0.278374  0.000145  1.053267  0.001
H  H5  1  0.95157228  0.63708001  0.98184686  1  0.318857  0.000436  0.956341  0.002  0.544809  0.000794  0.285343  0.00019  1.047748  0.001  0.562387  0.000675  0.29526  0.000194  1.039583  0.001  0.284589  0.278263  0.000145  1.053459  0.001
H  H6  1  0.45160054  0.63709837  0.51815143  1  0.319058  -0.000435  0.956169  -0.002  0.545234  -0.000794  0.285563  -0.00019  1.04754  -0.001  0.562888  -0.000674  0.29548  -0.000194  1.03937  -0.001  0.284715  0.278481  -0.000145  1.05326  -0.001
H  H7  1  0.04840695  0.36290241  0.01814821  1  0.318873  -0.000435  0.956352  -0.002  0.545295  -0.000794  0.285417  -0.000191  1.047643  -0.001  0.563009  -0.000674  0.295334  -0.000194  1.03948  -0.001  0.284653  0.278335  -0.000145  1.053363  -0.001
H  H8  1  0.63933825  0.18005515  0.51241257  1  0.320556  0.001101  0.882866  0.0  0.446517  0.001119  0.314307  0.001233  0.927548  0.0  0.492616  0.000765  0.320369  0.000967  0.92328  0.0  0.310648  0.309872  0.001421  0.930902  0.0
H  H9  1  0.86065141  0.81993135  0.01241218  1  0.320615  0.001101  0.882715  0.0  0.446197  0.00112  0.314324  0.001233  0.927451  0.0  0.492282  0.000763  0.320386  0.000967  0.923183  0.0  0.310594  0.309893  0.001422  0.930817  0.0
H  H10  1  0.36067832  0.81993744  0.48758385  1  0.320508  -0.001101  0.882929  0.0  0.44617  -0.001119  0.314225  -0.001233  0.927652  0.0  0.492723  -0.000767  0.320283  -0.000967  0.923394  0.0  0.310653  0.309795  -0.001422  0.931004  0.0
H  H11  1  0.13933829  0.18005904  0.98758514  1  0.3206  -0.001101  0.882876  0.0  0.446555  -0.00112  0.314346  -0.001233  0.927556  0.0  0.492798  -0.000763  0.320409  -0.000967  0.923287  0.0  0.310668  0.309915  -0.001422  0.930918  0.0
H  H12  1  0.58028261  0.54683905  0.83845804  1  0.086235  0.00096  0.942475  0.002  0.113594  0.002161  0.093177  0.001065  1.008635  0.002  0.156146  0.001733  0.096524  0.000815  1.005491  0.001  0.110217  0.090761  0.001261  1.011006  0.002
H  H13  1  0.91970044  0.45316858  0.33846348  1  0.086224  0.000958  0.942495  0.002  0.113522  0.002159  0.093144  0.001065  1.008652  0.002  0.159939  0.001729  0.096498  0.000815  1.005491  0.001  0.110135  0.09072  0.00126  1.011029  0.002
H  H14  1  0.41969269  0.45314703  0.16153613  1  0.086419  -0.000959  0.942234  -0.002  0.113552  -0.002161  0.09327  -0.001065  1.008492  -0.002  0.159999  -0.00173  0.096621  -0.000815  1.005339  -0.001  0.110191  0.090854  -0.00126  1.010862  -0.002
H  H15  1  0.08030604  0.54685657  0.66154147  1  0.086357  -0.000958  0.942436  -0.002  0.113819  -0.00216  0.09319  -0.001065  1.008715  -0.002  0.160097  -0.001729  0.096534  -0.000815  1.005577  -0.001  0.110201  0.090769  -0.00126  1.01108  -0.002
H  H16  1  0.49823029  0.81861979  0.88622681  1  0.101672  0.00042  0.932789  0.001  0.030913  0.000833  0.116697  0.000383  0.981212  0.0  0.035566  0.00066  0.121449  0.00029  0.979006  0.0  0.106311  0.113387  0.000455  0.982889  0.001
H  H17  1  0.00174776  0.18139980  0.38623592  1  0.101534  0.000419  0.932894  0.001  0.03082  0.000833  0.116469  0.000383  0.981411  0.0  0.035566  0.00066  0.121216  0.00029  0.979214  0.0  0.106181  0.11316  0.000456  0.983077  0.001
H  H18  1  0.50176635  0.18136958  0.11376826  1  0.101538  -0.00042  0.932783  -0.001  0.030803  -0.000834  0.116547  -0.000383  0.981221  0.0  0.035442  -0.00066  0.121298  -0.00029  0.979019  0.0  0.106259  0.11324  -0.000455  0.982898  -0.001
H  H19  1  0.99825933  0.81863297  0.61377575  1  0.101582  -0.00042  0.932941  -0.001  0.031166  -0.000833  0.116586  -0.000383  0.981382  0.0  0.035345  -0.000659  0.121335  -0.00029  0.97918  0.0  0.106277  0.113279  -0.000455  0.98305  -0.001
H  H20  1  0.42278850  0.05755323  0.81852388  1  0.102451  0.000375  0.967974  0.0  0.15575  4.2e-05  0.115844  0.000117  1.025004  0.0  0.163861  5e-05  0.119547  0.000109  1.021347  0.0  0.093789  0.113307  0.000126  1.027432  0.0
H  H21  1  0.07720215  0.94246243  0.31854264  1  0.102281  0.000375  0.968219  0.0  0.156169  4.2e-05  0.115701  0.000117  1.025281  0.0  0.164327  5.1e-05  0.119388  0.000108  1.021612  0.0  0.093739  0.113168  0.000125  1.027687  0.0
H  H22  1  0.57722234  0.94243789  0.18146985  1  0.1024  -0.000375  0.967922  0.0  0.155505  -4.2e-05  0.115768  -0.000117  1.025038  0.0  0.164079  -5.1e-05  0.119467  -0.000108  1.021377  0.0  0.093746  0.113233  -0.000126  1.027457  0.0
H  H23  1  0.92279427  0.05755983  0.68147083  1  0.102395  -0.000374  0.967903  0.0  0.155649  -4.2e-05  0.115796  -0.000117  1.024981  0.0  0.164172  -5.1e-05  0.119494  -0.000109  1.02132  0.0  0.093785  0.113254  -0.000126  1.027405  0.0
H  H24  1  0.42421419  0.01480134  0.70816784  1  0.112128  5.7e-05  0.977905  0.001  0.134895  0.000739  0.121131  4.2e-05  1.041809  0.001  0.144959  0.000559  0.124927  -1.1e-05  1.040454  0.0  0.093989  0.118405  9.8e-05  1.042909  0.001
H  H25  1  0.07578995  0.98520188  0.20819116  1  0.112065  5.6e-05  0.977901  0.001  0.135371  0.000738  0.1212  4.2e-05  1.041678  0.001  0.144952  0.000559  0.125  -1.1e-05  1.040319  0.0  0.093981  0.118468  9.8e-05  1.042793  0.001
H  H26  1  0.57579401  0.98520995  0.29182499  1  0.11216  -5.8e-05  0.977978  -0.001  0.135066  -0.000739  0.121147  -4.2e-05  1.041869  -0.001  0.144993  -0.000559  0.124943  1.1e-05  1.040514  0.0  0.094016  0.118421  -9.8e-05  1.042978  -0.001
H  H27  1  0.92419933  0.01480115  0.79182275  1  0.112228  -5.7e-05  0.977796  -0.001  0.13504  -0.000739  0.121186  -4.2e-05  1.041727  -0.001  0.14519  -0.000559  0.124984  1.1e-05  1.040369  0.0  0.094018  0.118459  -9.8e-05  1.042837  -0.001
H  H28  1  0.47311368  0.81461106  0.61862109  1  0.094811  0.004646  0.921582  0.005  0.082285  0.006429  0.108871  0.00366  0.980943  0.003  0.090899  0.005066  0.11269  0.00278  0.976202  0.003  0.118566  0.106168  0.004196  0.984402  0.004
H  H29  1  0.02688998  0.18538164  0.11863241  1  0.09493  0.004641  0.921744  0.005  0.082459  0.006426  0.108869  0.003658  0.981104  0.003  0.090869  0.005064  0.112685  0.002779  0.976358  0.003  0.118529  0.106166  0.004194  0.984569  0.004
H  H30  1  0.52688658  0.18538855  0.38137533  1  0.094761  -0.004648  0.921791  -0.005  0.082558  -0.00643  0.108748  -0.00366  0.981165  -0.003  0.090862  -0.005066  0.112561  -0.00278  0.976424  -0.003  0.118519  0.106043  -0.004196  0.984618  -0.004
H  H31  1  0.97310758  0.81460143  0.88137388  1  0.094846  -0.004644  0.921722  -0.005  0.082279  -0.006427  0.108828  -0.003658  0.981129  -0.003  0.090672  -0.005065  0.112645  -0.002779  0.976384  -0.003  0.118483  0.106123  -0.004194  0.984595  -0.004
C  C32  1  0.54498464  0.65457475  0.81180832  1  0.131296  -0.003523  3.717602  -0.004  0.450489  -0.001881  0.095581  -0.000425  3.988895  -0.002  0.435326  -0.002845  0.104932  -0.001154  4.005619  -0.003  0.045493  0.089199  0.000108  3.978999  -0.001
C  C33  1  0.95500590  0.34543745  0.31181647  1  0.131037  -0.003536  3.717963  -0.004  0.45101  -0.001881  0.09544  -0.000426  3.989149  -0.002  0.430989  -0.002843  0.104795  -0.001154  4.005894  -0.003  0.045599  0.089066  0.000108  3.979242  -0.001
C  C34  1  0.45501039  0.34541202  0.18818496  1  0.131101  0.003517  3.717722  0.004  0.451008  0.001877  0.095505  0.000423  3.989012  0.002  0.431043  0.002842  0.104864  0.001154  4.005757  0.003  0.045583  0.089124  -0.000109  3.979114  0.001
C  C35  1  0.04500039  0.65458516  0.68818848  1  0.131198  0.003518  3.717639  0.004  0.451034  0.00188  0.095564  0.000425  3.988936  0.002  0.431239  0.002843  0.104914  0.001154  4.00566  0.003  0.045531  0.089185  -0.000108  3.979033  0.001
C  C36  1  0.49977792  0.80569028  0.83757087  1  -0.129714  0.002122  3.731243  0.003  0.06484  0.00312  -0.14438  0.002282  3.985324  0.003  0.065217  0.002556  -0.151364  0.001799  4.002435  0.002  -0.089306  -0.139857  0.002637  3.973845  0.003
C  C37  1  0.00021064  0.19431771  0.33758166  1  -0.129449  0.002141  3.731432  0.003  0.06447  0.00312  -0.144003  0.002282  3.985395  0.003  0.064929  0.002558  -0.150982  0.001801  4.002502  0.002  -0.089143  -0.139479  0.002637  3.973897  0.003
C  C38  1  0.50022053  0.19430421  0.16242734  1  -0.129514  -0.002115  3.731513  -0.003  0.064982  -0.003116  -0.14411  -0.002278  3.985496  -0.003  0.064894  -0.002556  -0.151089  -0.001799  4.002601  -0.002  -0.089262  -0.139587  -0.002636  3.974015  -0.003
C  C39  1  0.99980289  0.80570768  0.66242777  1  -0.129724  -0.002113  3.731413  -0.003  0.064388  -0.003117  -0.144318  -0.002279  3.985475  -0.003  0.064991  -0.002556  -0.151297  -0.001799  4.002581  -0.002  -0.0894  -0.139792  -0.002636  3.973985  -0.003
C  C40  1  0.45721959  0.93740437  0.80014335  1  0.015198  -0.003277  3.703256  -0.003  -0.069777  -0.002696  -0.000167  -0.001903  3.943865  -0.002  -0.072867  -0.002872  0.00681  -0.001934  3.957085  -0.002  -0.067996  -0.00457  -0.001915  3.934444  -0.002
C  C41  1  0.04278492  0.06260794  0.30015616  1  0.015252  -0.00329  3.70318  -0.003  -0.070091  -0.002694  -0.000166  -0.001902  3.943801  -0.002  -0.073644  -0.002876  0.006849  -0.001936  3.956977  -0.002  -0.068043  -0.004562  -0.001915  3.934363  -0.002
C  C42  1  0.54279476  0.06259574  0.19985263  1  0.01527  0.003269  3.703125  0.003  -0.069506  0.002692  -0.000136  0.001901  3.943742  0.002  -0.072869  0.002873  0.006845  0.001934  3.956963  0.002  -0.067957  -0.004537  0.001915  3.934311  0.002
C  C43  1  0.95721513  0.93740686  0.69985417  1  0.015545  0.003267  3.702968  0.003  -0.06981  0.002692  9.4e-05  0.001901  3.943648  0.002  -0.07288  0.002872  0.007083  0.001934  3.956856  0.002  -0.067881  -0.004302  0.001915  3.934221  0.002
C  C44  1  0.45870290  0.91423301  0.73824492  1  -0.124923  -0.000956  3.662525  -0.001  0.014096  0.000415  -0.143146  0.000556  3.900682  0.001  0.012831  7e-06  -0.150625  0.000237  3.921034  0.0  -0.079494  -0.138346  0.0009  3.886837  0.001
C  C45  1  0.04129544  0.08576928  0.23825843  1  -0.124917  -0.000935  3.662056  -0.001  0.013262  0.000414  -0.143263  0.000556  3.900313  0.001  0.013635  1.4e-05  -0.150746  0.000241  3.920653  0.0  -0.079484  -0.138457  0.000901  3.886468  0.001
C  C46  1  0.54129434  0.08576397  0.26174881  1  -0.124997  0.000965  3.662552  0.001  0.013432  -0.000414  -0.143174  -0.000556  3.900726  -0.001  0.013306  -1e-05  -0.150655  -0.000238  3.921073  0.0  -0.079523  -0.138386  -0.000901  3.886883  -0.001
C  C47  1  0.95870190  0.91422897  0.76175235  1  -0.125292  0.000966  3.662525  0.001  0.013617  -0.000412  -0.143407  -0.000554  3.900655  -0.001  0.013022  -7e-06  -0.150888  -0.000237  3.921005  0.0  -0.079555  -0.138614  -0.0009  3.886825  -0.001
C  C48  1  0.50428742  0.75968018  0.71537521  1  0.196228  0.002546  3.816869  0.003  0.431364  0.002226  0.199349  0.002153  4.061278  0.002  0.46275  0.001472  0.206039  0.001509  4.084625  0.001  0.106591  0.195281  0.002531  4.04581  0.002
C  C49  1  0.99571327  0.24033120  0.21539054  1  0.19657  0.002524  3.816478  0.003  0.431918  0.002228  0.199598  0.002153  4.060981  0.002  0.462818  0.001466  0.206296  0.001507  4.084336  0.001  0.106622  0.195523  0.002529  4.045518  0.002
C  C50  1  0.49572120  0.24031847  0.28461852  1  0.196291  -0.002552  3.816978  -0.003  0.431743  -0.002228  0.199408  -0.002154  4.061377  -0.002  0.462618  -0.001472  0.20611  -0.001509  4.084727  -0.001  0.106584  0.195337  -0.002531  4.045904  -0.002
C  C51  1  0.00427873  0.75967066  0.78462068  1  0.196517  -0.002551  3.816918  -0.003  0.431843  -0.002229  0.199631  -0.002154  4.061265  -0.002  0.462544  -0.001471  0.206323  -0.001509  4.084611  -0.001  0.106684  0.195558  -0.00253  4.045809  -0.002
C  C52  1  0.50518785  0.72083340  0.65200306  1  0.00305  -0.017072  3.641983  -0.016  0.590614  -0.008404  -0.047637  -0.004269  3.920474  -0.005  0.620581  -0.011685  -0.038985  -0.006681  3.929936  -0.008  0.042676  -0.0535  -0.002503  3.915122  -0.003
C  C53  1  0.99481120  0.27917199  0.15201088  1  0.002453  -0.017047  3.642324  -0.016  0.589949  -0.008405  -0.047841  -0.004272  3.920499  -0.005  0.619697  -0.011693  -0.039174  -0.006685  3.92995  -0.008  0.042688  -0.053698  -0.002505  3.915163  -0.003
C  C54  1  0.49481503  0.27916377  0.34799156  1  0.003008  0.017092  3.64265  0.016  0.590767  0.008407  -0.047462  0.004269  3.920903  0.005  0.621169  0.011686  -0.0388  0.00668  3.930361  0.008  0.042739  -0.053322  0.002504  3.915547  0.003
C  C55  1  0.00517577  0.72081956  0.84799586  1  0.002882  0.017098  3.64219  0.016  0.590947  0.008406  -0.047648  0.00427  3.920563  0.005  0.620393  0.011689  -0.038988  0.006683  3.930015  0.008  0.042803  -0.0535  0.002505  3.915218  0.003
C  C56  1  0.59855037  0.36048795  0.57409319  1  0.466125  0.001191  3.857836  -0.003  0.997699  0.00609  0.439091  0.003051  4.158182  0.0  1.048225  0.004955  0.468559  0.00243  4.164987  0.0  0.226376  0.419824  0.003435  4.152561  0.0
C  C57  1  0.90144660  0.63948711  0.07409882  1  0.465989  0.001192  3.857576  -0.003  0.997622  0.006085  0.438844  0.00305  4.158007  0.0  1.047621  0.004953  0.468305  0.00243  4.164835  0.0  0.226321  0.419584  0.003434  4.15238  0.0
C  C58  1  0.40145704  0.63951319  0.42590144  1  0.465988  -0.001195  3.857876  0.003  0.997582  -0.006094  0.438977  -0.003056  4.158204  0.0  1.048055  -0.004958  0.468442  -0.002432  4.165016  0.0  0.226373  0.419713  -0.003437  4.152576  0.0
C  C59  1  0.09854673  0.36049580  0.92590343  1  0.466043  -0.001196  3.857696  0.003  0.997238  -0.006093  0.438941  -0.003056  4.15813  0.0  1.048201  -0.004956  0.468404  -0.002433  4.164942  0.0  0.226328  0.419674  -0.003436  4.152519  0.0
S  S60  1  0.67154251  0.24038735  0.63277906  1  -0.384024  0.179798  2.086282  0.169  -0.205972  0.164683  -0.425446  0.112555  2.454904  0.109  -0.236084  0.136549  -0.463738  0.092283  2.444905  0.094  -0.201743  -0.405007  0.120546  2.463299  0.113
S  S61  1  0.82847797  0.75960363  0.13278143  1  -0.383854  0.179826  2.086391  0.169  -0.20592  0.164713  -0.425291  0.112573  2.455104  0.109  -0.23594  0.136574  -0.463587  0.092299  2.445111  0.094  -0.201689  -0.404852  0.120559  2.463498  0.113
S  S62  1  0.32846500  0.75961506  0.36721826  1  -0.38382  -0.179794  2.086365  -0.169  -0.205959  -0.164674  -0.425239  -0.112546  2.454989  -0.109  -0.236023  -0.136543  -0.463524  -0.092278  2.444977  -0.094  -0.20166  -0.404813  -0.120539  2.463389  -0.113
S  S63  1  0.17153488  0.24039516  0.86721409  1  -0.383945  -0.179811  2.0863  -0.169  -0.205794  -0.164686  -0.425392  -0.112555  2.454994  -0.109  -0.236065  -0.136557  -0.463653  -0.092287  2.444976  -0.094  -0.201714  -0.404931  -0.120556  2.463378  -0.113
N  N64  1  0.54835752  0.63282026  0.75238414  1  -0.327868  0.056536  3.329715  0.066  -1.233821  0.072643  -0.278136  0.051686  3.619483  0.064  -1.313178  0.06433  -0.30675  0.04531  3.64251  0.059  -0.34965  -0.262358  0.054751  3.606829  0.066
N  N65  1  0.95163729  0.36718971  0.25238986  1  -0.327617  0.056541  3.329688  0.066  -1.234204  0.072624  -0.278054  0.051677  3.619623  0.064  -1.313127  0.064321  -0.306695  0.045304  3.642679  0.059  -0.349671  -0.262287  0.054744  3.606979  0.066
N  N66  1  0.45163610  0.36716647  0.24761049  1  -0.327958  -0.05653  3.329607  -0.066  -1.234585  -0.072633  -0.278396  -0.05168  3.6195  -0.064  -1.312965  -0.064324  -0.307054  -0.045306  3.642574  -0.059  -0.349692  -0.262618  -0.054752  3.606841  -0.066
N  N67  1  0.04836558  0.63282519  0.74761464  1  -0.328016  -0.056528  3.329843  -0.066  -1.234507  -0.07263  -0.278334  -0.051678  3.619661  -0.064  -1.313176  -0.064323  -0.306933  -0.045305  3.642661  -0.059  -0.34974  -0.26255  -0.05475  3.606998  -0.066
N  N68  1  0.54470036  0.56930989  0.63722414  1  -0.09936  0.091456  3.511042  0.11  -0.761874  0.098959  -0.055682  0.070187  3.818015  0.09  -0.810014  0.089471  -0.072459  0.062627  3.841736  0.084  -0.236243  -0.048099  0.072571  3.804871  0.09
N  N69  1  0.95529238  0.43070386  0.13723335  1  -0.098786  0.091429  3.511106  0.11  -0.761587  0.098951  -0.055337  0.070182  3.818048  0.09  -0.808579  0.089472  -0.072117  0.062626  3.841769  0.084  -0.236076  -0.047764  0.07256  3.804922  0.09
N  N70  1  0.45530816  0.43068748  0.36277139  1  -0.099309  -0.091479  3.51123  -0.11  -0.762179  -0.098965  -0.055663  -0.070187  3.818103  -0.09  -0.810713  -0.089476  -0.072443  -0.062626  3.841822  -0.084  -0.236159  -0.048086  -0.072575  3.804959  -0.09
N  N71  1  0.04469772  0.56929160  0.86277025  1  -0.099053  -0.091474  3.510962  -0.11  -0.762105  -0.098956  -0.055503  -0.070184  3.817986  -0.09  -0.809604  -0.089477  -0.072257  -0.062628  3.841676  -0.084  -0.236204  -0.047922  -0.072564  3.804841  -0.09
N  N72  1  0.54417799  0.51740719  0.58014199  1  -0.349327  0.008158  3.019574  0.007  -0.738237  0.010043  -0.305123  0.006075  3.281171  0.004  -0.773045  0.007485  -0.328195  0.004398  3.29963  0.003  -0.237882  -0.288667  0.007333  3.268555  0.006
N  N73  1  0.95581508  0.48257239  0.08014628  1  -0.349613  0.008146  3.019604  0.007  -0.738047  0.010046  -0.30527  0.006077  3.281194  0.004  -0.772896  0.007492  -0.328333  0.0044  3.299658  0.003  -0.23813  -0.288824  0.007334  3.268592  0.006
N  N74  1  0.45582790  0.48259262  0.41985533  1  -0.34936  -0.008154  3.019559  -0.007  -0.73812  -0.01004  -0.30518  -0.006073  3.28118  -0.004  -0.772816  -0.00748  -0.328252  -0.004395  3.299647  -0.003  -0.237996  -0.288729  -0.007333  3.26856  -0.006
N  N75  1  0.04417120  0.51741028  0.91985463  1  -0.349501  -0.008153  3.019523  -0.007  -0.738104  -0.010043  -0.305194  -0.006074  3.281116  -0.004  -0.772846  -0.007486  -0.328266  -0.004399  3.299575  -0.003  -0.238013  -0.288741  -0.007334  3.268503  -0.006
N  N76  1  0.59678172  0.29668374  0.51820178  1  -0.642463  0.005268  3.141761  0.004  -1.333555  0.006087  -0.596616  0.003984  3.367786  0.003  -1.421036  0.005681  -0.618865  0.003536  3.362535  0.003  -0.564207  -0.581192  0.004041  3.37109  0.003
N  N77  1  0.90319994  0.70329070  0.01820194  1  -0.642424  0.005265  3.141401  0.004  -1.332544  0.006084  -0.596494  0.003984  3.367476  0.003  -1.420122  0.005684  -0.618743  0.003536  3.362243  0.003  -0.56404  -0.581083  0.004041  3.370787  0.003
N  N78  1  0.40323646  0.70331144  0.48179688  1  -0.642529  -0.005271  3.141605  -0.004  -1.332836  -0.006086  -0.59667  -0.003984  3.367652  -0.003  -1.421112  -0.005679  -0.618914  -0.003536  3.362407  -0.003  -0.564318  -0.581262  -0.004042  3.370953  -0.003
N  N79  1  0.09678453  0.29668684  0.98179717  1  -0.642404  -0.005271  3.141719  -0.004  -1.333315  -0.006084  -0.596572  -0.003982  3.367701  -0.003  -1.421417  -0.005684  -0.618821  -0.003535  3.362457  -0.003  -0.564173  -0.581157  -0.00404  3.37101  -0.003
Cl  Cl80  1  0.74251686  0.29588966  0.78224532  1  -0.508319  0.102772  1.109775  0.111  -0.610152  0.102451  -0.4909  0.071988  1.416259  0.081  -0.644145  0.084526  -0.521506  0.059298  1.389042  0.069  -0.293966  -0.472127  0.077974  1.434438  0.086
Cl  Cl81  1  0.75748010  0.70411334  0.28224771  1  -0.508322  0.102774  1.109761  0.111  -0.610163  0.102456  -0.490879  0.071991  1.416228  0.081  -0.644166  0.08453  -0.521505  0.059301  1.389002  0.069  -0.293983  -0.472116  0.077986  1.434407  0.086
Cl  Cl82  1  0.25748088  0.70411367  0.21774976  1  -0.508315  -0.102773  1.109769  -0.111  -0.610055  -0.102446  -0.490861  -0.071983  1.416229  -0.081  -0.644143  -0.084524  -0.521484  -0.059296  1.389004  -0.069  -0.294  -0.472102  -0.077972  1.434411  -0.086
Cl  Cl83  1  0.24251240  0.29589486  0.71774736  1  -0.508328  -0.102779  1.109704  -0.111  -0.610142  -0.102459  -0.490915  -0.071992  1.416181  -0.081  -0.64413  -0.084535  -0.521506  -0.059303  1.388952  -0.069  -0.293994  -0.472114  -0.077989  1.434316  -0.086
