# generated using pymatgen
data_NiH7C9NO5
_symmetry_space_group_name_H-M   'P 1'
_cell_length_a   9.63345311
_cell_length_b   10.85820346
_cell_length_c   11.60607182
_cell_angle_alpha   109.25386155
_cell_angle_beta   89.99166686
_cell_angle_gamma   89.91730990
_symmetry_Int_Tables_number   1
_chemical_formula_structural   NiH7C9NO5
_chemical_formula_sum   'Ni4 H28 C36 N4 O20'
_cell_volume   1146.11288310
_cell_formula_units_Z   4
loop_
 _symmetry_equiv_pos_site_id
 _symmetry_equiv_pos_as_xyz
  1  'x, y, z'
loop_
 _atom_site_type_symbol
 _atom_site_label
 _atom_site_symmetry_multiplicity
 _atom_site_fract_x
 _atom_site_fract_y
 _atom_site_fract_z
 _atom_site_occupancy
 _atom_site_pbe_bader_charge
 _atom_site_pbe_bader_spin_density
 _atom_site_pbe_cm5_charge
 _atom_site_pbe_ddec_charge
 _atom_site_pbe_ddec_spin_density
 _atom_site_pbe_ddec_sum_bond_order
 _atom_site_pbe_magmom
Ni  Ni0  1  0.22573572  0.18650412  0.45864969  1  1.286602  0.769945  0.751122  0.938789  0.898392  2.750541  0.758
Ni  Ni1  1  0.72562208  0.31355084  0.54103541  1  1.285599  0.770203  0.75145  0.938368  0.89874  2.751338  0.758
Ni  Ni2  1  0.77489464  0.81347273  0.54154401  1  1.286118  0.769879  0.751742  0.938281  0.89864  2.753898  0.758
Ni  Ni3  1  0.27502281  0.68646992  0.45875612  1  1.285029  0.770145  0.751749  0.939092  0.898985  2.751045  0.758
H  H4  1  0.35290952  0.45691643  0.70680871  1  0.064679  -0.003895  0.108129  0.078203  -0.003285  0.964015  -0.003
H  H5  1  0.10848193  0.45828183  0.76298484  1  0.058003  0.000629  0.104002  0.129544  0.000258  0.9644  0.0
H  H6  1  0.12607030  0.56175065  0.67260493  1  0.104959  -0.000174  0.110669  0.147017  -0.000253  0.984282  0.0
H  H7  1  0.09403955  0.30158131  0.30160073  1  0.184776  8e-06  0.129772  0.105424  -0.000135  1.015122  0.0
H  H8  1  0.98902016  0.23056045  0.09671474  1  0.067507  8e-06  0.111991  0.116602  2.8e-05  1.003291  0.0
H  H9  1  0.09099035  0.83316846  0.07170451  1  0.104758  7.1e-05  0.111493  0.117298  5.4e-05  1.001746  0.0
H  H10  1  0.19156586  0.92247663  0.27871553  1  0.179862  0.000617  0.125365  0.10842  0.000586  1.043818  0.0
H  H11  1  0.85277923  0.04263640  0.29292473  1  0.05575  -0.003937  0.108032  0.078027  -0.003317  0.963344  -0.003
H  H12  1  0.60840879  0.04145952  0.23691500  1  0.058054  0.000654  0.103765  0.129413  0.000272  0.964408  0.0
H  H13  1  0.62623726  0.93824522  0.32755056  1  0.10486  -0.000172  0.11067  0.14714  -0.000251  0.984217  0.0
H  H14  1  0.59383625  0.19859277  0.69784693  1  0.181775  -8e-06  0.130061  0.106144  -0.000141  1.014478  0.0
H  H15  1  0.48905226  0.26952925  0.90293015  1  0.070396  1e-06  0.111691  0.116159  2.4e-05  1.004343  0.0
H  H16  1  0.59109938  0.66681579  0.92853458  1  0.103354  6e-05  0.11148  0.11728  4.9e-05  1.001627  0.0
H  H17  1  0.69159092  0.57757083  0.72132280  1  0.179431  0.000605  0.125467  0.108891  0.000585  1.044521  0.0
H  H18  1  0.64779146  0.54414811  0.29240982  1  0.063939  -0.003844  0.108558  0.078601  -0.003247  0.962511  -0.003
H  H19  1  0.89241046  0.54339444  0.23634382  1  0.051561  0.000644  0.103994  0.129496  0.000264  0.96541  0.0
H  H20  1  0.87464901  0.43873144  0.32553480  1  0.108467  -0.000167  0.110249  0.146551  -0.000244  0.984766  0.0
H  H21  1  0.90870157  0.69808420  0.69751968  1  0.181433  0.0  0.129606  0.10549  -0.000137  1.015354  0.0
H  H22  1  0.01375849  0.76894286  0.90244088  1  0.071031  7e-06  0.111712  0.116128  2.7e-05  1.003453  0.0
H  H23  1  0.90256987  0.16549741  0.93140284  1  0.065517  6.4e-05  0.111277  0.117302  5.1e-05  1.002674  0.0
H  H24  1  0.80472722  0.07661537  0.72331888  1  0.189324  0.000596  0.125329  0.108237  0.000561  1.043748  0.0
H  H25  1  0.14793413  0.95629388  0.70789450  1  0.06014  -0.003883  0.108798  0.078961  -0.003276  0.962133  -0.003
H  H26  1  0.39249529  0.95673271  0.76377268  1  0.050527  0.000669  0.103863  0.129338  0.000277  0.965357  0.0
H  H27  1  0.37451072  0.06125953  0.67442506  1  0.108492  -0.000165  0.110243  0.146543  -0.000241  0.984801  0.0
H  H28  1  0.40877117  0.80175692  0.30292420  1  0.179925  -1.4e-05  0.129719  0.105622  -0.000144  1.015317  0.0
H  H29  1  0.51368267  0.73098465  0.09786414  1  0.070595  1e-06  0.111901  0.116742  2.3e-05  1.003858  0.0
H  H30  1  0.40273378  0.33453490  0.06840093  1  0.065783  5.3e-05  0.111241  0.1171  4.6e-05  1.002447  0.0
H  H31  1  0.30489897  0.42333261  0.27664243  1  0.189887  0.000587  0.125307  0.108306  0.000561  1.044495  0.0
C  C32  1  0.31833928  0.43544083  0.51790529  1  1.586308  -0.000238  0.219092  0.574912  9.4e-05  4.105681  -0.001
C  C33  1  0.28002515  0.40423757  0.63372922  1  0.534045  0.008485  -0.01843  0.082946  0.004028  3.987855  0.008
C  C34  1  0.13244893  0.45973073  0.67071801  1  -0.068245  0.006494  -0.16145  -0.362691  0.003828  3.882058  0.005
C  C35  1  0.02000351  0.38002641  0.58684836  1  1.547757  -0.001485  0.232207  0.65461  -0.001659  4.036075  -0.002
C  C36  1  0.09201742  0.19895758  0.24621236  1  0.434821  -0.003381  0.06238  0.112068  -0.003831  3.898522  -0.002
C  C37  1  0.03325910  0.15699315  0.13076890  1  0.00851  -0.000125  -0.07886  -0.168039  -0.00031  3.93365  0.0
C  C38  1  0.03054142  0.02353503  0.06205124  1  -0.031375  -0.003216  0.01  0.093261  -0.003472  3.997757  -0.002
C  C39  1  0.09001193  0.93832306  0.11690828  1  -0.019861  -0.000469  -0.080542  -0.173821  -0.000602  3.942168  0.0
C  C40  1  0.14838512  0.98648992  0.23251355  1  0.417178  -0.001458  0.058829  0.101095  -0.001748  3.899246  -0.001
C  C41  1  0.81835605  0.06458986  0.48196296  1  1.585244  0.000103  0.219009  0.574232  0.000409  4.105718  -0.001
C  C42  1  0.77989421  0.09554914  0.36608326  1  0.541968  0.008438  -0.01837  0.083648  0.003978  3.985961  0.008
C  C43  1  0.63236417  0.04022005  0.32925480  1  -0.068831  0.006363  -0.161406  -0.362968  0.003737  3.88152  0.005
C  C44  1  0.51973940  0.12020644  0.41309989  1  1.547705  -0.001557  0.233025  0.654897  -0.001726  4.035887  -0.002
C  C45  1  0.59191902  0.30116333  0.75341413  1  0.437404  -0.003393  0.061584  0.110623  -0.003848  3.897938  -0.002
C  C46  1  0.53325735  0.34309706  0.86895915  1  0.008358  -0.00015  -0.078206  -0.166969  -0.000335  3.933639  0.0
C  C47  1  0.53060939  0.47649418  0.93791267  1  -0.030106  -0.003219  0.009569  0.092702  -0.003478  3.997721  -0.002
C  C48  1  0.59006191  0.56168540  0.88315597  1  -0.019364  -0.000476  -0.080649  -0.173836  -0.00061  3.942058  0.0
C  C49  1  0.64837271  0.51357138  0.76743815  1  0.445468  -0.001409  0.058743  0.100225  -0.001717  3.898589  -0.001
C  C50  1  0.68261203  0.56445557  0.48103652  1  1.591115  -0.00034  0.219314  0.574048  -6e-06  4.1054  -0.001
C  C51  1  0.72077803  0.59635880  0.36554049  1  0.514485  0.008667  -0.018826  0.083294  0.004128  3.986732  0.008
C  C52  1  0.86832610  0.54100621  0.32831312  1  -0.074799  0.006577  -0.161171  -0.362641  0.003877  3.885611  0.005
C  C53  1  0.98067556  0.62007326  0.41276589  1  1.557963  -0.001457  0.233242  0.65559  -0.001625  4.036902  -0.002
C  C54  1  0.90916472  0.80048257  0.75359441  1  0.412188  -0.0034  0.063466  0.112993  -0.003836  3.898453  -0.002
C  C55  1  0.96754529  0.84233000  0.86921938  1  0.025342  -0.000104  -0.078775  -0.168467  -0.000306  3.933447  0.0
C  C56  1  0.96776664  0.97551173  0.93901300  1  -0.023161  -0.003212  0.010127  0.095506  -0.003488  3.995395  -0.002
C  C57  1  0.90623463  0.06058402  0.88503948  1  0.034277  -0.000449  -0.080832  -0.175253  -0.000582  3.942156  0.0
C  C58  1  0.84902080  0.01259833  0.76897932  1  0.431166  -0.001539  0.0587  0.100677  -0.001819  3.901037  -0.001
C  C59  1  0.18258654  0.93553093  0.51912547  1  1.591173  -5e-06  0.218702  0.573289  0.000296  4.106203  -0.001
C  C60  1  0.22090588  0.90385044  0.63466619  1  0.506019  0.008638  -0.018687  0.083762  0.00408  3.986269  0.008
C  C61  1  0.36840700  0.95901416  0.67175718  1  -0.064456  0.006437  -0.161171  -0.36259  0.00379  3.884784  0.005
C  C62  1  0.48092631  0.87969310  0.58729314  1  1.558008  -0.001532  0.233136  0.654992  -0.001688  4.036918  -0.002
C  C63  1  0.40924120  0.69939905  0.24671932  1  0.412795  -0.00341  0.06288  0.1124  -0.003846  3.898922  -0.002
C  C64  1  0.46755604  0.65760023  0.13100285  1  0.027835  -0.000133  -0.079007  -0.169425  -0.000334  3.934094  0.0
C  C65  1  0.46785056  0.52447543  0.06104299  1  -0.023084  -0.00321  0.010333  0.096207  -0.003486  3.995147  -0.002
C  C66  1  0.40638001  0.43942232  0.11491675  1  0.031781  -0.00046  -0.080886  -0.175047  -0.000592  3.942258  0.0
C  C67  1  0.34916451  0.48734273  0.23104572  1  0.432245  -0.001496  0.058613  0.100708  -0.001786  3.901664  -0.001
N  N68  1  0.14950568  0.11491632  0.29574652  1  -1.160907  -0.001574  -0.32086  -0.180923  -0.00133  3.587005  0.001
N  N69  1  0.64940410  0.38518684  0.70397846  1  -1.190665  -0.002115  -0.320794  -0.179873  -0.001715  3.585233  0.001
N  N70  1  0.85032910  0.88443821  0.70469560  1  -1.161965  -0.00176  -0.321532  -0.180521  -0.001463  3.586131  0.001
N  N71  1  0.35046996  0.61544879  0.29553219  1  -1.162887  -0.002266  -0.321003  -0.180199  -0.00184  3.586234  0.0
O  O72  1  0.30172503  0.34120239  0.41730866  1  -1.093053  0.12317  -0.28891  -0.513091  0.06924  2.310605  0.11
O  O73  1  0.35385784  0.54968296  0.52823431  1  -1.126149  0.065072  -0.290916  -0.499854  0.036732  2.357962  0.056
O  O74  1  0.28865922  0.27084422  0.61521703  1  -0.944808  -0.043583  -0.34519  -0.470851  -0.045217  2.204192  -0.036
O  O75  1  0.04738017  0.27465998  0.50188200  1  -1.064656  0.038717  -0.260998  -0.468656  0.022056  2.42298  0.036
O  O76  1  0.89579328  0.42390643  0.60744772  1  -1.089324  0.046976  -0.289544  -0.523094  0.02683  2.278398  0.043
O  O77  1  0.80173877  0.15929425  0.58242329  1  -1.090235  0.120872  -0.289294  -0.512914  0.068045  2.309879  0.108
O  O78  1  0.85411275  0.95053819  0.47218430  1  -1.126657  0.065422  -0.290336  -0.499295  0.036906  2.357577  0.057
O  O79  1  0.78851255  0.22892952  0.38446285  1  -0.943755  -0.044877  -0.345257  -0.47044  -0.04652  2.202926  -0.037
O  O80  1  0.54696625  0.22557399  0.49783880  1  -1.064729  0.04183  -0.26112  -0.469003  0.023825  2.422542  0.039
O  O81  1  0.39558885  0.07636096  0.39244484  1  -1.088875  0.044645  -0.289892  -0.522709  0.025522  2.280108  0.041
O  O82  1  0.69883091  0.65855085  0.58186403  1  -1.098411  0.121996  -0.288604  -0.511863  0.068643  2.313959  0.109
O  O83  1  0.64768544  0.44997294  0.47029887  1  -1.121717  0.065598  -0.290141  -0.498762  0.037141  2.355552  0.057
O  O84  1  0.71225168  0.72992349  0.38475023  1  -0.926464  -0.043581  -0.34523  -0.471086  -0.045189  2.204311  -0.036
O  O85  1  0.95329929  0.72501336  0.49822248  1  -1.064516  0.039949  -0.261299  -0.469029  0.0228  2.423741  0.037
O  O86  1  0.10480913  0.57606030  0.39207753  1  -1.094374  0.047896  -0.290443  -0.524874  0.027361  2.279674  0.044
O  O87  1  0.19881544  0.84100267  0.41842071  1  -1.096534  0.119665  -0.288535  -0.511679  0.067368  2.313038  0.107
O  O88  1  0.14740361  0.04982030  0.52932472  1  -1.12311  0.065996  -0.289623  -0.498375  0.037316  2.354899  0.057
O  O89  1  0.21239055  0.77030094  0.61556302  1  -0.922768  -0.044791  -0.345258  -0.47112  -0.04641  2.203099  -0.037
O  O90  1  0.45372607  0.77475526  0.50203147  1  -1.06651  0.043047  -0.261314  -0.469676  0.024547  2.423084  0.04
O  O91  1  0.60501028  0.92368495  0.60799411  1  -1.092941  0.045627  -0.290044  -0.523558  0.026085  2.28187  0.042
