# generated using pymatgen
data_ZnH7C5N5O6
_symmetry_space_group_name_H-M   'P 1'
_cell_length_a   8.18108109
_cell_length_b   9.98218063
_cell_length_c   11.14081217
_cell_angle_alpha   90.00004846
_cell_angle_beta   105.92880328
_cell_angle_gamma   90.00004143
_symmetry_Int_Tables_number   1
_chemical_formula_structural   ZnH7C5N5O6
_chemical_formula_sum   'Zn4 H28 C20 N20 O24'
_cell_volume   874.88101770
_cell_formula_units_Z   4
loop_
 _symmetry_equiv_pos_site_id
 _symmetry_equiv_pos_as_xyz
  1  'x, y, z'
loop_
 _atom_site_type_symbol
 _atom_site_label
 _atom_site_symmetry_multiplicity
 _atom_site_fract_x
 _atom_site_fract_y
 _atom_site_fract_z
 _atom_site_occupancy
 _atom_site_hle17_bader_spin_density
 _atom_site_hle17_ddec_charge
 _atom_site_hle17_ddec_spin_density
 _atom_site_hle17_ddec_sum_bond_order
 _atom_site_hle17_magmom
 _atom_site_hse06_10hf_bader_spin_density
 _atom_site_hse06_10hf_ddec_charge
 _atom_site_hse06_10hf_ddec_spin_density
 _atom_site_hse06_10hf_ddec_sum_bond_order
 _atom_site_hse06_10hf_magmom
 _atom_site_hse06_bader_spin_density
 _atom_site_hse06_ddec_charge
 _atom_site_hse06_ddec_spin_density
 _atom_site_hse06_ddec_sum_bond_order
 _atom_site_hse06_magmom
 _atom_site_pbe_bader_spin_density
 _atom_site_pbe_cm5_charge
 _atom_site_pbe_ddec_charge
 _atom_site_pbe_ddec_spin_density
 _atom_site_pbe_ddec_sum_bond_order
 _atom_site_pbe_magmom
Zn  Zn0  1  0.24091654  0.13854708  0.26041056  1  0  1.103342  0  1.744892  0  0  0.930408  0  2.187842  0  0  0.974392  0  2.136514  0  0  0.696159  0.89835  0  2.224001  0
Zn  Zn1  1  0.75908365  0.63854819  0.23959008  1  0  1.103364  0  1.744891  0  0  0.930417  0  2.187868  0  0  0.974405  0  2.13654  0  0  0.696178  0.898353  0  2.224027  0
Zn  Zn2  1  0.75908326  0.86145162  0.73958914  1  0  1.103368  0  1.744863  0  0  0.930455  0  2.187799  0  0  0.974432  0  2.136473  0  0  0.696169  0.898393  0  2.22396  0
Zn  Zn3  1  0.24091615  0.36145151  0.76040961  1  0  1.103384  0  1.744849  0  0  0.930445  0  2.187808  0  0  0.974431  0  2.136477  0  0  0.696178  0.898387  0  2.223967  0
H  H4  1  0.22255145  0.13131330  0.50791224  1  0  0.397074  0  0.901083  0  0  0.353472  0  1.002326  0  0  0.364192  0  0.986474  0  0  0.29294  0.346061  0  1.013226  0
H  H5  1  0.77744765  0.63131366  0.99208807  1  0  0.397068  0  0.901093  0  0  0.353458  0  1.002353  0  0  0.364178  0  0.9865  0  0  0.292934  0.346046  0  1.013253  0
H  H6  1  0.77744708  0.86868540  0.49208719  1  0  0.397071  0  0.901083  0  0  0.353461  0  1.002345  0  0  0.364181  0  0.986491  0  0  0.292942  0.346049  0  1.013245  0
H  H7  1  0.22255215  0.36868604  0.00791163  1  0  0.397084  0  0.901076  0  0  0.353478  0  1.002324  0  0  0.364198  0  0.98647  0  0  0.292942  0.346066  0  1.013224  0
H  H8  1  0.26751265  0.27821907  0.48182067  1  0  0.424455  0  0.871335  0  0  0.394225  0  0.937074  0  0  0.405065  0  0.92137  0  0  0.293809  0.386629  0  0.948039  0
H  H9  1  0.73248644  0.77821996  0.01817985  1  0  0.42444  0  0.871343  0  0  0.394212  0  0.93709  0  0  0.405051  0  0.921387  0  0  0.293795  0.386616  0  0.948055  0
H  H10  1  0.73248587  0.72178063  0.51817876  1  0  0.424419  0  0.871389  0  0  0.394194  0  0.937118  0  0  0.405033  0  0.921415  0  0  0.293789  0.386598  0  0.948084  0
H  H11  1  0.26751336  0.22177974  0.98181985  1  0  0.424451  0  0.871334  0  0  0.394221  0  0.937077  0  0  0.405061  0  0.921372  0  0  0.293804  0.386625  0  0.948043  0
H  H12  1  0.46406305  0.33434202  0.22473948  1  0  0.430001  0  0.858719  0  0  0.397803  0  0.930966  0  0  0.40815  0  0.915949  0  0  0.296123  0.390138  0  0.94213  0
H  H13  1  0.53593610  0.83434404  0.27526199  1  0  0.429964  0  0.858767  0  0  0.397774  0  0.931007  0  0  0.408117  0  0.915996  0  0  0.296099  0.390109  0  0.942171  0
H  H14  1  0.53593547  0.66565768  0.77525995  1  0  0.429999  0  0.858719  0  0  0.397806  0  0.930958  0  0  0.408152  0  0.915944  0  0  0.296138  0.390141  0  0.942122  0
H  H15  1  0.46406495  0.16565567  0.72473886  1  0  0.430113  0  0.858705  0  0  0.397935  0  0.930806  0  0  0.408277  0  0.915795  0  0  0.296159  0.390269  0  0.941971  0
H  H16  1  0.39906539  0.93001854  0.39506269  1  0  0.412594  0  0.899294  0  0  0.376649  0  0.972726  0  0  0.38796  0  0.956548  0  0  0.290575  0.36846  0  0.984477  0
H  H17  1  0.60093643  0.43001749  0.10493850  1  0  0.412415  0  0.899374  0  0  0.376449  0  0.972976  0  0  0.38776  0  0.956799  0  0  0.290507  0.368262  0  0.984725  0
H  H18  1  0.60093567  0.06998217  0.60493816  1  0  0.412607  0  0.8993  0  0  0.37666  0  0.972715  0  0  0.38797  0  0.95654  0  0  0.290581  0.368473  0  0.984464  0
H  H19  1  0.39906336  0.56998121  0.89506119  1  0  0.41246  0  0.89934  0  0  0.376471  0  0.972963  0  0  0.387782  0  0.956785  0  0  0.290511  0.36828  0  0.984716  0
H  H20  1  0.08774922  0.68298814  0.15590054  1  0  0.282694  0  0.965233  0  0  0.247043  0  1.054503  0  0  0.256217  0  1.047473  0  0  0.309481  0.239912  0  1.060324  0
H  H21  1  0.91225103  0.18298850  0.34409925  1  0  0.282708  0  0.965202  0  0  0.247061  0  1.054467  0  0  0.256236  0  1.047437  0  0  0.309487  0.239929  0  1.060288  0
H  H22  1  0.91225186  0.31701056  0.84409852  1  0  0.282724  0  0.965191  0  0  0.247064  0  1.054478  0  0  0.256241  0  1.047448  0  0  0.309477  0.239935  0  1.060293  0
H  H23  1  0.08774876  0.81701019  0.65590044  1  0  0.282699  0  0.965216  0  0  0.247046  0  1.054482  0  0  0.256223  0  1.047453  0  0  0.309488  0.239916  0  1.060304  0
H  H24  1  0.51857173  0.18453007  0.19999407  1  0  0.415423  0  0.894983  0  0  0.382574  0  0.962116  0  0  0.394198  0  0.945447  0  0  0.2908  0.374274  0  0.97401  0
H  H25  1  0.48142979  0.68453208  0.30000688  1  0  0.415413  0  0.895005  0  0  0.382577  0  0.962113  0  0  0.3942  0  0.945444  0  0  0.29081  0.374278  0  0.974007  0
H  H26  1  0.48142933  0.81546963  0.80000678  1  0  0.415432  0  0.894971  0  0  0.382579  0  0.962108  0  0  0.394202  0  0.94544  0  0  0.290801  0.374279  0  0.974003  0
H  H27  1  0.51857128  0.31546863  0.69999308  1  0  0.415405  0  0.894994  0  0  0.382562  0  0.962118  0  0  0.394186  0  0.94545  0  0  0.290792  0.374264  0  0.974011  0
H  H28  1  0.53817788  0.03529723  0.38057843  1  0  0.427108  0  0.851291  0  0  0.396203  0  0.926254  0  0  0.405811  0  0.915659  0  0  0.304362  0.389431  0  0.933766  0
H  H29  1  0.46182344  0.53529606  0.11942326  1  0  0.427102  0  0.851295  0  0  0.39619  0  0.926272  0  0  0.405801  0  0.915671  0  0  0.304363  0.389418  0  0.933785  0
H  H30  1  0.46182317  0.96470347  0.61942332  1  0  0.427138  0  0.85123  0  0  0.396227  0  0.926204  0  0  0.405836  0  0.91561  0  0  0.304369  0.389456  0  0.933717  0
H  H31  1  0.53817635  0.46470364  0.88057643  1  0  0.427082  0  0.851318  0  0  0.396167  0  0.926301  0  0  0.405779  0  0.915698  0  0  0.304358  0.389395  0  0.933812  0
C  C32  1  0.23601409  0.96159659  0.03556983  1  0  0.243651  0  3.830923  0  0  0.21539  0  4.116698  0  0  0.22927  0  4.128209  0  0  0.111688  0.206108  0  4.108628  0
C  C33  1  0.76398525  0.46159798  0.46442909  1  0  0.243609  0  3.830919  0  0  0.215356  0  4.11667  0  0  0.229235  0  4.128173  0  0  0.11165  0.206075  0  4.108602  0
C  C34  1  0.76398697  0.03840211  0.96443102  1  0  0.243619  0  3.831026  0  0  0.215372  0  4.116811  0  0  0.22924  0  4.128318  0  0  0.111645  0.206088  0  4.10874  0
C  C35  1  0.23601328  0.53840172  0.53556945  1  0  0.243604  0  3.830999  0  0  0.215348  0  4.116776  0  0  0.229226  0  4.128282  0  0  0.111649  0.206066  0  4.10871  0
C  C36  1  0.19459673  0.83416352  0.08106235  1  0  0.097962  0  3.716506  0  0  0.073351  0  3.987691  0  0  0.078181  0  4.005172  0  0  0.113963  0.070088  0  3.975606  0
C  C37  1  0.80540753  0.33416590  0.41893748  1  0  0.097898  0  3.716552  0  0  0.073298  0  3.987726  0  0  0.078135  0  4.005197  0  0  0.113957  0.070034  0  3.975643  0
C  C38  1  0.80540432  0.16583518  0.91893850  1  0  0.097894  0  3.716507  0  0  0.073274  0  3.987697  0  0  0.078107  0  4.005181  0  0  0.113929  0.070008  0  3.975614  0
C  C39  1  0.19459608  0.66583581  0.58106300  1  0  0.097945  0  3.716487  0  0  0.073312  0  3.987684  0  0  0.078145  0  4.005167  0  0  0.113961  0.070049  0  3.975606  0
C  C40  1  0.28045019  0.75976193  0.00469343  1  0  0.252337  0  3.833308  0  0  0.221821  0  4.120735  0  0  0.237406  0  4.129065  0  0  0.116332  0.211376  0  4.114818  0
C  C41  1  0.71955016  0.25976433  0.49530643  1  0  0.252397  0  3.83324  0  0  0.221839  0  4.120702  0  0  0.237425  0  4.129029  0  0  0.116325  0.211396  0  4.114784  0
C  C42  1  0.71955088  0.24023777  0.99530652  1  0  0.252369  0  3.8333  0  0  0.221853  0  4.120744  0  0  0.237428  0  4.129064  0  0  0.116315  0.211407  0  4.114825  0
C  C43  1  0.28044963  0.74023838  0.50469326  1  0  0.252378  0  3.833319  0  0  0.221861  0  4.120739  0  0  0.237442  0  4.129073  0  0  0.116317  0.211417  0  4.114824  0
C  C44  1  0.31921190  0.88971095  0.94981164  1  0  0.220115  0  3.795106  0  0  0.194029  0  4.083776  0  0  0.210299  0  4.089924  0  0  0.119235  0.183148  0  4.079282  0
C  C45  1  0.68079006  0.38971491  0.55019035  1  0  0.22014  0  3.795014  0  0  0.194092  0  4.083669  0  0  0.21036  0  4.089815  0  0  0.119261  0.183215  0  4.079167  0
C  C46  1  0.68079172  0.11028875  0.05018705  1  0  0.220191  0  3.794943  0  0  0.194077  0  4.083676  0  0  0.210383  0  4.08977  0  0  0.119289  0.183207  0  4.079162  0
C  C47  1  0.31920972  0.61028780  0.44981203  1  0  0.220103  0  3.79505  0  0  0.19403  0  4.083718  0  0  0.210306  0  4.089852  0  0  0.119255  0.183153  0  4.079217  0
C  C48  1  0.03273632  0.86058863  0.23241547  1  0  0.503191  0  3.789584  0  0  0.451092  0  4.07168  0  0  0.47157  0  4.084768  0  0  0.339104  0.437095  0  4.062564  0
C  C49  1  0.96726416  0.36058896  0.26758449  1  0  0.503169  0  3.789651  0  0  0.451061  0  4.071773  0  0  0.471549  0  4.084845  0  0  0.339116  0.437067  0  4.062658  0
C  C50  1  0.96726348  0.13941107  0.76758422  1  0  0.50317  0  3.789633  0  0  0.451065  0  4.071738  0  0  0.471545  0  4.084814  0  0  0.33909  0.43707  0  4.062621  0
C  C51  1  0.03273564  0.63941074  0.73241520  1  0  0.503163  0  3.789696  0  0  0.451065  0  4.0718  0  0  0.47154  0  4.084886  0  0  0.339106  0.437072  0  4.06269  0
N  N52  1  0.05942555  0.99014953  0.26450668  1  0  -0.401638  0  3.126889  0  0  -0.342748  0  3.425982  0  0  -0.363351  0  3.43843  0  0  -0.240034  -0.328862  0  3.417527  0
N  N53  1  0.94057509  0.49014880  0.23549342  1  0  -0.401658  0  3.126947  0  0  -0.342781  0  3.426049  0  0  -0.363386  0  3.438503  0  0  -0.24004  -0.328895  0  3.417594  0
N  N54  1  0.94057552  0.00985018  0.73549327  1  0  -0.401686  0  3.12691  0  0  -0.342776  0  3.425974  0  0  -0.363393  0  3.438453  0  0  -0.240042  -0.32889  0  3.417518  0
N  N55  1  0.05942470  0.50985090  0.76450717  1  0  -0.40163  0  3.126961  0  0  -0.342749  0  3.426035  0  0  -0.363356  0  3.438504  0  0  -0.240039  -0.328865  0  3.41758  0
N  N56  1  0.95951243  0.01501921  0.34083181  1  0  -0.056941  0  3.09103  0  0  -0.039564  0  3.384493  0  0  -0.040114  0  3.396978  0  0  -0.078937  -0.0388  0  3.376284  0
N  N57  1  0.04048760  0.51501882  0.15916781  1  0  -0.056823  0  3.09097  0  0  -0.039423  0  3.384408  0  0  -0.039973  0  3.396889  0  0  -0.078891  -0.038658  0  3.376199  0
N  N58  1  0.04048736  0.98498050  0.65916789  1  0  -0.056756  0  3.090873  0  0  -0.039378  0  3.38433  0  0  -0.039932  0  3.396816  0  0  -0.078863  -0.038616  0  3.37612  0
N  N59  1  0.95951219  0.48497988  0.84083188  1  0  -0.056958  0  3.090993  0  0  -0.039548  0  3.384432  0  0  -0.040108  0  3.396922  0  0  -0.078957  -0.038784  0  3.37622  0
N  N60  1  0.87758346  0.90745746  0.35485711  1  0  -0.043372  0  3.016304  0  0  -0.030294  0  3.311292  0  0  -0.028257  0  3.320745  0  0  -0.071732  -0.031485  0  3.304693  0
N  N61  1  0.12241833  0.40745717  0.14514406  1  0  -0.043481  0  3.016381  0  0  -0.030419  0  3.311396  0  0  -0.028381  0  3.320845  0  0  -0.071773  -0.031607  0  3.304799  0
N  N62  1  0.12241760  0.09254224  0.64514284  1  0  -0.043552  0  3.016271  0  0  -0.030484  0  3.311286  0  0  -0.028456  0  3.320736  0  0  -0.071765  -0.031672  0  3.30469  0
N  N63  1  0.87758145  0.59254253  0.85485653  1  0  -0.043409  0  3.016268  0  0  -0.030325  0  3.311257  0  0  -0.028294  0  3.320707  0  0  -0.071707  -0.031512  0  3.304659  0
N  N64  1  0.91979020  0.80722583  0.28734060  1  0  -0.402735  0  3.118227  0  0  -0.344674  0  3.421529  0  0  -0.365282  0  3.433152  0  0  -0.236782  -0.330062  0  3.413327  0
N  N65  1  0.08020894  0.30722558  0.21265905  1  0  -0.402687  0  3.118266  0  0  -0.344634  0  3.421586  0  0  -0.365245  0  3.433207  0  0  -0.236778  -0.330029  0  3.41339  0
N  N66  1  0.08020832  0.19277387  0.71265883  1  0  -0.402694  0  3.118223  0  0  -0.344637  0  3.421517  0  0  -0.365228  0  3.43312  0  0  -0.23682  -0.330035  0  3.413324  0
N  N67  1  0.91979085  0.69277312  0.78734154  1  0  -0.402699  0  3.118241  0  0  -0.344677  0  3.421566  0  0  -0.365265  0  3.433168  0  0  -0.236799  -0.330079  0  3.413381  0
N  N68  1  0.10905274  0.78720486  0.15917078  1  0  -0.359508  0  3.430321  0  0  -0.298002  0  3.675986  0  0  -0.317712  0  3.684863  0  0  -0.37377  -0.284108  0  3.669963  0
N  N69  1  0.89094764  0.28720520  0.34083001  1  0  -0.359449  0  3.430371  0  0  -0.297945  0  3.676032  0  0  -0.317651  0  3.684887  0  0  -0.373767  -0.284048  0  3.670002  0
N  N70  1  0.89094834  0.21279484  0.84082828  1  0  -0.359478  0  3.430281  0  0  -0.297941  0  3.675899  0  0  -0.317639  0  3.684733  0  0  -0.373697  -0.284057  0  3.669899  0
N  N71  1  0.10905214  0.71279450  0.65917148  1  0  -0.359448  0  3.430399  0  0  -0.297935  0  3.676088  0  0  -0.317622  0  3.6849  0  0  -0.373756  -0.28402  0  3.670009  0
O  O72  1  0.21445819  0.08301201  0.05896043  1  0  -0.530845  0  2.164635  0  0  -0.468076  0  2.412191  0  0  -0.491695  0  2.40689  0  0  -0.290856  -0.451448  0  2.41526  0
O  O73  1  0.78553942  0.58301333  0.44103604  1  0  -0.530862  0  2.164717  0  0  -0.468072  0  2.412209  0  0  -0.491712  0  2.406963  0  0  -0.290854  -0.45145  0  2.415282  0
O  O74  1  0.78554287  0.91698669  0.94104042  1  0  -0.53081  0  2.164704  0  0  -0.468044  0  2.412244  0  0  -0.491671  0  2.406965  0  0  -0.290828  -0.451421  0  2.415318  0
O  O75  1  0.21445787  0.41698737  0.55895954  1  0  -0.53082  0  2.164755  0  0  -0.468052  0  2.412289  0  0  -0.491679  0  2.407013  0  0  -0.290833  -0.451428  0  2.415363  0
O  O76  1  0.27712269  0.18429069  0.45443268  1  0  -0.826366  0  1.951352  0  0  -0.767134  0  2.181829  0  0  -0.786863  0  2.147423  0  0  -0.581215  -0.7533  0  2.205713  0
O  O77  1  0.72287629  0.68429160  0.04556774  1  0  -0.82633  0  1.951313  0  0  -0.767103  0  2.181794  0  0  -0.786824  0  2.147386  0  0  -0.581197  -0.753268  0  2.205679  0
O  O78  1  0.72287584  0.81570801  0.54556675  1  0  -0.826311  0  1.951351  0  0  -0.767099  0  2.181867  0  0  -0.786831  0  2.147467  0  0  -0.581194  -0.753265  0  2.205752  0
O  O79  1  0.27712224  0.31570810  0.95443169  1  0  -0.826348  0  1.95131  0  0  -0.767131  0  2.181802  0  0  -0.786854  0  2.147392  0  0  -0.581206  -0.753296  0  2.205688  0
O  O80  1  0.30862904  0.63757067  0.99364912  1  0  -0.50246  0  2.121343  0  0  -0.442565  0  2.340159  0  0  -0.463235  0  2.336347  0  0  -0.289019  -0.42809  0  2.342567  0
O  O81  1  0.69137260  0.13757359  0.50635261  1  0  -0.50249  0  2.121391  0  0  -0.44259  0  2.340187  0  0  -0.463265  0  2.336375  0  0  -0.288977  -0.428122  0  2.342596  0
O  O82  1  0.69137075  0.36242803  0.00635147  1  0  -0.502459  0  2.12139  0  0  -0.442555  0  2.340178  0  0  -0.463223  0  2.336365  0  0  -0.288989  -0.428085  0  2.342586  0
O  O83  1  0.30862845  0.86242711  0.49364914  1  0  -0.502481  0  2.121404  0  0  -0.442598  0  2.340206  0  0  -0.463265  0  2.336375  0  0  -0.288989  -0.428132  0  2.342619  0
O  O84  1  0.45587878  0.23961122  0.24881072  1  0  -0.837548  0  1.977302  0  0  -0.768951  0  2.19794  0  0  -0.7926  0  2.164961  0  0  -0.579219  -0.752063  0  2.221156  0
O  O85  1  0.54412154  0.73961322  0.25119003  1  0  -0.837505  0  1.977326  0  0  -0.768937  0  2.197981  0  0  -0.792568  0  2.164985  0  0  -0.579206  -0.752047  0  2.221196  0
O  O86  1  0.54412102  0.76038748  0.75118898  1  0  -0.837551  0  1.977281  0  0  -0.768976  0  2.197959  0  0  -0.79261  0  2.164951  0  0  -0.579228  -0.752087  0  2.221174  0
O  O87  1  0.45587699  0.26038648  0.74880941  1  0  -0.837658  0  1.977329  0  0  -0.769075  0  2.197867  0  0  -0.792727  0  2.164897  0  0  -0.579251  -0.752188  0  2.221085  0
O  O88  1  0.38682583  0.92488160  0.86812398  1  0  -0.429882  0  2.085906  0  0  -0.38374  0  2.30157  0  0  -0.402569  0  2.299093  0  0  -0.271207  -0.370642  0  2.303015  0
O  O89  1  0.61317491  0.42488460  0.63187688  1  0  -0.429863  0  2.085852  0  0  -0.383776  0  2.301524  0  0  -0.402604  0  2.29906  0  0  -0.271237  -0.370677  0  2.302966  0
O  O90  1  0.61317267  0.07511710  0.13187814  1  0  -0.429933  0  2.085693  0  0  -0.383795  0  2.301377  0  0  -0.402642  0  2.298893  0  0  -0.271249  -0.370698  0  2.302815  0
O  O91  1  0.38682616  0.57511711  0.36812307  1  0  -0.429878  0  2.085789  0  0  -0.38376  0  2.301441  0  0  -0.40259  0  2.298971  0  0  -0.271229  -0.370662  0  2.302883  0
O  O92  1  0.44174849  0.98111758  0.33148253  1  0  -0.818684  0  1.927581  0  0  -0.748316  0  2.132657  0  0  -0.771026  0  2.104298  0  0  -0.56182  -0.732214  0  2.152709  0
O  O93  1  0.55825339  0.48111656  0.16851962  1  0  -0.81854  0  1.927589  0  0  -0.748117  0  2.132724  0  0  -0.770872  0  2.104449  0  0  -0.561768  -0.732007  0  2.152746  0
O  O94  1  0.55825383  0.01888313  0.66851948  1  0  -0.818735  0  1.927539  0  0  -0.748371  0  2.132595  0  0  -0.771081  0  2.104234  0  0  -0.56183  -0.732257  0  2.152621  0
O  O95  1  0.44174640  0.51888314  0.83148008  1  0  -0.818544  0  1.927596  0  0  -0.748104  0  2.132708  0  0  -0.770854  0  2.104421  0  0  -0.561755  -0.732003  0  2.152761  0
