# generated using pymatgen
data_H6PbC14(NO2)2
_symmetry_space_group_name_H-M   'P 1'
_cell_length_a   10.87490557
_cell_length_b   15.17810368
_cell_length_c   17.29855757
_cell_angle_alpha   91.61049868
_cell_angle_beta   108.19344973
_cell_angle_gamma   90.01288881
_symmetry_Int_Tables_number   1
_chemical_formula_structural   H6PbC14(NO2)2
_chemical_formula_sum   'H48 Pb8 C112 N16 O32'
_cell_volume   2711.37106530
_cell_formula_units_Z   8
loop_
 _symmetry_equiv_pos_site_id
 _symmetry_equiv_pos_as_xyz
  1  'x, y, z'
loop_
 _atom_site_type_symbol
 _atom_site_label
 _atom_site_symmetry_multiplicity
 _atom_site_fract_x
 _atom_site_fract_y
 _atom_site_fract_z
 _atom_site_occupancy
 _atom_site_pbe_bader_charge
 _atom_site_pbe_bader_spin_density
 _atom_site_pbe_cm5_charge
 _atom_site_pbe_ddec_charge
 _atom_site_pbe_ddec_spin_density
 _atom_site_pbe_ddec_sum_bond_order
 _atom_site_pbe_magmom
H  H0  1  0.23165696  0.16946790  0.75423091  1  0.107692  0  0.118973  0.087611  0  1.002842  0
H  H1  1  0.47719487  0.33093293  0.24597657  1  0.096241  0  0.119208  0.088566  0  1.001458  0
H  H2  1  0.76835316  0.83052537  0.24576991  1  0.107539  0  0.119028  0.087648  0  1.002852  0
H  H3  1  0.52279323  0.66906752  0.75402564  1  0.096439  0  0.119176  0.088503  0  1.001598  0
H  H4  1  0.19535764  0.25553247  0.87075598  1  0.076173  0  0.11083  0.11571  0  0.987922  0
H  H5  1  0.32475272  0.24505912  0.12945061  1  0.086383  0  0.11108  0.116651  0  0.986924  0
H  H6  1  0.80465059  0.74445875  0.12924581  1  0.076121  0  0.110826  0.115721  0  0.988019  0
H  H7  1  0.67523323  0.75494135  0.87055138  1  0.086405  0  0.111062  0.116669  0  0.986946  0
H  H8  1  0.38306779  0.34458771  0.96438145  1  0.118749  0  0.110246  0.109198  0  1.005164  0
H  H9  1  0.41899332  0.15578208  0.03576856  1  0.124913  0  0.110056  0.108426  0  1.006346  0
H  H10  1  0.61694241  0.65540203  0.03562332  1  0.119107  0  0.110211  0.10912  0  1.005116  0
H  H11  1  0.58099368  0.84421910  0.96423254  1  0.125022  0  0.110011  0.108464  0  1.006168  0
H  H12  1  0.95379281  0.33557476  0.88293383  1  0.119279  0  0.10775  0.102518  0  1.026702  0
H  H13  1  0.07038245  0.16473304  0.11629041  1  0.1205  0  0.107642  0.102567  0  1.028153  0
H  H14  1  0.04621596  0.66442194  0.11706473  1  0.119413  0  0.107727  0.102484  0  1.026815  0
H  H15  1  0.92959661  0.83526936  0.88370054  1  0.121329  0  0.107669  0.10265  0  1.028152  0
H  H16  1  0.96246449  0.24835741  0.75720460  1  0.106172  0  0.113096  0.128025  0  0.999774  0
H  H17  1  0.20444608  0.25170538  0.24203172  1  0.119925  0  0.112991  0.127526  0  1.001526  0
H  H18  1  0.03754218  0.75163995  0.24279379  1  0.106214  0  0.113123  0.128052  0  0.99972  0
H  H19  1  0.79553233  0.74830057  0.75795469  1  0.119604  0  0.112949  0.127367  0  1.00164  0
H  H20  1  0.76744052  0.15595783  0.68145527  1  0.144249  0  0.117071  0.087751  0  1.039517  0
H  H21  1  0.08520872  0.34404044  0.31814866  1  0.150696  0  0.117262  0.08818  0  1.039238  0
H  H22  1  0.23256597  0.84403806  0.31854588  1  0.144131  0  0.117087  0.087786  0  1.039493  0
H  H23  1  0.91478080  0.65596461  0.68184224  1  0.150596  0  0.117279  0.088178  0  1.039297  0
H  H24  1  0.61826758  0.47862601  0.15331712  1  0.097665  0  0.113014  0.128075  0  0.98875  0
H  H25  1  0.46600634  0.02129328  0.84685986  1  0.085911  0  0.113111  0.128079  0  0.987637  0
H  H26  1  0.38173928  0.52137047  0.84668542  1  0.097584  0  0.112982  0.128049  0  0.988721  0
H  H27  1  0.53397363  0.97870665  0.15313991  1  0.085968  0  0.113168  0.128126  0  0.987467  0
H  H28  1  0.02118083  0.55178661  0.21985205  1  0.09451  0  0.109803  0.117027  0  0.992887  0
H  H29  1  0.80237135  0.94775934  0.78002522  1  0.091653  0  0.10939  0.115966  0  0.993122  0
H  H30  1  0.97882747  0.44820934  0.78014799  1  0.094375  0  0.10981  0.117058  0  0.992866  0
H  H31  1  0.19760550  0.05223807  0.21997222  1  0.091447  0  0.109355  0.115859  0  0.993231  0
H  H32  1  0.04095510  0.47372207  0.09427835  1  0.08763  0  0.107179  0.118825  0  0.99665  0
H  H33  1  0.94725076  0.02602269  0.90540739  1  0.119227  0  0.107503  0.119296  0  0.99555  0
H  H34  1  0.95904938  0.52627124  0.90572164  1  0.087607  0  0.107182  0.118827  0  0.996654  0
H  H35  1  0.05272562  0.97397464  0.09459156  1  0.118866  0  0.107486  0.119168  0  0.99551  0
H  H36  1  0.82582049  0.83263180  0.57552628  1  0.134067  0  0.111394  0.115713  0  1.010936  0
H  H37  1  0.24950317  0.66730068  0.42456385  1  0.114987  0  0.111703  0.116024  0  1.010095  0
H  H38  1  0.17419737  0.16737630  0.42448110  1  0.134001  0  0.111407  0.11574  0  1.010819  0
H  H39  1  0.75050907  0.33270148  0.57543153  1  0.115033  0  0.111725  0.115984  0  1.010278  0
H  H40  1  0.18329492  0.97627409  0.61508895  1  0.096587  0  0.108149  0.11603  0  1.022951  0
H  H41  1  0.56763920  0.52357394  0.38520341  1  0.147135  0  0.10828  0.116654  0  1.023008  0
H  H42  1  0.81671925  0.02373455  0.38490866  1  0.09648  0  0.108175  0.115957  0  1.02305  0
H  H43  1  0.43236403  0.47641889  0.61479326  1  0.147271  0  0.108265  0.116721  0  1.022913  0
H  H44  1  0.82846354  0.11609683  0.58646207  1  0.095371  0  0.106958  0.099189  0  1.049943  0
H  H45  1  0.24071501  0.38381743  0.41328060  1  0.0923  0  0.106424  0.097749  0  1.052094  0
H  H46  1  0.17154727  0.88390937  0.41354393  1  0.09541  0  0.10695  0.099266  0  1.04991  0
H  H47  1  0.75928266  0.61618330  0.58671659  1  0.092268  0  0.106449  0.097788  0  1.052109  0
Pb  Pb48  1  0.44406489  0.12937783  0.63603803  1  1.470029  0  0.658143  1.119248  0  1.873263  0
Pb  Pb49  1  0.80745141  0.37058961  0.36414567  1  1.468709  0  0.658232  1.118612  0  1.872481  0
Pb  Pb50  1  0.55594433  0.87062482  0.36396022  1  1.470117  0  0.658174  1.119283  0  1.873203  0
Pb  Pb51  1  0.19255337  0.62941787  0.63586111  1  1.468668  0  0.658218  1.118657  0  1.872496  0
Pb  Pb52  1  0.86063437  0.67134445  0.42838840  1  1.429534  0  0.656197  1.135113  0  1.789738  0
Pb  Pb53  1  0.43325261  0.82878873  0.57183168  1  1.432436  0  0.655656  1.135046  0  1.791189  0
Pb  Pb54  1  0.13938555  0.32866128  0.57161404  1  1.429515  0  0.656202  1.135058  0  1.789719  0
Pb  Pb55  1  0.56676025  0.17121196  0.42816627  1  1.432515  0  0.655601  1.135005  0  1.791132  0
C  C56  1  0.31020484  0.20744451  0.79685648  1  0.523593  0  0.063726  0.117419  0  3.95211  0
C  C57  1  0.51322192  0.29291387  0.20328539  1  0.559762  0  0.064079  0.116656  0  3.950252  0
C  C58  1  0.68980537  0.79255138  0.20314454  1  0.523216  0  0.0637  0.117367  0  3.952254  0
C  C59  1  0.48676857  0.70708727  0.79671633  1  0.559884  0  0.064102  0.116781  0  3.950244  0
C  C60  1  0.29032025  0.25586779  0.86207668  1  -0.047783  0  -0.077678  -0.116117  0  3.972152  0
C  C61  1  0.42832045  0.24457556  0.13806749  1  -0.069097  0  -0.078352  -0.117224  0  3.97194  0
C  C62  1  0.70968783  0.74412536  0.13792602  1  -0.047865  0  -0.07769  -0.116142  0  3.972291  0
C  C63  1  0.57166762  0.75542424  0.86193467  1  -0.069054  0  -0.078306  -0.117214  0  3.971974  0
C  C64  1  0.39222891  0.30488816  0.91307483  1  -0.05015  0  -0.060376  -0.054901  0  3.938085  0
C  C65  1  0.47933074  0.19547471  0.08701143  1  0.018205  0  -0.060756  -0.055111  0  3.941956  0
C  C66  1  0.60778069  0.69510370  0.08692741  1  -0.050283  0  -0.06032  -0.054762  0  3.93789  0
C  C67  1  0.52065589  0.80452589  0.91298828  1  0.018274  0  -0.060712  -0.055109  0  3.941668  0
C  C68  1  0.51253056  0.30356277  0.89865543  1  -0.009988  0  0.000774  -0.02467  0  3.955377  0
C  C69  1  0.61392275  0.19673686  0.10127959  1  -0.020496  0  0.000572  -0.025042  0  3.955354  0
C  C70  1  0.48747804  0.69643245  0.10134590  1  -0.010152  0  0.000741  -0.024628  0  3.955445  0
C  C71  1  0.38606307  0.80326307  0.89872026  1  -0.020445  0  0.000585  -0.025155  0  3.955566  0
C  C72  1  0.62430177  0.35110999  0.95271371  1  0.570565  0  0.125071  0.129718  0  4.015758  0
C  C73  1  0.67174600  0.14916529  0.04710504  1  0.571406  0  0.124699  0.12883  0  4.01507  0
C  C74  1  0.37570724  0.64888713  0.04728910  1  0.570649  0  0.125036  0.129594  0  4.016101  0
C  C75  1  0.32823750  0.85083279  0.95289234  1  0.57126  0  0.124635  0.128996  0  4.015176  0
C  C76  1  0.74614029  0.34829898  0.93640536  1  0.546063  0  0.124106  0.132766  0  4.014148  0
C  C77  1  0.80972422  0.15203750  0.06321151  1  0.575774  0  0.12424  0.134041  0  4.00892  0
C  C78  1  0.25386645  0.65169761  0.06359509  1  0.54569  0  0.124145  0.132774  0  4.01419  0
C  C79  1  0.19025766  0.84796513  0.93678734  1  0.575466  0  0.124189  0.133882  0  4.008957  0
C  C80  1  0.75601028  0.29822330  0.86544919  1  0.018897  0  -0.002183  -0.028986  0  3.962032  0
C  C81  1  0.89026469  0.20215059  0.13409168  1  -0.071238  0  -0.002268  -0.029278  0  3.961012  0
C  C82  1  0.24400176  0.70177332  0.13455075  1  0.019147  0  -0.002143  -0.029128  0  3.962212  0
C  C83  1  0.10971981  0.79785276  0.86590591  1  -0.071146  0  -0.002207  -0.029145  0  3.96114  0
C  C84  1  0.87151572  0.29686666  0.84502459  1  -0.038963  0  -0.06072  -0.053518  0  3.929794  0
C  C85  1  0.02603369  0.20343241  0.15432955  1  0.005345  0  -0.060357  -0.053209  0  3.930855  0
C  C86  1  0.12849443  0.70313067  0.15497442  1  -0.039046  0  -0.060745  -0.053453  0  3.929902  0
C  C87  1  0.97395226  0.79657383  0.84566368  1  0.004616  0  -0.060592  -0.053674  0  3.931147  0
C  C88  1  0.87702824  0.24782378  0.77747184  1  -0.011993  0  -0.07771  -0.12455  0  3.940254  0
C  C89  1  0.09889249  0.25232896  0.22190094  1  -0.072753  0  -0.077955  -0.124519  0  3.94196  0
C  C90  1  0.12297646  0.75217232  0.22252548  1  -0.011744  0  -0.07764  -0.124424  0  3.940137  0
C  C91  1  0.90109015  0.74767604  0.77809082  1  -0.072151  0  -0.077774  -0.123984  0  3.941724  0
C  C92  1  0.76753816  0.19814879  0.73341587  1  0.483647  0  0.065302  0.128091  0  3.919589  0
C  C93  1  0.03345718  0.30193851  0.26616643  1  0.477406  0  0.064066  0.125845  0  3.920114  0
C  C94  1  0.23246848  0.80184791  0.26658248  1  0.483808  0  0.065227  0.127996  0  3.919444  0
C  C95  1  0.96653139  0.69806846  0.73382555  1  0.476959  0  0.064016  0.125613  0  3.92032  0
C  C96  1  0.64818902  0.24950039  0.81510624  1  0.503381  0  0.126589  0.136553  0  3.974624  0
C  C97  1  0.83271643  0.25077250  0.18461795  1  0.557455  0  0.127162  0.137226  0  3.974099  0
C  C98  1  0.35181844  0.75049698  0.18489198  1  0.503086  0  0.126536  0.136515  0  3.974787  0
C  C99  1  0.16726699  0.74923224  0.81537858  1  0.557033  0  0.127202  0.137312  0  3.974021  0
C  C100  1  0.52394416  0.25271349  0.83149426  1  0.559275  0  0.127684  0.140473  0  3.972989  0
C  C101  1  0.69225054  0.24754430  0.16841102  1  0.493364  0  0.127325  0.141371  0  3.970384  0
C  C102  1  0.47605882  0.74728177  0.16850623  1  0.559479  0  0.127757  0.140555  0  3.972772  0
C  C103  1  0.30773330  0.75245959  0.83158890  1  0.493224  0  0.127383  0.141398  0  3.970446  0
C  C104  1  0.71770668  0.43540445  0.06851846  1  0.498587  0  0.111593  0.160221  0  4.03056  0
C  C105  1  0.64979114  0.06464056  0.93140214  1  0.513512  0  0.112489  0.161735  0  4.031027  0
C  C106  1  0.28230004  0.56459148  0.93148194  1  0.498  0  0.111691  0.160364  0  4.0304  0
C  C107  1  0.35018372  0.93535807  0.06859727  1  0.514198  0  0.112376  0.161612  0  4.031421  0
C  C108  1  0.70992652  0.47903984  0.14020558  1  -0.006404  0  -0.075726  -0.166511  0  3.932384  0
C  C109  1  0.57064569  0.02090358  0.85983989  1  -0.007107  0  -0.075906  -0.166621  0  3.932497  0
C  C110  1  0.29007630  0.52095422  0.85979272  1  -0.00635  0  -0.075686  -0.166591  0  3.932274  0
C  C111  1  0.42933062  0.97909491  0.14016202  1  -0.007538  0  -0.07584  -0.166483  0  3.932075  0
C  C112  1  0.81789339  0.52044506  0.19286932  1  -0.02934  0  -0.006637  -0.011893  0  3.966813  0
C  C113  1  0.62610391  0.97941119  0.80714010  1  -0.078749  0  -0.007279  -0.01341  0  3.970334  0
C  C114  1  0.18211305  0.47954951  0.80713174  1  -0.02922  0  -0.006655  -0.011711  0  3.966586  0
C  C115  1  0.37386764  0.02058933  0.19286095  1  -0.077613  0  -0.007434  -0.013609  0  3.970488  0
C  C116  1  0.93803004  0.51916543  0.17607490  1  -0.028855  0  -0.07503  -0.077401  0  3.948453  0
C  C117  1  0.76289239  0.98058337  0.82379393  1  0.01358  0  -0.074192  -0.075298  0  3.948045  0
C  C118  1  0.06197747  0.48083051  0.82392532  1  -0.028897  0  -0.07506  -0.077479  0  3.94832  0
C  C119  1  0.23708186  0.01941398  0.17620480  1  0.013928  0  -0.074112  -0.075074  0  3.948563  0
C  C120  1  0.94946838  0.47600320  0.10768018  1  -0.025737  0  -0.08513  -0.153508  0  3.961309  0
C  C121  1  0.84245284  0.02382998  0.89207983  1  -0.020429  0  -0.084599  -0.153079  0  3.960753  0
C  C122  1  0.05053638  0.52399147  0.89231914  1  -0.025386  0  -0.085126  -0.153533  0  3.961305  0
C  C123  1  0.15752540  0.97616873  0.10791810  1  -0.020985  0  -0.084586  -0.152895  0  3.960943  0
C  C124  1  0.83982250  0.43301457  0.05208966  1  0.477471  0  0.113588  0.165896  0  4.023877  0
C  C125  1  0.78820187  0.06704562  0.94764834  1  0.46227  0  0.11271  0.164687  0  4.026634  0
C  C126  1  0.16018395  0.56698000  0.94791140  1  0.477034  0  0.113524  0.16587  0  4.023857  0
C  C127  1  0.21177449  0.93295105  0.05235057  1  0.462385  0  0.112635  0.16448  0  4.026939  0
C  C128  1  0.80887955  0.56668735  0.26869442  1  1.581958  0  0.206834  0.566054  0  4.237174  0
C  C129  1  0.54157044  0.93311005  0.73143204  1  1.577229  0  0.206485  0.56682  0  4.235593  0
C  C130  1  0.19113000  0.43330908  0.73130893  1  1.581962  0  0.206796  0.565931  0  4.237196  0
C  C131  1  0.45840768  0.06688851  0.26856876  1  1.577233  0  0.206416  0.56663  0  4.23573  0
C  C132  1  0.81209335  0.97398164  0.58227871  1  -0.069972  0  -0.019974  -0.045086  0  4.002086  0
C  C133  1  0.22877403  0.52593726  0.41765009  1  -0.011625  0  -0.020097  -0.044306  0  4.003673  0
C  C134  1  0.18791760  0.02601922  0.41772823  1  -0.069498  0  -0.020059  -0.045334  0  4.001986  0
C  C135  1  0.77123188  0.47406691  0.58234478  1  -0.011808  0  -0.020037  -0.044242  0  4.003687  0
C  C136  1  0.87821141  0.89503836  0.58308774  1  -0.050018  0  -0.067808  -0.083585  0  3.9099  0
C  C137  1  0.29428778  0.60487467  0.41701030  1  -0.034934  0  -0.068564  -0.085296  0  3.910165  0
C  C138  1  0.12180024  0.10496916  0.41691817  1  -0.049768  0  -0.067667  -0.083432  0  3.909618  0
C  C139  1  0.70572439  0.39512551  0.58298493  1  -0.035076  0  -0.068581  -0.085224  0  3.910333  0
C  C140  1  0.01162103  0.89570064  0.59501977  1  -0.027001  0  -0.020281  -0.039502  0  3.960046  0
C  C141  1  0.41589678  0.60419220  0.40517011  1  -0.024799  0  -0.019792  -0.037649  0  3.95798  0
C  C142  1  0.98838982  0.10430649  0.40498132  1  -0.027219  0  -0.020341  -0.039498  0  3.960079  0
C  C143  1  0.58411254  0.39580683  0.59482213  1  -0.023984  0  -0.019794  -0.03766  0  3.958086  0
C  C144  1  0.07923140  0.97608082  0.60499325  1  -0.040831  0  -0.06651  -0.081715  0  3.879423  0
C  C145  1  0.47356129  0.52379349  0.39523639  1  -0.060158  0  -0.066881  -0.083633  0  3.879637  0
C  C146  1  0.92077912  0.02392638  0.39500650  1  -0.040915  0  -0.066572  -0.081676  0  3.879659  0
C  C147  1  0.52644585  0.47620461  0.60476053  1  -0.060582  0  -0.06688  -0.083703  0  3.879643  0
C  C148  1  0.01186473  0.05544270  0.60045297  1  -0.030526  0  -0.022887  -0.046093  0  3.991874  0
C  C149  1  0.41057056  0.44446219  0.39971366  1  -0.026998  0  -0.022718  -0.043554  0  3.988856  0
C  C150  1  0.98813880  0.94456704  0.39954860  1  -0.029914  0  -0.0228  -0.046164  0  3.992162  0
C  C151  1  0.58943651  0.55553707  0.60028622  1  -0.027326  0  -0.0227  -0.043599  0  3.989031  0
C  C152  1  0.87908742  0.05372361  0.58999698  1  0.038511  0  -0.072872  -0.104811  0  3.954482  0
C  C153  1  0.28801721  0.44619457  0.40995203  1  -0.023754  0  -0.071942  -0.104482  0  3.95464  0
C  C154  1  0.12091742  0.94627930  0.41000870  1  0.03785  0  -0.07291  -0.104858  0  3.954598  0
C  C155  1  0.71198785  0.55380486  0.59004478  1  -0.023682  0  -0.072039  -0.104577  0  3.955089  0
C  C156  1  0.67142769  0.97340054  0.57594583  1  1.587349  0  0.218697  0.58715  0  4.224042  0
C  C157  1  0.09422002  0.52657454  0.42365296  1  1.576631  0  0.217359  0.583806  0  4.226099  0
C  C158  1  0.32859371  0.02660296  0.42406107  1  1.586945  0  0.218744  0.587473  0  4.223512  0
C  C159  1  0.90577830  0.47343155  0.57634310  1  1.576569  0  0.217496  0.584124  0  4.22592  0
C  C160  1  0.07512465  0.14347160  0.60273126  1  1.560084  0  0.207904  0.563408  0  4.227749  0
C  C161  1  0.47149752  0.35641299  0.39748336  1  1.542987  0  0.206507  0.560266  0  4.23064  0
C  C162  1  0.92488753  0.85654073  0.39727138  1  1.560195  0  0.207986  0.563643  0  4.227515  0
C  C163  1  0.52850271  0.64358414  0.60251934  1  1.543171  0  0.206532  0.560404  0  4.230622  0
C  C164  1  0.07846797  0.80936536  0.59559186  1  1.525344  0  0.208323  0.578724  0  4.206095  0
C  C165  1  0.48214578  0.69055634  0.40447481  1  1.551889  0  0.208256  0.577313  0  4.207676  0
C  C166  1  0.92154438  0.19063981  0.40440873  1  1.524938  0  0.208272  0.578591  0  4.206176  0
C  C167  1  0.51786523  0.30943984  0.59552107  1  1.552109  0  0.208222  0.577336  0  4.208053  0
N  N168  1  0.42302496  0.20588627  0.78165335  1  -1.190151  0  -0.286595  -0.280154  0  3.410965  0
N  N169  1  0.64113296  0.29434562  0.21840463  1  -1.229757  0  -0.286069  -0.279995  0  3.409355  0
N  N170  1  0.57698245  0.79410979  0.21834476  1  -1.18986  0  -0.28665  -0.280213  0  3.411047  0
N  N171  1  0.35885656  0.70565678  0.78159813  1  -1.229603  0  -0.286081  -0.280096  0  3.40925  0
N  N172  1  0.65679855  0.19916052  0.75139437  1  -1.224168  0  -0.289177  -0.278216  0  3.420646  0
N  N173  1  0.90488238  0.30097406  0.24837094  1  -1.182024  0  -0.288244  -0.276705  0  3.420628  0
N  N174  1  0.34321010  0.80083877  0.24860515  1  -1.224276  0  -0.289169  -0.278209  0  3.420541  0
N  N175  1  0.09510811  0.69903010  0.75162392  1  -1.18169  0  -0.288273  -0.276656  0  3.420662  0
N  N176  1  0.61138237  0.39453370  0.01762403  1  -1.152135  0  -0.292832  -0.289948  0  3.287779  0
N  N177  1  0.59420229  0.10560651  0.98232731  1  -1.170888  0  -0.292886  -0.289875  0  3.287337  0
N  N178  1  0.38862547  0.60546216  0.98237753  1  -1.15162  0  -0.292851  -0.289985  0  3.287912  0
N  N179  1  0.40577575  0.89439007  0.01767334  1  -1.170539  0  -0.292807  -0.289934  0  3.287584  0
N  N180  1  0.85119739  0.38940224  0.98537145  1  -1.194898  0  -0.296424  -0.300205  0  3.279986  0
N  N181  1  0.86597780  0.11083363  0.01421693  1  -1.194727  0  -0.296369  -0.301131  0  3.278436  0
N  N182  1  0.14880640  0.61059369  0.01462891  1  -1.194569  0  -0.296423  -0.300162  0  3.279887  0
N  N183  1  0.13399992  0.88916643  0.98578052  1  -1.195068  0  -0.296212  -0.300866  0  3.278449  0
O  O184  1  0.87685816  0.63697681  0.29173265  1  -1.149351  0  -0.294006  -0.537209  0  2.186928  0
O  O185  1  0.58654833  0.86285722  0.70830867  1  -1.148704  0  -0.29427  -0.537906  0  2.185804  0
O  O186  1  0.12315235  0.36302110  0.70826776  1  -1.149284  0  -0.29399  -0.537152  0  2.186981  0
O  O187  1  0.41342771  0.13713991  0.29169391  1  -1.148766  0  -0.294175  -0.537838  0  2.185821  0
O  O188  1  0.73608465  0.53407436  0.30562554  1  -1.188355  0  -0.306702  -0.596371  0  2.207014  0
O  O189  1  0.43195929  0.96564644  0.69466094  1  -1.189048  0  -0.306594  -0.596485  0  2.20472  0
O  O190  1  0.26392928  0.46591879  0.69437724  1  -1.188433  0  -0.306683  -0.596359  0  2.206939  0
O  O191  1  0.56801953  0.03435290  0.30533762  1  -1.189766  0  -0.306554  -0.5963  0  2.204808  0
O  O192  1  0.60267313  0.90873573  0.53491440  1  -1.189079  0  -0.294485  -0.591457  0  2.301748  0
O  O193  1  0.06625073  0.59109039  0.46482882  1  -1.188384  0  -0.294443  -0.589805  0  2.30026  0
O  O194  1  0.39734795  0.09127098  0.46509426  1  -1.189726  0  -0.294472  -0.591585  0  2.301594  0
O  O195  1  0.93376269  0.40891929  0.53517402  1  -1.188254  0  -0.294547  -0.590028  0  2.30025  0
O  O196  1  0.63255868  0.03561861  0.61200165  1  -1.19421  0  -0.297754  -0.573598  0  2.272467  0
O  O197  1  0.01939998  0.46456606  0.38722668  1  -1.193746  0  -0.296898  -0.571588  0  2.273881  0
O  O198  1  0.36745398  0.96437390  0.38801274  1  -1.193619  0  -0.297709  -0.573671  0  2.272471  0
O  O199  1  0.98059859  0.53544622  0.61276487  1  -1.193692  0  -0.296987  -0.571775  0  2.273799  0
O  O200  1  0.00403319  0.21157103  0.59739570  1  -1.143218  0  -0.292188  -0.519068  0  2.175003  0
O  O201  1  0.40578010  0.28834719  0.40303089  1  -1.146697  0  -0.292149  -0.518597  0  2.17586  0
O  O202  1  0.99596593  0.78843534  0.40259523  1  -1.143488  0  -0.292237  -0.51922  0  2.174924  0
O  O203  1  0.59422441  0.71165001  0.59698221  1  -1.146771  0  -0.292178  -0.518636  0  2.175923  0
O  O204  1  0.19445925  0.14861371  0.60795239  1  -1.212272  0  -0.305359  -0.612691  0  2.292253  0
O  O205  1  0.58552477  0.35122585  0.39204413  1  -1.210826  0  -0.304413  -0.611091  0  2.294743  0
O  O206  1  0.80556268  0.85139509  0.39206620  1  -1.211997  0  -0.305471  -0.612813  0  2.292428  0
O  O207  1  0.41447324  0.64876893  0.60795320  1  -1.210849  0  -0.304374  -0.611129  0  2.294741  0
O  O208  1  0.00683456  0.73972242  0.57499620  1  -1.188852  0  -0.300376  -0.602396  0  2.296846  0
O  O209  1  0.43099385  0.76018097  0.42512296  1  -1.189343  0  -0.300121  -0.602696  0  2.298622  0
O  O210  1  0.99317374  0.26028557  0.42500128  1  -1.188631  0  -0.300302  -0.60225  0  2.296737  0
O  O211  1  0.56902149  0.23981651  0.57487346  1  -1.189569  0  -0.30003  -0.602675  0  2.298842  0
O  O212  1  0.20124199  0.80656394  0.61880804  1  -1.157142  0  -0.30108  -0.592069  0  2.225293  0
O  O213  1  0.58165455  0.69340465  0.38106321  1  -1.182626  0  -0.30089  -0.590616  0  2.224821  0
O  O214  1  0.79876997  0.19343971  0.38119606  1  -1.156868  0  -0.301139  -0.592088  0  2.225311  0
O  O215  1  0.41835195  0.30659426  0.61893108  1  -1.182728  0  -0.300891  -0.59064  0  2.225034  0
