# generated using pymatgen
data_UH10C7N2O7
_symmetry_space_group_name_H-M   'P 1'
_cell_length_a   6.92896957
_cell_length_b   8.17300661
_cell_length_c   11.12529215
_cell_angle_alpha   106.81442934
_cell_angle_beta   95.95834926
_cell_angle_gamma   110.78815960
_symmetry_Int_Tables_number   1
_chemical_formula_structural   UH10C7N2O7
_chemical_formula_sum   'U2 H20 C14 N4 O14'
_cell_volume   548.62175450
_cell_formula_units_Z   2
loop_
 _symmetry_equiv_pos_site_id
 _symmetry_equiv_pos_as_xyz
  1  'x, y, z'
loop_
 _atom_site_type_symbol
 _atom_site_label
 _atom_site_symmetry_multiplicity
 _atom_site_fract_x
 _atom_site_fract_y
 _atom_site_fract_z
 _atom_site_occupancy
 _atom_site_hle17_bader_spin_density
 _atom_site_hle17_ddec_charge
 _atom_site_hle17_ddec_spin_density
 _atom_site_hle17_ddec_sum_bond_order
 _atom_site_hle17_magmom
 _atom_site_hse06_10hf_bader_spin_density
 _atom_site_hse06_10hf_ddec_charge
 _atom_site_hse06_10hf_ddec_spin_density
 _atom_site_hse06_10hf_ddec_sum_bond_order
 _atom_site_hse06_10hf_magmom
 _atom_site_hse06_bader_spin_density
 _atom_site_hse06_ddec_charge
 _atom_site_hse06_ddec_spin_density
 _atom_site_hse06_ddec_sum_bond_order
 _atom_site_hse06_magmom
 _atom_site_pbe_bader_spin_density
 _atom_site_pbe_cm5_charge
 _atom_site_pbe_ddec_charge
 _atom_site_pbe_ddec_spin_density
 _atom_site_pbe_ddec_sum_bond_order
 _atom_site_pbe_magmom
U  U0  1  0.03125744  0.14316947  0.74443997  1  0  2.446924  0  4.172962  0  0  2.507482  0  4.833177  0  0  2.61643  0  4.79784  0  0  2.188295  2.429933  0  4.859789  0
U  U1  1  0.96872884  0.85682147  0.25556087  1  0  2.447105  0  4.172951  0  0  2.507651  0  4.833181  0  0  2.616577  0  4.797906  0  0  2.18838  2.430075  0  4.859887  0
H  H2  1  0.45150181  0.17299387  0.13009643  1  0  0.133617  0  0.93198  0  0  0.150783  0  0.985283  0  0  0.153095  0  0.983726  0  0  0.111648  0.149161  0  0.986601  0
H  H3  1  0.54850102  0.82701114  0.86990042  1  0  0.13367  0  0.932034  0  0  0.150794  0  0.98533  0  0  0.153136  0  0.983768  0  0  0.111658  0.149179  0  0.986644  0
H  H4  1  0.53213337  0.41369112  0.15401330  1  0  0.125465  0  0.940291  0  0  0.138855  0  0.997696  0  0  0.141256  0  0.996513  0  0  0.109692  0.137187  0  0.998685  0
H  H5  1  0.46787380  0.58631390  0.84598743  1  0  0.125517  0  0.940142  0  0  0.138897  0  0.997516  0  0  0.141317  0  0.996343  0  0  0.109698  0.13723  0  0.998504  0
H  H6  1  0.68912085  0.15108408  0.97102857  1  0  0.072426  0  0.937181  0  0  0.085934  0  1.003032  0  0  0.086478  0  1.002437  0  0  0.113555  0.085482  0  1.003679  0
H  H7  1  0.31088007  0.84891672  0.02897085  1  0  0.072403  0  0.937174  0  0  0.085933  0  1.003024  0  0  0.086476  0  1.002426  0  0  0.113556  0.085486  0  1.003664  0
H  H8  1  0.78617298  0.39604944  0.01090615  1  0  0.0924  0  0.947954  0  0  0.105525  0  1.010794  0  0  0.108008  0  1.008688  0  0  0.121445  0.103624  0  1.012448  0
H  H9  1  0.21383229  0.60395139  0.98909446  1  0  0.092396  0  0.94793  0  0  0.105528  0  1.01079  0  0  0.108013  0  1.008674  0  0  0.121451  0.103629  0  1.012445  0
H  H10  1  0.84780032  0.19068850  0.18167058  1  0  0.302455  0  0.920436  0  0  0.28192  0  0.989485  0  0  0.289703  0  0.983631  0  0  0.317584  0.276494  0  0.993546  0
H  H11  1  0.15220413  0.80931372  0.81833027  1  0  0.302429  0  0.920446  0  0  0.281891  0  0.989504  0  0  0.289673  0  0.983646  0  0  0.317575  0.276465  0  0.993562  0
H  H12  1  0.11270559  0.35119207  0.35315767  1  0  0.298248  0  0.923536  0  0  0.284435  0  0.981163  0  0  0.291704  0  0.976118  0  0  0.315905  0.279364  0  0.984637  0
H  H13  1  0.88730406  0.64880879  0.64684233  1  0  0.29823  0  0.92357  0  0  0.284401  0  0.981227  0  0  0.291672  0  0.976179  0  0  0.315892  0.279326  0  0.984703  0
H  H14  1  0.24829441  0.64029843  0.59314828  1  0  0.116472  0  0.930433  0  0  0.129873  0  0.99085  0  0  0.131894  0  0.990645  0  0  0.106977  0.12842  0  0.991147  0
H  H15  1  0.75170525  0.35969958  0.40684956  1  0  0.116535  0  0.930377  0  0  0.129919  0  0.990808  0  0  0.131954  0  0.990595  0  0  0.106999  0.12846  0  0.991108  0
H  H16  1  0.47516974  0.83587513  0.60429039  1  0  0.141901  0  0.915729  0  0  0.157926  0  0.970963  0  0  0.160435  0  0.969535  0  0  0.12465  0.156196  0  0.972117  0
H  H17  1  0.52483324  0.16412707  0.39571306  1  0  0.141877  0  0.915692  0  0  0.157928  0  0.970898  0  0  0.160442  0  0.969471  0  0  0.124667  0.156194  0  0.97206  0
H  H18  1  0.40310679  0.72505880  0.35825039  1  0  0.089951  0  0.92019  0  0  0.105961  0  0.975843  0  0  0.107844  0  0.974023  0  0  0.125877  0.104501  0  0.977315  0
H  H19  1  0.59689995  0.27494205  0.64174853  1  0  0.089939  0  0.920201  0  0  0.105969  0  0.975839  0  0  0.107854  0  0.974016  0  0  0.125895  0.104505  0  0.977315  0
H  H20  1  0.47613273  0.58281398  0.42839585  1  0  0.073528  0  0.912481  0  0  0.092383  0  0.965467  0  0  0.092438  0  0.965478  0  0  0.112919  0.092348  0  0.965559  0
H  H21  1  0.52387173  0.41718825  0.57160410  1  0  0.073528  0  0.91248  0  0  0.092345  0  0.965524  0  0  0.092396  0  0.965535  0  0  0.112905  0.092308  0  0.965619  0
C  C22  1  0.33786672  0.22524437  0.96893083  1  0  0.717269  0  3.785262  0  0  0.682351  0  4.088387  0  0  0.718662  0  4.080758  0  0  0.219824  0.657657  0  4.092162  0
C  C23  1  0.66213672  0.77476203  0.03106905  1  0  0.717234  0  3.78539  0  0  0.682291  0  4.088479  0  0  0.718629  0  4.080853  0  0  0.219817  0.657599  0  4.092252  0
C  C24  1  0.50932042  0.27850045  0.08437456  1  0  -0.304032  0  3.635428  0  0  -0.33825  0  3.874101  0  0  -0.34463  0  3.879859  0  0  -0.160033  -0.334059  0  3.870162  0
C  C25  1  0.49068594  0.72150597  0.91562462  1  0  -0.304148  0  3.635438  0  0  -0.338243  0  3.874026  0  0  -0.34473  0  3.879885  0  0  -0.16004  -0.334056  0  3.870091  0
C  C26  1  0.71814036  0.28261431  0.04758224  1  0  0.085811  0  3.621372  0  0  0.022973  0  3.886896  0  0  0.029317  0  3.895091  0  0  -0.049926  0.018814  0  3.881236  0
C  C27  1  0.28186618  0.71738932  0.95241816  1  0  0.085933  0  3.621451  0  0  0.022993  0  3.887017  0  0  0.029362  0  3.89523  0  0  -0.049913  0.018833  0  3.881359  0
C  C28  1  0.03674044  0.46722191  0.22720605  1  0  0.730629  0  3.872378  0  0  0.664486  0  4.183113  0  0  0.702416  0  4.1773  0  0  0.353824  0.638565  0  4.186107  0
C  C29  1  0.96326047  0.53277890  0.77279337  1  0  0.730702  0  3.872246  0  0  0.664513  0  4.183026  0  0  0.70244  0  4.177215  0  0  0.353849  0.638588  0  4.186027  0
C  C30  1  0.31838855  0.73492518  0.54185641  1  0  -0.308093  0  3.626657  0  0  -0.347496  0  3.871159  0  0  -0.354839  0  3.877511  0  0  -0.154478  -0.342596  0  3.866985  0
C  C31  1  0.68161236  0.26507563  0.45814301  1  0  -0.308187  0  3.626555  0  0  -0.347581  0  3.871048  0  0  -0.354952  0  3.87742  0  0  -0.154539  -0.342679  0  3.866875  0
C  C32  1  0.19063723  0.84943953  0.53410351  1  0  0.772799  0  3.745273  0  0  0.73891  0  4.044251  0  0  0.778625  0  4.02967  0  0  0.259916  0.711415  0  4.05341  0
C  C33  1  0.80935741  0.15055704  0.46589728  1  0  0.772936  0  3.745029  0  0  0.739082  0  4.043935  0  0  0.778789  0  4.029376  0  0  0.259985  0.7116  0  4.053079  0
C  C34  1  0.34999444  0.63096412  0.41205538  1  0  0.100301  0  3.636904  0  0  0.041407  0  3.897809  0  0  0.048409  0  3.906316  0  0  -0.049473  0.036774  0  3.891829  0
C  C35  1  0.65000813  0.36903392  0.58794176  1  0  0.10034  0  3.636883  0  0  0.04143  0  3.897825  0  0  0.048442  0  3.906331  0  0  -0.049452  0.036805  0  3.891837  0
N  N36  1  0.87183348  0.30646357  0.15728750  1  0  -0.453529  0  3.29214  0  0  -0.398641  0  3.551109  0  0  -0.42019  0  3.556461  0  0  -0.414507  -0.383759  0  3.546982  0
N  N37  1  0.12816931  0.69354142  0.84271653  1  0  -0.45361  0  3.292242  0  0  -0.398658  0  3.55121  0  0  -0.420196  0  3.556544  0  0  -0.414529  -0.383777  0  3.547083  0
N  N38  1  0.15980055  0.47033399  0.33109241  1  0  -0.471449  0  3.268781  0  0  -0.416842  0  3.521389  0  0  -0.438886  0  3.527065  0  0  -0.422914  -0.401522  0  3.516916  0
N  N39  1  0.84019954  0.52966820  0.66890725  1  0  -0.471453  0  3.268754  0  0  -0.416829  0  3.521399  0  0  -0.438873  0  3.527072  0  0  -0.422927  -0.401504  0  3.51692  0
O  O40  1  0.21931406  0.31490130  0.96956359  1  0  -0.619439  0  1.940873  0  0  -0.604615  0  2.191116  0  0  -0.637994  0  2.187827  0  0  -0.345064  -0.580747  0  2.192244  0
O  O41  1  0.78067558  0.68509385  0.03043747  1  0  -0.619427  0  1.940913  0  0  -0.60462  0  2.191184  0  0  -0.637994  0  2.187886  0  0  -0.345084  -0.580748  0  2.192318  0
O  O42  1  0.30669814  0.08772979  0.86573666  1  0  -0.655619  0  1.949662  0  0  -0.63287  0  2.197574  0  0  -0.665521  0  2.193243  0  0  -0.352341  -0.609421  0  2.199366  0
O  O43  1  0.69330866  0.91228082  0.13426254  1  0  -0.655702  0  1.949783  0  0  -0.632897  0  2.197644  0  0  -0.665545  0  2.193303  0  0  -0.35234  -0.609444  0  2.199441  0
O  O44  1  0.23564966  0.29563589  0.69031706  1  0  -0.717712  0  1.578467  0  0  -0.72586  0  1.865589  0  0  -0.747247  0  1.854381  0  0  -0.761384  -0.713003  0  1.874269  0
O  O45  1  0.76433949  0.70435505  0.30969026  1  0  -0.717735  0  1.578351  0  0  -0.725924  0  1.865552  0  0  -0.747312  0  1.854356  0  0  -0.7614  -0.713065  0  1.874244  0
O  O46  1  0.82073681  0.98097049  0.78948458  1  0  -0.720068  0  1.535224  0  0  -0.725934  0  1.816109  0  0  -0.745798  0  1.801361  0  0  -0.761756  -0.713925  0  1.827193  0
O  O47  1  0.17924341  0.01901345  0.21051167  1  0  -0.720117  0  1.535298  0  0  -0.726005  0  1.816212  0  0  -0.74586  0  1.801466  0  0  -0.761797  -0.714  0  1.82733  0
O  O48  1  0.07818525  0.61505427  0.19729653  1  0  -0.68012  0  2.056365  0  0  -0.664265  0  2.340361  0  0  -0.69836  0  2.333986  0  0  -0.387898  -0.639286  0  2.343509  0
O  O49  1  0.92181691  0.38494932  0.80270626  1  0  -0.680134  0  2.056269  0  0  -0.664283  0  2.340307  0  0  -0.698384  0  2.333939  0  0  -0.387917  -0.63931  0  2.343456  0
O  O50  1  0.07895410  0.87183082  0.61693449  1  0  -0.691896  0  2.070939  0  0  -0.668921  0  2.340178  0  0  -0.700611  0  2.33028  0  0  -0.355168  -0.64585  0  2.345897  0
O  O51  1  0.92103447  0.12815875  0.38306441  1  0  -0.691925  0  2.070816  0  0  -0.669001  0  2.340078  0  0  -0.70068  0  2.330176  0  0  -0.355227  -0.645932  0  2.345805  0
O  O52  1  0.20355020  0.92431015  0.44768111  1  0  -0.678272  0  2.058691  0  0  -0.667484  0  2.34124  0  0  -0.702611  0  2.333719  0  0  -0.367175  -0.641725  0  2.344994  0
O  O53  1  0.79644090  0.07568501  0.55231915  1  0  -0.6783  0  2.058605  0  0  -0.66755  0  2.341192  0  0  -0.702674  0  2.33367  0  0  -0.367157  -0.641806  0  2.344947  0
