# generated using pymatgen
data_NdH7C8SO9
_symmetry_space_group_name_H-M   'P 1'
_cell_length_a   6.40451245
_cell_length_b   8.76462725
_cell_length_c   10.70348917
_cell_angle_alpha   91.15791589
_cell_angle_beta   99.48121840
_cell_angle_gamma   107.55101633
_symmetry_Int_Tables_number   1
_chemical_formula_structural   NdH7C8SO9
_chemical_formula_sum   'Nd2 H14 C16 S2 O18'
_cell_volume   563.46432436
_cell_formula_units_Z   2
loop_
 _symmetry_equiv_pos_site_id
 _symmetry_equiv_pos_as_xyz
  1  'x, y, z'
loop_
 _atom_site_type_symbol
 _atom_site_label
 _atom_site_symmetry_multiplicity
 _atom_site_fract_x
 _atom_site_fract_y
 _atom_site_fract_z
 _atom_site_occupancy
 _atom_site_hle17_bader_spin_density
 _atom_site_hle17_ddec_charge
 _atom_site_hle17_ddec_spin_density
 _atom_site_hle17_ddec_sum_bond_order
 _atom_site_hle17_magmom
 _atom_site_hse06_10hf_bader_spin_density
 _atom_site_hse06_10hf_ddec_charge
 _atom_site_hse06_10hf_ddec_spin_density
 _atom_site_hse06_10hf_ddec_sum_bond_order
 _atom_site_hse06_10hf_magmom
 _atom_site_hse06_bader_spin_density
 _atom_site_hse06_ddec_charge
 _atom_site_hse06_ddec_spin_density
 _atom_site_hse06_ddec_sum_bond_order
 _atom_site_hse06_magmom
 _atom_site_pbe_bader_spin_density
 _atom_site_pbe_cm5_charge
 _atom_site_pbe_ddec_charge
 _atom_site_pbe_ddec_spin_density
 _atom_site_pbe_ddec_sum_bond_order
 _atom_site_pbe_magmom
Nd  Nd0  1  0.14806949  0.23839410  0.61030725  1  0  2.341943  0  1.620265  0  0  2.238678  0  1.985225  0  0  2.275931  0  1.943978  0  0  1.523152  2.160655  0  2.109077  0
Nd  Nd1  1  0.85193334  0.76160755  0.38969178  1  0  2.341939  0  1.620251  0  0  2.23867  0  1.985215  0  0  2.275926  0  1.943967  0  0  1.523141  2.160661  0  2.109047  0
H  H2  1  0.61897760  0.41215249  0.14225367  1  0  0.109571  0  0.93898  0  0  0.117622  0  1.001711  0  0  0.121313  0  0.999771  0  0  0.115663  0.115059  0  1.002896  0
H  H3  1  0.38102313  0.58784796  0.85774793  1  0  0.10952  0  0.939005  0  0  0.117624  0  1.001676  0  0  0.121315  0  0.999735  0  0  0.115666  0.115059  0  1.00286  0
H  H4  1  0.65666907  0.36029744  0.91928143  1  0  0.11345  0  0.948335  0  0  0.12436  0  1.007216  0  0  0.128008  0  1.004355  0  0  0.115222  0.121417  0  1.009744  0
H  H5  1  0.34333007  0.63970301  0.08071908  1  0  0.113449  0  0.948314  0  0  0.124358  0  1.007196  0  0  0.128008  0  1.004334  0  0  0.115224  0.121417  0  1.009725  0
H  H6  1  0.17096719  0.15028910  0.05503704  1  0  0.125953  0  0.9471  0  0  0.133848  0  1.007994  0  0  0.137598  0  1.005628  0  0  0.116373  0.130843  0  1.010323  0
H  H7  1  0.82903353  0.84971135  0.94496176  1  0  0.125931  0  0.94713  0  0  0.133828  0  1.008026  0  0  0.137578  0  1.00566  0  0  0.116367  0.130821  0  1.010356  0
H  H8  1  0.53664832  0.08229258  0.67870844  1  0  0.459836  0  0.817744  0  0  0.431647  0  0.875267  0  0  0.441302  0  0.861016  0  0  0.318865  0.424583  0  0.885541  0
H  H9  1  0.46335083  0.91770787  0.32129208  1  0  0.459825  0  0.817755  0  0  0.431633  0  0.875282  0  0  0.441289  0  0.861031  0  0  0.318871  0.42457  0  0.885555  0
H  H10  1  0.31646692  0.94825999  0.61108764  1  0  0.445745  0  0.851067  0  0  0.414382  0  0.91559  0  0  0.424758  0  0.900368  0  0  0.305949  0.407066  0  0.926083  0
H  H11  1  0.68353330  0.05173926  0.38891203  1  0  0.445752  0  0.851054  0  0  0.414393  0  0.915569  0  0  0.424768  0  0.900348  0  0  0.305963  0.407078  0  0.926061  0
H  H12  1  0.65591101  0.34981958  0.71354496  1  0  0.446563  0  0.849834  0  0  0.418427  0  0.908369  0  0  0.429078  0  0.892848  0  0  0.304511  0.410674  0  0.919535  0
H  H13  1  0.34408972  0.65018087  0.28645478  1  0  0.446579  0  0.849806  0  0  0.418443  0  0.908346  0  0  0.429092  0  0.892825  0  0  0.304521  0.410703  0  0.919498  0
H  H14  1  0.58851852  0.49982017  0.65681146  1  0  0.445565  0  0.84841  0  0  0.417085  0  0.9075  0  0  0.427099  0  0.892875  0  0  0.305098  0.409901  0  0.917839  0
H  H15  1  0.41148063  0.50018027  0.34318905  1  0  0.445582  0  0.848384  0  0  0.417103  0  0.907473  0  0  0.427117  0  0.892848  0  0  0.30511  0.409919  0  0.917811  0
C  C16  1  0.01592157  0.22587651  0.19839779  1  0  -0.131623  0  3.689671  0  0  -0.113566  0  3.939071  0  0  -0.12055  0  3.960195  0  0  -0.005725  -0.109468  0  3.926007  0
C  C17  1  0.98408125  0.77412515  0.80160217  1  0  -0.13172  0  3.689783  0  0  -0.113638  0  3.939139  0  0  -0.120623  0  3.960262  0  0  -0.005754  -0.109538  0  3.926068  0
C  C18  1  0.86403375  0.30464827  0.22480354  1  0  -0.034915  0  3.668964  0  0  -0.024518  0  3.902459  0  0  -0.025921  0  3.920994  0  0  0.010174  -0.023621  0  3.891022  0
C  C19  1  0.13596856  0.69535218  0.77519729  1  0  -0.034911  0  3.668973  0  0  -0.024521  0  3.90249  0  0  -0.02592  0  3.921021  0  0  0.010163  -0.023626  0  3.891052  0
C  C20  1  0.73590371  0.35083900  0.12200650  1  0  -0.049619  0  3.677573  0  0  -0.073444  0  3.933223  0  0  -0.076201  0  3.951934  0  0  -0.066546  -0.071939  0  3.920834  0
C  C21  1  0.26409860  0.64916145  0.87799527  1  0  -0.049531  0  3.677529  0  0  -0.073407  0  3.933195  0  0  -0.076164  0  3.951902  0  0  -0.066517  -0.071903  0  3.920807  0
C  C22  1  0.75800515  0.32223023  0.99701961  1  0  -0.034416  0  3.655452  0  0  -0.060271  0  3.899948  0  0  -0.05748  0  3.917549  0  0  -0.062604  -0.061659  0  3.888569  0
C  C23  1  0.24199502  0.67777261  0.00298105  1  0  -0.034387  0  3.655376  0  0  -0.060244  0  3.899894  0  0  -0.057453  0  3.917492  0  0  -0.062607  -0.061634  0  3.888519  0
C  C24  1  0.91700653  0.25074394  0.97286865  1  0  -0.047129  0  3.72441  0  0  -0.021476  0  3.9567  0  0  -0.03043  0  3.979751  0  0  -0.008084  -0.016317  0  3.942079  0
C  C25  1  0.08298735  0.74925530  0.02713039  1  0  -0.047279  0  3.724488  0  0  -0.021615  0  3.956776  0  0  -0.030569  0  3.979826  0  0  -0.008139  -0.01646  0  3.942162  0
C  C26  1  0.04422241  0.20221532  0.07412816  1  0  -0.049969  0  3.694776  0  0  -0.08729  0  3.942463  0  0  -0.084825  0  3.961468  0  0  -0.068394  -0.089112  0  3.93104  0
C  C27  1  0.95577776  0.79778753  0.92587062  1  0  -0.049801  0  3.694802  0  0  -0.087136  0  3.942477  0  0  -0.084669  0  3.961481  0  0  -0.068337  -0.088958  0  3.931053  0
C  C28  1  0.83965473  0.34903884  0.35734376  1  0  0.73761  0  3.835408  0  0  0.683553  0  4.138878  0  0  0.719169  0  4.124734  0  0  0.247975  0.659158  0  4.144685  0
C  C29  1  0.16034600  0.65096161  0.64265598  1  0  0.737574  0  3.835443  0  0  0.683521  0  4.138907  0  0  0.719133  0  4.124771  0  0  0.247959  0.659126  0  4.144715  0
C  C30  1  0.97308042  0.23493212  0.84428017  1  0  0.647445  0  3.918868  0  0  0.595225  0  4.225051  0  0  0.628963  0  4.21725  0  0  0.203075  0.57332  0  4.224134  0
C  C31  1  0.02692030  0.76506833  0.15571957  1  0  0.647388  0  3.918973  0  0  0.595176  0  4.225148  0  0  0.628913  0  4.217348  0  0  0.20304  0.573272  0  4.224233  0
S  S32  1  0.20880069  0.17415450  0.31749143  1  0  1.340437  0  5.563279  0  0  1.239217  0  6.083341  0  0  1.287436  0  6.059157  0  0  0.538122  1.206163  0  6.092622  0
S  S33  1  0.79120004  0.82584595  0.68250831  1  0  1.340393  0  5.563402  0  0  1.239177  0  6.083458  0  0  1.287394  0  6.059274  0  0  0.538072  1.20612  0  6.092738  0
O  O34  1  0.08784823  0.04454917  0.39135767  1  0  -0.830292  0  2.158297  0  0  -0.782202  0  2.44522  0  0  -0.802265  0  2.428349  0  0  -0.421618  -0.757385  0  2.454941  0
O  O35  1  0.91215250  0.95545128  0.60864207  1  0  -0.830252  0  2.158271  0  0  -0.782164  0  2.445194  0  0  -0.802224  0  2.428322  0  0  -0.42158  -0.757348  0  2.454916  0
O  O36  1  0.30915417  0.31917724  0.40817640  1  0  -0.743105  0  2.03862  0  0  -0.687613  0  2.291442  0  0  -0.707572  0  2.27518  0  0  -0.364607  -0.668505  0  2.302461  0
O  O37  1  0.69084763  0.68082201  0.59182435  1  0  -0.743045  0  2.03856  0  0  -0.687569  0  2.291413  0  0  -0.707525  0  2.275149  0  0  -0.364572  -0.668465  0  2.302432  0
O  O38  1  0.36350452  0.12879759  0.25201378  1  0  -0.605121  0  1.977435  0  0  -0.546768  0  2.212174  0  0  -0.569726  0  2.202607  0  0  -0.297554  -0.531413  0  2.218964  0
O  O39  1  0.63649677  0.87120046  0.74798690  1  0  -0.605118  0  1.977532  0  0  -0.546782  0  2.212281  0  0  -0.569744  0  2.202718  0  0  -0.297563  -0.531421  0  2.219058  0
O  O40  1  0.84067303  0.24833298  0.44208279  1  0  -0.737702  0  2.0518  0  0  -0.687682  0  2.298448  0  0  -0.710547  0  2.283557  0  0  -0.378589  -0.665488  0  2.309544  0
O  O41  1  0.15932769  0.75166747  0.55791695  1  0  -0.737676  0  2.051882  0  0  -0.687648  0  2.298514  0  0  -0.710517  0  2.283637  0  0  -0.378567  -0.665457  0  2.309605  0
O  O42  1  0.81948154  0.48547334  0.37718353  1  0  -0.704903  0  2.057147  0  0  -0.663321  0  2.324787  0  0  -0.687239  0  2.312116  0  0  -0.391655  -0.639103  0  2.334656  0
O  O43  1  0.18051919  0.51452711  0.62281715  1  0  -0.704911  0  2.057131  0  0  -0.663327  0  2.324774  0  0  -0.687243  0  2.312106  0  0  -0.39167  -0.639108  0  2.334645  0
O  O44  1  0.15484513  0.20664242  0.83750391  1  0  -0.686067  0  1.954065  0  0  -0.644529  0  2.192275  0  0  -0.668085  0  2.18372  0  0  -0.38384  -0.622466  0  2.197857  0
O  O45  1  0.84515401  0.79335803  0.16249567  1  0  -0.68604  0  1.954062  0  0  -0.644506  0  2.192277  0  0  -0.668062  0  2.18372  0  0  -0.383836  -0.622444  0  2.197858  0
O  O46  1  0.84646296  0.25296436  0.74257544  1  0  -0.720482  0  2.033658  0  0  -0.667419  0  2.270245  0  0  -0.691147  0  2.258397  0  0  -0.349724  -0.645909  0  2.277661  0
O  O47  1  0.15353567  0.74703489  0.25742313  1  0  -0.720445  0  2.033706  0  0  -0.667385  0  2.27029  0  0  -0.691117  0  2.258446  0  0  -0.3497  -0.64588  0  2.277703  0
O  O48  1  0.38486928  0.06536586  0.63345482  1  0  -0.920987  0  1.85918  0  0  -0.877864  0  2.051037  0  0  -0.894398  0  2.018303  0  0  -0.653656  -0.859521  0  2.0772  0
O  O49  1  0.61512936  0.93463339  0.36654562  1  0  -0.920985  0  1.859188  0  0  -0.877861  0  2.051044  0  0  -0.894397  0  2.018312  0  0  -0.653678  -0.859518  0  2.077205  0
O  O50  1  0.53299688  0.39895243  0.69798252  1  0  -0.917797  0  1.826653  0  0  -0.876089  0  2.0166  0  0  -0.894274  0  1.984757  0  0  -0.651575  -0.856941  0  2.042245  0
O  O51  1  0.46700436  0.60104922  0.30201822  1  0  -0.917826  0  1.826606  0  0  -0.876114  0  2.016548  0  0  -0.894299  0  1.984707  0  0  -0.651585  -0.856979  0  2.042161  0
