# generated using pymatgen
data_CoH12(C2O)6
_symmetry_space_group_name_H-M   'P 1'
_cell_length_a   6.17033749
_cell_length_b   7.67752297
_cell_length_c   12.43142801
_cell_angle_alpha   91.22332780
_cell_angle_beta   89.99963704
_cell_angle_gamma   89.99794671
_symmetry_Int_Tables_number   1
_chemical_formula_structural   CoH12(C2O)6
_chemical_formula_sum   'Co2 H24 C24 O12'
_cell_volume   588.77866477
_cell_formula_units_Z   2
loop_
 _symmetry_equiv_pos_site_id
 _symmetry_equiv_pos_as_xyz
  1  'x, y, z'
loop_
 _atom_site_type_symbol
 _atom_site_label
 _atom_site_symmetry_multiplicity
 _atom_site_fract_x
 _atom_site_fract_y
 _atom_site_fract_z
 _atom_site_occupancy
 _atom_site_pbe_cm5_charge
 _atom_site_pbe_ddec_charge
 _atom_site_pbe_ddec_spin_density
 _atom_site_pbe_ddec_sum_bond_order
 _atom_site_pbe_magmom
Co  Co0  1  0.99999359  0.00000053  0.99999507  1  0.598945  0.891689  -1.040874  2.659508  -0.98
Co  Co1  1  0.49999254  0.49999204  0.99999369  1  0.598999  0.891812  -1.040927  2.659283  -0.98
H  H2  1  0.87916878  0.25885896  0.70050189  1  0.102857  0.121765  2.1e-05  1.02158  0.0
H  H3  1  0.37919238  0.24116498  0.29949732  1  0.102787  0.12166  2.2e-05  1.021632  0.0
H  H4  1  0.12083130  0.74116210  0.29948727  1  0.102858  0.121771  2.1e-05  1.021583  0.0
H  H5  1  0.62084011  0.75884828  0.70049259  1  0.102849  0.121829  2.1e-05  1.021631  0.0
H  H6  1  0.41045295  0.36294131  0.76129103  1  0.109432  0.115963  0.000204  1.012958  0.0
H  H7  1  0.91050446  0.13705220  0.23871604  1  0.109503  0.116076  0.000204  1.013201  0.0
H  H8  1  0.58952767  0.63704727  0.23870351  1  0.109468  0.115992  0.000203  1.012967  0.0
H  H9  1  0.08953935  0.86291458  0.76130247  1  0.109383  0.115943  0.000204  1.012919  0.0
H  H10  1  0.21246234  0.52972557  0.63907402  1  0.103704  0.109446  8.2e-05  0.999291  0.0
H  H11  1  0.71251509  0.97030564  0.36092702  1  0.10376  0.109555  8.2e-05  0.999199  0.0
H  H12  1  0.78750208  0.47031386  0.36092332  1  0.103738  0.109512  8.2e-05  0.999329  0.0
H  H13  1  0.28753684  0.02969878  0.63908214  1  0.103685  0.109378  8.2e-05  0.999473  0.0
H  H14  1  0.83977669  0.33756604  0.53758400  1  0.099756  0.10068  4.5e-05  1.034212  0.0
H  H15  1  0.33979946  0.16245135  0.46242725  1  0.09979  0.100775  4.5e-05  1.034247  0.0
H  H16  1  0.16020393  0.66246822  0.46241652  1  0.099803  0.10075  4.5e-05  1.03412  0.0
H  H17  1  0.66023949  0.83754800  0.53759071  1  0.099816  0.100748  4.5e-05  1.034082  0.0
H  H18  1  0.63519264  0.92433836  0.08180694  1  0.305179  0.39358  0.00039  0.931486  0.0
H  H19  1  0.13520328  0.57565047  0.91818394  1  0.305199  0.393644  0.00039  0.931384  0.0
H  H20  1  0.36478960  0.07566061  0.91818606  1  0.305209  0.393626  0.00039  0.931498  0.0
H  H21  1  0.86476437  0.42432395  0.08182174  1  0.305183  0.393611  0.000391  0.931512  0.0
H  H22  1  0.64638981  0.11364497  0.02690650  1  0.294995  0.365508  0.000439  0.991416  0.0
H  H23  1  0.14639549  0.38635268  0.97309486  1  0.295024  0.365528  0.000439  0.991386  0.0
H  H24  1  0.35359082  0.88634877  0.97308405  1  0.295047  0.365586  0.000439  0.991301  0.0
H  H25  1  0.85358838  0.61362690  0.02690765  1  0.295045  0.365634  0.000439  0.991246  0.0
C  C26  1  0.74187157  0.20568502  0.85608701  1  0.207706  0.600482  0.006781  4.148643  0.003
C  C27  1  0.24186116  0.29430939  0.14390947  1  0.207558  0.600074  0.006798  4.148784  0.003
C  C28  1  0.25811717  0.79430992  0.14389712  1  0.20778  0.600571  0.006782  4.148557  0.003
C  C29  1  0.75812594  0.70567665  0.85608987  1  0.207655  0.600356  0.006796  4.148919  0.003
C  C30  1  0.73092389  0.27344503  0.74747599  1  -0.106324  -0.251948  0.002747  3.939524  0.0
C  C31  1  0.23094455  0.22657889  0.25253338  1  -0.106084  -0.251481  0.002749  3.939175  0.0
C  C32  1  0.26907457  0.72655521  0.25251462  1  -0.106333  -0.251983  0.002749  3.939649  0.0
C  C33  1  0.76907335  0.77342546  0.74747094  1  -0.106317  -0.251959  0.00275  3.939463  0.0
C  C34  1  0.55091885  0.35001195  0.70806219  1  -0.070472  -0.05842  0.009799  3.952967  0.005
C  C35  1  0.05095467  0.14999286  0.29194570  1  -0.070775  -0.058946  0.009815  3.953527  0.005
C  C36  1  0.44905692  0.64999488  0.29193329  1  -0.070618  -0.058602  0.009791  3.953236  0.005
C  C37  1  0.94908104  0.85000126  0.70807142  1  -0.070454  -0.058485  0.009811  3.952966  0.005
C  C38  1  0.52933754  0.42375952  0.60215170  1  -0.009648  0.094106  0.002827  4.030664  0.001
C  C39  1  0.02937949  0.07624922  0.39785751  1  -0.009785  0.093991  0.002832  4.030532  0.001
C  C40  1  0.47062363  0.57627474  0.39784881  1  -0.009594  0.094159  0.002829  4.03019  0.001
C  C41  1  0.97066918  0.92374882  0.60216044  1  -0.009681  0.093902  0.002834  4.030574  0.001
C  C42  1  0.33811719  0.51620362  0.57755040  1  -0.083944  -0.126954  0.00175  3.963956  0.001
C  C43  1  0.83817389  0.98379540  0.42246043  1  -0.083926  -0.126928  0.001751  3.964361  0.001
C  C44  1  0.66186343  0.48380847  0.42244833  1  -0.083864  -0.126851  0.001747  3.963928  0.001
C  C45  1  0.16189261  0.01618706  0.57756142  1  -0.083802  -0.12655  0.00175  3.964106  0.001
C  C46  1  0.69093886  0.40924344  0.52201020  1  -0.085934  -0.119657  0.002201  3.954075  0.001
C  C47  1  0.19098418  0.09076727  0.47799967  1  -0.085914  -0.1198  0.002207  3.953751  0.001
C  C48  1  0.30902556  0.59077900  0.47798378  1  -0.085976  -0.119719  0.002201  3.953694  0.001
C  C49  1  0.80906773  0.90923725  0.52201592  1  -0.085909  -0.119633  0.002204  3.953948  0.001
O  O50  1  0.91955130  0.12728633  0.87884406  1  -0.301489  -0.500113  -0.000371  2.463557  -0.006
O  O51  1  0.41956234  0.37272481  0.12115862  1  -0.301554  -0.500109  -0.000372  2.463051  -0.006
O  O52  1  0.08044391  0.87272306  0.12114823  1  -0.301529  -0.500143  -0.00037  2.463447  -0.006
O  O53  1  0.58043288  0.62726895  0.87883354  1  -0.301504  -0.500119  -0.000372  2.46335  -0.006
O  O54  1  0.58280384  0.22421386  0.92347846  1  -0.30881  -0.588075  -0.013734  2.336057  -0.02
O  O55  1  0.08284091  0.27578628  0.07652002  1  -0.308668  -0.587768  -0.013727  2.336445  -0.02
O  O56  1  0.41717194  0.77577580  0.07650080  1  -0.308819  -0.588067  -0.013735  2.335926  -0.02
O  O57  1  0.91715267  0.72419850  0.92348173  1  -0.308761  -0.587955  -0.013731  2.336285  -0.02
O  O58  1  0.72567795  0.03094833  0.07582872  1  -0.556499  -0.702277  0.00725  2.272259  0.006
O  O59  1  0.22569026  0.46903654  0.92416062  1  -0.556557  -0.702374  0.007243  2.272221  0.006
O  O60  1  0.27430106  0.96905327  0.92416511  1  -0.556619  -0.702391  0.00725  2.272286  0.006
O  O61  1  0.77428550  0.53094428  0.07583788  1  -0.556547  -0.7024  0.007243  2.272149  0.006
