# generated using pymatgen
data_CdH22C20(NO)4
_symmetry_space_group_name_H-M   'P 1'
_cell_length_a   9.17292581
_cell_length_b   10.07631778
_cell_length_c   14.46590000
_cell_angle_alpha   107.25591751
_cell_angle_beta   91.27888738
_cell_angle_gamma   116.21090255
_symmetry_Int_Tables_number   1
_chemical_formula_structural   CdH22C20(NO)4
_chemical_formula_sum   'Cd2 H44 C40 N8 O8'
_cell_volume   1127.09788664
_cell_formula_units_Z   2
loop_
 _symmetry_equiv_pos_site_id
 _symmetry_equiv_pos_as_xyz
  1  'x, y, z'
loop_
 _atom_site_type_symbol
 _atom_site_label
 _atom_site_symmetry_multiplicity
 _atom_site_fract_x
 _atom_site_fract_y
 _atom_site_fract_z
 _atom_site_occupancy
 _atom_site_hle17_bader_spin_density
 _atom_site_hle17_ddec_charge
 _atom_site_hle17_ddec_spin_density
 _atom_site_hle17_ddec_sum_bond_order
 _atom_site_hle17_magmom
 _atom_site_hse06_10hf_bader_spin_density
 _atom_site_hse06_10hf_ddec_charge
 _atom_site_hse06_10hf_ddec_spin_density
 _atom_site_hse06_10hf_ddec_sum_bond_order
 _atom_site_hse06_10hf_magmom
 _atom_site_hse06_bader_spin_density
 _atom_site_hse06_ddec_charge
 _atom_site_hse06_ddec_spin_density
 _atom_site_hse06_ddec_sum_bond_order
 _atom_site_hse06_magmom
 _atom_site_pbe_bader_charge
 _atom_site_pbe_bader_spin_density
 _atom_site_pbe_cm5_charge
 _atom_site_pbe_ddec_charge
 _atom_site_pbe_ddec_spin_density
 _atom_site_pbe_ddec_sum_bond_order
 _atom_site_pbe_magmom
Cd  Cd0  1  0.82441467  0.43997209  0.10372926  1  0  1.141586  0  1.722336  0  0  0.954321  0  2.179556  0  0  1.010088  0  2.126182  0  1.284919  0  0.777327  0.914705  0  2.216078  0
Cd  Cd1  1  0.17558871  0.56002804  0.89627227  1  0  1.141598  0  1.722302  0  0  0.954327  0  2.179533  0  0  1.010094  0  2.126165  0  1.284918  0  0.77733  0.914711  0  2.216054  0
H  H2  1  0.82764405  0.23602764  0.37399124  1  0  0.093973  0  0.954766  0  0  0.105748  0  1.013396  0  0  0.109163  0  1.011431  0  0.075132  0  0.101214  0.103282  0  1.014883  0
H  H3  1  0.17235657  0.76397132  0.62600931  1  0  0.093955  0  0.954784  0  0  0.105732  0  1.013414  0  0  0.109147  0  1.011449  0  0.07513  0  0.101205  0.103266  0  1.014901  0
H  H4  1  0.10670852  0.73578053  0.44856142  1  0  0.100271  0  0.950004  0  0  0.110447  0  1.009324  0  0  0.114286  0  1.0067  0  0.101215  0  0.103145  0.107743  0  1.011056  0
H  H5  1  0.89329327  0.26422078  0.55144033  1  0  0.100258  0  0.950036  0  0  0.110429  0  1.009367  0  0  0.114268  0  1.006743  0  0.101195  0  0.103134  0.107725  0  1.011099  0
H  H6  1  0.93934018  0.18502740  0.12983192  1  0  0.095998  0  0.983159  0  0  0.10216  0  1.053411  0  0  0.105835  0  1.050899  0  0.075751  0  0.097981  0.099289  0  1.055584  0
H  H7  1  0.06065493  0.81496920  0.87016738  1  0  0.096056  0  0.983155  0  0  0.102214  0  1.053393  0  0  0.105891  0  1.05088  0  0.075696  0  0.098001  0.099342  0  1.055571  0
H  H8  1  0.11526947  0.07832238  0.85956062  1  0  0.097273  0  0.951638  0  0  0.105467  0  1.013075  0  0  0.109815  0  1.009839  0  0.087692  0  0.100114  0.102121  0  1.0158  0
H  H9  1  0.88472724  0.92167304  0.14043777  1  0  0.097272  0  0.951645  0  0  0.10548  0  1.013065  0  0  0.109825  0  1.009832  0  0.087753  0  0.100123  0.102133  0  1.015792  0
H  H10  1  0.51542643  0.28630401  0.23173378  1  0  0.08542  0  0.972867  0  0  0.091014  0  1.047701  0  0  0.09347  0  1.044623  0  0.145282  0  0.127254  0.089616  0  1.049217  0
H  H11  1  0.48457543  0.71369965  0.76826846  1  0  0.085384  0  0.972858  0  0  0.09098  0  1.047686  0  0  0.093436  0  1.04461  0  0.145266  0  0.127242  0.089582  0  1.049203  0
H  H12  1  0.57638799  0.62538791  0.10168839  1  0  0.107222  0  0.959147  0  0  0.114179  0  1.023469  0  0  0.116438  0  1.023277  0  0.114877  0  0.114913  0.112562  0  1.023704  0
H  H13  1  0.42361089  0.37460751  0.89830727  1  0  0.107178  0  0.959176  0  0  0.114177  0  1.023454  0  0  0.116438  0  1.02326  0  0.114972  0  0.114905  0.11256  0  1.023689  0
H  H14  1  0.29655414  0.56117681  0.19045438  1  0  0.126467  0  0.96147  0  0  0.134251  0  1.026283  0  0  0.137159  0  1.024725  0  0.141365  0  0.122367  0.132312  0  1.027058  0
H  H15  1  0.70344198  0.43881744  0.80953822  1  0  0.126352  0  0.961528  0  0  0.134159  0  1.026302  0  0  0.137076  0  1.024733  0  0.141413  0  0.122339  0.132219  0  1.027079  0
H  H16  1  0.22436123  0.22823930  0.28084392  1  0  0.065532  0  0.91692  0  0  0.084283  0  0.975851  0  0  0.084608  0  0.975811  0  0.047276  0  0.108793  0.083989  0  0.976009  0
H  H17  1  0.77563613  0.77175965  0.71915382  1  0  0.065486  0  0.916911  0  0  0.084231  0  0.975857  0  0  0.084555  0  0.975818  0  0.047258  0  0.10878  0.083938  0  0.976013  0
H  H18  1  0.13985078  0.34977476  0.26660234  1  0  0.084629  0  0.934512  0  0  0.099629  0  0.998521  0  0  0.099912  0  0.998684  0  0.070972  0  0.113712  0.099341  0  0.998506  0
H  H19  1  0.86014934  0.65022537  0.73339499  1  0  0.084585  0  0.934541  0  0  0.099607  0  0.998531  0  0  0.099891  0  0.998694  0  0.070955  0  0.113704  0.099317  0  0.998518  0
H  H20  1  0.22009679  0.41380696  0.44168675  1  0  0.070245  0  0.961188  0  0  0.089974  0  1.019718  0  0  0.089133  0  1.023219  0  0.054221  0  0.089954  0.090597  0  1.017127  0
H  H21  1  0.77990332  0.58619317  0.55831127  1  0  0.070228  0  0.961194  0  0  0.089975  0  1.019717  0  0  0.089133  0  1.023218  0  0.054177  0  0.089954  0.090597  0  1.017127  0
H  H22  1  0.35149456  0.57521276  0.40816997  1  0  0.067926  0  0.93664  0  0  0.086292  0  0.998607  0  0  0.086709  0  0.999616  0  0.002686  0  0.090062  0.085535  0  0.998877  0
H  H23  1  0.64850222  0.42478501  0.59182752  1  0  0.067891  0  0.936617  0  0  0.086252  0  0.998594  0  0  0.086667  0  0.999604  0  0.002612  0  0.090039  0.085494  0  0.998867  0
H  H24  1  0.57284922  0.48859946  0.40528990  1  0  0.062649  0  0.936096  0  0  0.082201  0  0.99293  0  0  0.082785  0  0.993701  0  0.030197  0  0.087954  0.081881  0  0.992145  0
H  H25  1  0.42714987  0.51140303  0.59470721  1  0  0.062648  0  0.936042  0  0  0.082218  0  0.992849  0  0  0.082806  0  0.993613  0  0.030009  0  0.087959  0.081898  0  0.992065  0
H  H26  1  0.43791017  0.32661691  0.43778643  1  0  0.051945  0  0.939378  0  0  0.073223  0  0.999631  0  0  0.073277  0  1.000804  0  -0.003237  0  0.084668  0.072747  0  0.999691  0
H  H27  1  0.56209052  0.67338439  0.56221046  1  0  0.051922  0  0.939366  0  0  0.073199  0  0.999618  0  0  0.073241  0  1.000805  0  -0.003231  0  0.084651  0.072723  0  0.999679  0
H  H28  1  0.82485004  0.24554384  0.85946620  1  0  0.109115  0  0.952401  0  0  0.118291  0  1.015928  0  0  0.120908  0  1.012689  0  0.202045  0  0.137392  0.116153  0  1.018466  0
H  H29  1  0.17515225  0.75445629  0.14053393  1  0  0.10913  0  0.952406  0  0  0.118305  0  1.015927  0  0  0.120924  0  1.012688  0  0.202223  0  0.137401  0.116169  0  1.018463  0
H  H30  1  0.42527403  0.14835973  0.01372259  1  0  0.100506  0  0.96092  0  0  0.108806  0  1.022464  0  0  0.110684  0  1.022783  0  0.107775  0  0.113976  0.10749  0  1.022207  0
H  H31  1  0.57473160  0.85164276  0.98628222  1  0  0.100535  0  0.960952  0  0  0.108841  0  1.022483  0  0  0.11072  0  1.022803  0  0.107775  0  0.113986  0.107527  0  1.022222  0
H  H32  1  0.31961375  0.92317963  0.82492664  1  0  0.130309  0  0.98564  0  0  0.138342  0  1.049144  0  0  0.14195  0  1.046404  0  0.170546  0  0.120213  0.135653  0  1.051223  0
H  H33  1  0.68038912  0.07682168  0.17507581  1  0  0.130291  0  0.985623  0  0  0.138258  0  1.049203  0  0  0.141867  0  1.046463  0  0.170541  0  0.120178  0.135574  0  1.051273  0
H  H34  1  0.47505036  0.85987130  0.69106849  1  0  0.071588  0  0.934141  0  0  0.086408  0  1.004726  0  0  0.087261  0  1.003876  0  0.068998  0  0.110444  0.085594  0  1.005745  0
H  H35  1  0.52495143  0.14013001  0.30893257  1  0  0.071543  0  0.93416  0  0  0.086354  0  1.004747  0  0  0.087206  0  1.003897  0  0.068988  0  0.110438  0.08554  0  1.005769  0
H  H36  1  0.69110876  0.98484366  0.70652353  1  0  0.073196  0  0.907063  0  0  0.093478  0  0.962737  0  0  0.094245  0  0.962206  0  0.049934  0  0.114379  0.092708  0  0.963477  0
H  H37  1  0.30889360  0.01515883  0.29347778  1  0  0.073143  0  0.907048  0  0  0.093416  0  0.962735  0  0  0.094183  0  0.962204  0  0.049877  0  0.11435  0.092647  0  0.963478  0
H  H38  1  0.63517662  0.18136570  0.66300467  1  0  0.079327  0  0.933026  0  0  0.0961  0  0.99711  0  0  0.097188  0  0.997178  0  0.035188  0  0.094902  0.095161  0  0.997338  0
H  H39  1  0.36482298  0.81863561  0.33699843  1  0  0.079334  0  0.933026  0  0  0.09611  0  0.997112  0  0  0.0972  0  0.997179  0  0.035194  0  0.094915  0.095175  0  0.99733  0
H  H40  1  0.42038704  0.06486905  0.65426016  1  0  0.069799  0  0.924941  0  0  0.090154  0  0.980355  0  0  0.090842  0  0.981073  0  0.029033  0  0.093705  0.089706  0  0.979782  0
H  H41  1  0.57961314  0.93513343  0.34574388  1  0  0.069824  0  0.924943  0  0  0.090188  0  0.980351  0  0  0.090878  0  0.981067  0  0.02908  0  0.093735  0.089737  0  0.979776  0
H  H42  1  0.64233726  0.96769213  0.52433635  1  0  0.059331  0  0.921225  0  0  0.081586  0  0.974228  0  0  0.082225  0  0.974572  0  -0.002655  0  0.088797  0.08108  0  0.974047  0
H  H43  1  0.35766016  0.03230917  0.47566534  1  0  0.059307  0  0.921215  0  0  0.081563  0  0.974241  0  0  0.082202  0  0.974585  0  -0.002571  0  0.088782  0.081058  0  0.974059  0
H  H44  1  0.43144708  0.84272331  0.51830129  1  0  0.056135  0  0.949768  0  0  0.074655  0  1.014827  0  0  0.074655  0  1.016475  0  2.3e-05  0  0.086397  0.074184  0  1.014865  0
H  H45  1  0.56854983  0.15727918  0.48170132  1  0  0.056143  0  0.949758  0  0  0.074666  0  1.01483  0  0  0.074665  0  1.01648  0  8e-06  0  0.086398  0.074195  0  1.014868  0
C  C46  1  0.92672800  0.46888086  0.29566796  1  0  0.613844  0  3.969625  0  0  0.566612  0  4.2617  0  0  0.600158  0  4.256271  0  1.555555  0  0.185113  0.543904  0  4.264471  0
C  C47  1  0.07327436  0.53112163  0.70433404  1  0  0.613702  0  3.969736  0  0  0.566495  0  4.261795  0  0  0.600039  0  4.25637  0  1.55544  0  0.184985  0.543788  0  4.264565  0
C  C48  1  0.96312506  0.48460230  0.40138372  1  0  -0.050897  0  3.755077  0  0  -0.027953  0  3.986828  0  0  -0.033877  0  4.008493  0  -0.036738  0  -0.014789  -0.024165  0  3.972277  0
C  C49  1  0.03687723  0.51539783  0.59861710  1  0  -0.050884  0  3.755135  0  0  -0.027945  0  3.986878  0  0  -0.033865  0  4.008539  0  -0.036765  0  -0.014812  -0.024157  0  3.972327  0
C  C50  1  0.90225424  0.35124839  0.43004613  1  0  -0.087077  0  3.756727  0  0  -0.109693  0  4.007883  0  0  -0.110319  0  4.027083  0  -0.048292  0  -0.089665  -0.109199  0  3.994864  0
C  C51  1  0.09774639  0.64875056  0.56995442  1  0  -0.08707  0  3.756767  0  0  -0.109682  0  4.007916  0  0  -0.11031  0  4.027117  0  -0.048186  0  -0.089656  -0.109187  0  3.994895  0
C  C52  1  0.06102029  0.63355642  0.47226227  1  0  -0.08399  0  3.755696  0  0  -0.106732  0  4.006605  0  0  -0.107224  0  4.025277  0  -0.068618  0  -0.086806  -0.106245  0  3.993784  0
C  C53  1  0.93898092  0.36644371  0.52773922  1  0  -0.084024  0  3.755751  0  0  -0.106762  0  4.006657  0  0  -0.107254  0  4.025328  0  -0.068462  0  -0.08682  -0.106276  0  3.993836  0
C  C54  1  0.06488452  0.30231265  0.98775180  1  0  0.643715  0  3.942651  0  0  0.589203  0  4.241109  0  0  0.624111  0  4.233678  0  1.573206  0  0.203374  0.565832  0  4.244839  0
C  C55  1  0.93511828  0.69768631  0.01224879  1  0  0.643484  0  3.942964  0  0  0.588999  0  4.24138  0  0  0.623908  0  4.233952  0  1.573218  0  0.203301  0.565627  0  4.245109  0
C  C56  1  0.03158568  0.14617871  0.99452787  1  0  -0.061952  0  3.763082  0  0  -0.038727  0  3.994338  0  0  -0.045379  0  4.017007  0  -0.092694  0  -0.022632  -0.034418  0  3.979012  0
C  C57  1  0.96840994  0.85381671  0.00547050  1  0  -0.061806  0  3.762955  0  0  -0.038567  0  3.994172  0  0  -0.045218  0  4.016841  0  -0.092649  0  -0.022573  -0.034255  0  3.97884  0
C  C58  1  0.96654477  0.10331403  0.07395672  1  0  -0.082085  0  3.747901  0  0  -0.104587  0  3.996796  0  0  -0.105728  0  4.017391  0  0.003338  0  -0.091368  -0.103843  0  3.983271  0
C  C59  1  0.03345143  0.89668257  0.92603982  1  0  -0.082262  0  3.747974  0  0  -0.104758  0  3.996872  0  0  -0.105903  0  4.017469  0  0.026128  0  -0.091437  -0.104013  0  3.983342  0
C  C60  1  0.06465961  0.04202900  0.92054377  1  0  -0.07989  0  3.750416  0  0  -0.10105  0  3.996328  0  0  -0.101805  0  4.015722  0  -0.052267  0  -0.089481  -0.100417  0  3.983657  0
C  C61  1  0.93533208  0.95796289  0.07945312  1  0  -0.079975  0  3.750317  0  0  -0.101152  0  3.99623  0  0  -0.101905  0  4.015622  0  -0.029412  0  -0.089548  -0.10052  0  3.983562  0
C  C62  1  0.49544812  0.37010659  0.20792394  1  0  0.139784  0  3.707094  0  0  0.081515  0  3.972157  0  0  0.094583  0  3.985813  0  0.960702  0  0.128658  0.07302  0  3.962115  0
C  C63  1  0.50455032  0.62989236  0.79207520  1  0  0.139955  0  3.707015  0  0  0.081692  0  3.972066  0  0  0.094759  0  3.985721  0  0.960768  0  0.128736  0.073196  0  3.962025  0
C  C64  1  0.52286948  0.54645819  0.14273588  1  0  -0.000383  0  3.749673  0  0  -0.031274  0  4.012971  0  0  -0.029816  0  4.03351  0  0.46344  0  -0.008551  -0.0324  0  3.99903  0
C  C65  1  0.47713289  0.45354430  0.85726059  1  0  -0.000228  0  3.749833  0  0  -0.031155  0  4.013124  0  0  -0.029697  0  4.033662  0  0.463373  0  -0.008448  -0.032282  0  3.999187  0
C  C66  1  0.38693787  0.51893242  0.18775037  1  0  -0.061764  0  3.658523  0  0  -0.102747  0  3.915648  0  0  -0.101541  0  3.935191  0  0.259531  0  -0.002603  -0.10351  0  3.902288  0
C  C67  1  0.61305949  0.48106654  0.81224530  1  0  -0.061586  0  3.65855  0  0  -0.102571  0  3.915688  0  0  -0.10137  0  3.935226  0  0.259628  0  -0.002559  -0.103335  0  3.902326  0
C  C68  1  0.25394525  0.35095649  0.29221919  1  0  0.00676  0  3.633949  0  0  -0.057179  0  3.896598  0  0  -0.052397  0  3.907944  0  0.313383  0  -0.048667  -0.060247  0  3.888604  0
C  C69  1  0.74605101  0.64904246  0.70777716  1  0  0.006949  0  3.633883  0  0  -0.057003  0  3.896557  0  0  -0.052223  0  3.907905  0  0.313505  0  -0.048618  -0.060074  0  3.888568  0
C  C70  1  0.32099892  0.45332773  0.40050763  1  0  -0.13465  0  3.702468  0  0  -0.176253  0  3.964899  0  0  -0.178143  0  3.980288  0  -0.006452  0  -0.166398  -0.174628  0  3.954062  0
C  C71  1  0.67900069  0.54667358  0.59948994  1  0  -0.134632  0  3.702464  0  0  -0.176253  0  3.964907  0  0  -0.178141  0  3.980292  0  -0.006367  0  -0.166405  -0.174629  0  3.954068  0
C  C72  1  0.47025628  0.44922346  0.44561022  1  0  -0.102211  0  3.699168  0  0  -0.14041  0  3.959697  0  0  -0.141043  0  3.974105  0  -0.007577  0  -0.167927  -0.139566  0  3.94932  0
C  C73  1  0.52974332  0.55077785  0.55438596  1  0  -0.102209  0  3.699086  0  0  -0.140408  0  3.959602  0  0  -0.141036  0  3.974011  0  -0.026314  0  -0.167916  -0.139565  0  3.949226  0
C  C74  1  0.70339090  0.19061000  0.87820573  1  0  0.162506  0  3.645127  0  0  0.102297  0  3.905931  0  0  0.11577  0  3.919958  0  0.922943  0  0.139969  0.093757  0  3.895833  0
C  C75  1  0.29661191  0.80938895  0.12179485  1  0  0.162467  0  3.645183  0  0  0.102264  0  3.905975  0  0  0.115735  0  3.920004  0  0.922842  0  0.139969  0.093726  0  3.895876  0
C  C76  1  0.49264921  0.13625644  0.95393762  1  0  0.00337  0  3.78137  0  0  -0.029813  0  4.049071  0  0  -0.027853  0  4.071231  0  0.434298  0  -0.006478  -0.03119  0  4.034355  0
C  C77  1  0.50735686  0.86374252  0.04606440  1  0  0.003211  0  3.781155  0  0  -0.029975  0  4.048851  0  0  -0.028015  0  4.071011  0  0.433908  0  -0.006512  -0.031353  0  4.034142  0
C  C78  1  0.43708055  0.02622634  0.86089667  1  0  -0.080728  0  3.66554  0  0  -0.119951  0  3.920132  0  0  -0.119705  0  3.939189  0  0.246713  0  -0.005297  -0.120079  0  3.907321  0
C  C79  1  0.56292856  0.97378321  0.13911034  1  0  -0.080626  0  3.665118  0  0  -0.119801  0  3.919742  0  0  -0.119556  0  3.938801  0  0.246693  0  -0.005245  -0.119928  0  3.906925  0
C  C80  1  0.57090457  0.98319936  0.71171545  1  0  0.00552  0  3.651132  0  0  -0.063795  0  3.924052  0  0  -0.059121  0  3.934986  0  0.307349  0  -0.049095  -0.066832  0  3.916747  0
C  C81  1  0.42909721  0.01680195  0.28828561  1  0  0.005652  0  3.651023  0  0  -0.063611  0  3.923896  0  0  -0.058939  0  3.934831  0  0.307364  0  -0.049081  -0.066665  0  3.9166  0
C  C82  1  0.53621897  0.05916404  0.64301591  1  0  -0.135006  0  3.703187  0  0  -0.178342  0  3.971394  0  0  -0.180227  0  3.985974  0  -0.001427  0  -0.164432  -0.176715  0  3.960931  0
C  C83  1  0.46377795  0.94083844  0.35698532  1  0  -0.135086  0  3.703209  0  0  -0.178446  0  3.97146  0  0  -0.180336  0  3.986046  0  -0.001399  0  -0.164482  -0.176804  0  3.960976  0
C  C84  1  0.52348101  0.96712599  0.53566881  1  0  -0.102494  0  3.705805  0  0  -0.141656  0  3.969301  0  0  -0.14261  0  3.98482  0  -0.001137  0  -0.163654  -0.140767  0  3.958725  0
C  C85  1  0.47651700  0.03287650  0.46433451  1  0  -0.102478  0  3.705848  0  0  -0.141692  0  3.969406  0  0  -0.14265  0  3.984932  0  0.026063  0  -0.163652  -0.14081  0  3.958825  0
N  N86  1  0.58939883  0.45302876  0.15622666  1  0  -0.382606  0  3.259132  0  0  -0.310128  0  3.536189  0  0  -0.330012  0  3.553356  0  -1.229103  0  -0.355927  -0.296315  0  3.524003  0
N  N87  1  0.41060507  0.54697019  0.84377325  1  0  -0.38272  0  3.259244  0  0  -0.310253  0  3.536331  0  0  -0.330137  0  3.553497  0  -1.229153  0  -0.356006  -0.296441  0  3.524146  0
N  N88  1  0.37075407  0.40618105  0.22847844  1  0  -0.066886  0  3.580313  0  0  0.029396  0  3.797442  0  0  0.014355  0  3.824471  0  -1.242704  0  -0.247834  0.039369  0  3.779076  0
N  N89  1  0.62924437  0.59381790  0.77151862  1  0  -0.067133  0  3.580362  0  0  0.029149  0  3.797506  0  0  0.014108  0  3.824536  0  -1.242871  0  -0.247911  0.039123  0  3.779141  0
N  N90  1  0.65851875  0.23742476  0.96388755  1  0  -0.397451  0  3.269487  0  0  -0.320633  0  3.55501  0  0  -0.342808  0  3.573261  0  -1.201511  0  -0.358899  -0.305913  0  3.542303  0
N  N91  1  0.34148906  0.76257772  0.03611591  1  0  -0.397414  0  3.26952  0  0  -0.32061  0  3.55506  0  0  -0.342777  0  3.573304  0  -1.201485  0  -0.358928  -0.305892  0  3.542354  0
N  N92  1  0.57244767  0.06186648  0.81428039  1  0  -0.066908  0  3.586428  0  0  0.02958  0  3.805867  0  0  0.014993  0  3.832575  0  -1.254386  0  -0.246941  0.039209  0  3.787261  0
N  N93  1  0.42755186  0.93813248  0.18572084  1  0  -0.066867  0  3.586444  0  0  0.029617  0  3.805843  0  0  0.015029  0  3.832554  0  -1.254074  0  -0.246891  0.039248  0  3.787241  0
O  O94  1  0.81945391  0.33364843  0.23607212  1  0  -0.669477  0  1.970245  0  0  -0.611266  0  2.220255  0  0  -0.639291  0  2.209726  0  -1.185157  0  -0.340571  -0.591301  0  2.226426  0
O  O95  1  0.18054788  0.66635288  0.76392894  1  0  -0.669361  0  1.970235  0  0  -0.611231  0  2.220312  0  0  -0.639255  0  2.209785  0  -1.184963  0  -0.340527  -0.59126  0  2.226473  0
O  O96  1  0.00231687  0.58857546  0.27022864  1  0  -0.62302  0  1.897877  0  0  -0.568719  0  2.122207  0  0  -0.594412  0  2.112323  0  -1.163997  0  -0.337757  -0.550716  0  2.128294  0
O  O97  1  0.99768223  0.41142702  0.72977400  1  0  -0.622953  0  1.897895  0  0  -0.568649  0  2.12221  0  0  -0.594343  0  2.112331  0  -1.164089  0  -0.337678  -0.550648  0  2.128296  0
O  O98  1  0.05019157  0.40243107  0.05919222  1  0  -0.671714  0  2.052499  0  0  -0.611386  0  2.324227  0  0  -0.637885  0  2.310514  0  -1.208716  0  -0.34082  -0.592879  0  2.333307  0
O  O99  1  0.94981502  0.59756671  0.94081094  1  0  -0.67166  0  2.0526  0  0  -0.611362  0  2.32436  0  0  -0.637865  0  2.310652  0  -1.208748  0  -0.340799  -0.592848  0  2.333436  0
O  O100  1  0.10718274  0.32355549  0.90765968  1  0  -0.6347  0  2.032119  0  0  -0.567203  0  2.285884  0  0  -0.595297  0  2.272931  0  -1.15608  0  -0.330121  -0.547082  0  2.293611  0
O  O101  1  0.89282007  0.67644347  0.09233952  1  0  -0.634564  0  2.03223  0  0  -0.567123  0  2.28603  0  0  -0.595209  0  2.273063  0  -1.156067  0  -0.330096  -0.547003  0  2.293756  0
