# generated using pymatgen
data_CuH6C9(IN3)2
_symmetry_space_group_name_H-M   'P 1'
_cell_length_a   4.41594745
_cell_length_b   11.94531756
_cell_length_c   12.23935457
_cell_angle_alpha   74.21901498
_cell_angle_beta   86.03426372
_cell_angle_gamma   81.61999438
_symmetry_Int_Tables_number   1
_chemical_formula_structural   CuH6C9(IN3)2
_chemical_formula_sum   'Cu2 H12 C18 I4 N12'
_cell_volume   614.36096726
_cell_formula_units_Z   2
loop_
 _symmetry_equiv_pos_site_id
 _symmetry_equiv_pos_as_xyz
  1  'x, y, z'
loop_
 _atom_site_type_symbol
 _atom_site_label
 _atom_site_symmetry_multiplicity
 _atom_site_fract_x
 _atom_site_fract_y
 _atom_site_fract_z
 _atom_site_occupancy
 _atom_site_hle17_bader_spin_density
 _atom_site_hle17_ddec_charge
 _atom_site_hle17_ddec_spin_density
 _atom_site_hle17_ddec_sum_bond_order
 _atom_site_hle17_magmom
 _atom_site_hse06_10hf_bader_spin_density
 _atom_site_hse06_10hf_ddec_charge
 _atom_site_hse06_10hf_ddec_spin_density
 _atom_site_hse06_10hf_ddec_sum_bond_order
 _atom_site_hse06_10hf_magmom
 _atom_site_hse06_bader_spin_density
 _atom_site_hse06_ddec_charge
 _atom_site_hse06_ddec_spin_density
 _atom_site_hse06_ddec_sum_bond_order
 _atom_site_hse06_magmom
 _atom_site_pbe_bader_spin_density
 _atom_site_pbe_cm5_charge
 _atom_site_pbe_ddec_charge
 _atom_site_pbe_ddec_spin_density
 _atom_site_pbe_ddec_sum_bond_order
 _atom_site_pbe_magmom
Cu  Cu0  1  0.87752795  0.91495109  0.56048844  1  0  0.282753  0  2.070356  0  0  0.20225  0  2.531898  0  0  0.214421  0  2.479472  0  0  0.267277  0.195397  0  2.566873  0
Cu  Cu1  1  0.12249260  0.08504742  0.43950896  1  0  0.282661  0  2.070379  0  0  0.20217  0  2.531926  0  0  0.214254  0  2.479485  0  0  0.267234  0.195318  0  2.566898  0
H  H2  1  0.77837697  0.55369266  0.26759196  1  0  0.097596  0  0.976632  0  0  0.101872  0  1.04525  0  0  0.103944  0  1.044754  0  0  0.102153  0.100355  0  1.045665  0
H  H3  1  0.22157223  0.44630230  0.73240476  1  0  0.097627  0  0.976512  0  0  0.101888  0  1.045148  0  0  0.10395  0  1.044678  0  0  0.102138  0.10037  0  1.045557  0
H  H4  1  0.52393682  0.55614352  0.86908404  1  0  0.134156  0  0.996775  0  0  0.134103  0  1.069872  0  0  0.139013  0  1.066066  0  0  0.119815  0.130444  0  1.072812  0
H  H5  1  0.47605089  0.44386464  0.13090836  1  0  0.134165  0  0.996774  0  0  0.134144  0  1.069829  0  0  0.139052  0  1.066026  0  0  0.119832  0.130484  0  1.072763  0
H  H6  1  0.48008585  0.04943841  0.86842159  1  0  0.107822  0  0.971495  0  0  0.108905  0  1.044653  0  0  0.112727  0  1.042095  0  0  0.108989  0.106205  0  1.046448  0
H  H7  1  0.51993387  0.95055563  0.13158679  1  0  0.107825  0  0.971544  0  0  0.108906  0  1.044704  0  0  0.112733  0  1.042133  0  0  0.109012  0.106209  0  1.046489  0
H  H8  1  0.19189139  0.98659703  0.70176498  1  0  0.098431  0  1.028232  0  0  0.101736  0  1.106891  0  0  0.106953  0  1.101025  0  0  0.091846  0.097792  0  1.111435  0
H  H9  1  0.80813259  0.01339792  0.29824062  1  0  0.098423  0  1.028244  0  0  0.101754  0  1.106891  0  0  0.106977  0  1.101013  0  0  0.091812  0.097808  0  1.111435  0
H  H10  1  0.55807743  0.68157101  0.64198382  1  0  0.098623  0  0.9997  0  0  0.104186  0  1.068721  0  0  0.106324  0  1.067701  0  0  0.095982  0.102594  0  1.069587  0
H  H11  1  0.44192885  0.31844242  0.35800842  1  0  0.098595  0  0.999728  0  0  0.104192  0  1.068703  0  0  0.106327  0  1.067689  0  0  0.096014  0.102597  0  1.069574  0
H  H12  1  0.11045448  0.74256230  0.20603290  1  0  0.123848  0  0.955544  0  0  0.130014  0  1.021832  0  0  0.133436  0  1.01987  0  0  0.118183  0.127506  0  1.023418  0
H  H13  1  0.88952049  0.25742996  0.79397535  1  0  0.123814  0  0.955679  0  0  0.130036  0  1.021883  0  0  0.133457  0  1.019923  0  0  0.118236  0.12753  0  1.023467  0
C  C14  1  0.82874436  0.60777130  0.18335401  1  0  0.01551  0  3.753064  0  0  -0.010108  0  4.024109  0  0  -0.01  0  4.045725  0  0  0.000421  -0.010072  0  4.009499  0
C  C15  1  0.17122100  0.39222277  0.81664582  1  0  0.01544  0  3.753149  0  0  -0.010178  0  4.024266  0  0  -0.010065  0  4.045863  0  0  0.000427  -0.010142  0  4.009647  0
C  C16  1  0.82657358  0.66788295  0.00202385  1  0  0.426374  0  3.763972  0  0  0.368408  0  4.057587  0  0  0.389816  0  4.065856  0  0  0.327724  0.354413  0  4.051637  0
C  C17  1  0.17341550  0.33211464  0.99797616  1  0  0.426277  0  3.764159  0  0  0.368302  0  4.057761  0  0  0.389709  0  4.066035  0  0  0.327743  0.3543  0  4.051822  0
C  C18  1  0.62805932  0.63471892  0.82685731  1  0  -0.032909  0  3.600295  0  0  -0.074248  0  3.862176  0  0  -0.073857  0  3.880246  0  0  -0.002167  -0.074388  0  3.850282  0
C  C19  1  0.37193604  0.36528656  0.17314297  1  0  -0.033124  0  3.600187  0  0  -0.074453  0  3.862122  0  0  -0.074063  0  3.880197  0  0  -0.002184  -0.074581  0  3.850232  0
C  C20  1  0.34063456  0.97981219  0.87634485  1  0  0.024937  0  3.721427  0  0  -0.008644  0  4.003927  0  0  -0.006688  0  4.021271  0  0  -0.004896  -0.009874  0  3.992189  0
C  C21  1  0.65937942  0.02018538  0.12366030  1  0  0.024913  0  3.721315  0  0  -0.008668  0  4.003841  0  0  -0.00671  0  4.021185  0  0  -0.004911  -0.009897  0  3.992084  0
C  C22  1  0.88775715  0.78601877  0.80891450  1  0  0.429899  0  3.740732  0  0  0.37255  0  4.018752  0  0  0.394862  0  4.0302  0  0  0.332712  0.357946  0  4.010726  0
C  C23  1  0.11225021  0.21398499  0.19108267  1  0  0.429774  0  3.740881  0  0  0.37249  0  4.018908  0  0  0.394784  0  4.030359  0  0  0.332645  0.35788  0  4.010895  0
C  C24  1  0.11453549  0.83234054  0.96328499  1  0  0.428486  0  3.762646  0  0  0.374104  0  4.050173  0  0  0.395507  0  4.058625  0  0  0.330439  0.360045  0  4.044147  0
C  C25  1  0.88546073  0.16766226  0.03672249  1  0  0.428576  0  3.762564  0  0  0.374156  0  4.050053  0  0  0.395559  0  4.058504  0  0  0.330458  0.360092  0  4.044044  0
C  C26  1  0.20032625  0.95101651  0.79295644  1  0  -0.051885  0  3.660695  0  0  -0.091282  0  3.923418  0  0  -0.090806  0  3.941829  0  0  -0.01459  -0.091574  0  3.91123  0
C  C27  1  0.79967469  0.04897926  0.20705356  1  0  -0.051861  0  3.660421  0  0  -0.091276  0  3.923116  0  0  -0.0908  0  3.941521  0  0  -0.014669  -0.091574  0  3.910948  0
C  C28  1  0.64739425  0.69784025  0.71568264  1  0  0.02186  0  3.705965  0  0  -0.009197  0  3.970123  0  0  -0.007741  0  3.990792  0  0  -0.006845  -0.010239  0  3.956432  0
C  C29  1  0.35261774  0.30216964  0.28431529  1  0  0.021927  0  3.706071  0  0  -0.009136  0  3.970242  0  0  -0.007687  0  3.990886  0  0  -0.006936  -0.010185  0  3.956557  0
C  C30  1  0.99357795  0.70120583  0.15586708  1  0  -0.041691  0  3.651115  0  0  -0.086232  0  3.914753  0  0  -0.085255  0  3.934132  0  0  0.000868  -0.086883  0  3.901884  0
C  C31  1  0.00640431  0.29879174  0.84413473  1  0  -0.041593  0  3.651378  0  0  -0.086236  0  3.915019  0  0  -0.085253  0  3.934385  0  0  0.000814  -0.086888  0  3.902147  0
I  I32  1  0.35610146  0.87010910  0.43911829  1  0  -0.267951  0  1.824187  0  0  -0.209964  0  2.293734  0  0  -0.229471  0  2.250662  0  0  -0.108563  -0.197394  0  2.323492  0
I  I33  1  0.64390467  0.12989211  0.56086731  1  0  -0.267903  0  1.824082  0  0  -0.209936  0  2.293651  0  0  -0.229425  0  2.250563  0  0  -0.108557  -0.197352  0  2.323379  0
I  I34  1  0.11162647  0.61043241  0.47938100  1  0  -0.121286  0  1.360446  0  0  -0.114765  0  1.735396  0  0  -0.104502  0  1.715891  0  0  -0.065156  -0.121283  0  1.74919  0
I  I35  1  0.88840379  0.38957757  0.52060503  1  0  -0.121328  0  1.360356  0  0  -0.114815  0  1.735305  0  0  -0.10456  0  1.715795  0  0  -0.065202  -0.12134  0  1.749096  0
N  N36  1  0.05263439  0.85499621  0.84875229  1  0  -0.200527  0  3.585416  0  0  -0.114238  0  3.806759  0  0  -0.132676  0  3.828989  0  0  -0.217914  -0.102172  0  3.791664  0
N  N37  1  0.94737927  0.14500222  0.15125428  1  0  -0.200648  0  3.585514  0  0  -0.114386  0  3.806898  0  0  -0.132828  0  3.829136  0  0  -0.217908  -0.102324  0  3.79181  0
N  N38  1  0.78246721  0.69173677  0.88665162  1  0  -0.189088  0  3.578452  0  0  -0.105736  0  3.806053  0  0  -0.123211  0  3.827042  0  0  -0.211111  -0.094357  0  3.791743  0
N  N39  1  0.21753377  0.30827225  0.11334433  1  0  -0.188725  0  3.578186  0  0  -0.105515  0  3.80592  0  0  -0.122991  0  3.826917  0  0  -0.211075  -0.094136  0  3.791621  0
N  N40  1  0.99234866  0.74011729  0.03798190  1  0  -0.190286  0  3.591325  0  0  -0.107312  0  3.818091  0  0  -0.124484  0  3.838567  0  0  -0.213643  -0.09609  0  3.80412  0
N  N41  1  0.00764946  0.25988028  0.96202117  1  0  -0.190502  0  3.591627  0  0  -0.107348  0  3.818209  0  0  -0.124517  0  3.838681  0  0  -0.213729  -0.096125  0  3.804252  0
N  N42  1  0.28761248  0.90459578  0.98260264  1  0  -0.398801  0  2.956909  0  0  -0.369856  0  3.240933  0  0  -0.382337  0  3.251402  0  0  -0.334595  -0.361388  0  3.23366  0
N  N43  1  0.71239073  0.09540000  0.01740650  1  0  -0.398734  0  2.956727  0  0  -0.369793  0  3.240757  0  0  -0.382274  0  3.251228  0  0  -0.334529  -0.361321  0  3.233484  0
N  N44  1  0.72483595  0.58725224  0.08673672  1  0  -0.407534  0  2.988341  0  0  -0.375596  0  3.265114  0  0  -0.388228  0  3.275846  0  0  -0.334015  -0.366911  0  3.257508  0
N  N45  1  0.27514227  0.41275066  0.91325564  1  0  -0.407436  0  2.98807  0  0  -0.375483  0  3.264814  0  0  -0.388114  0  3.275544  0  0  -0.333955  -0.366792  0  3.257201  0
N  N46  1  0.80868132  0.79284514  0.70438834  1  0  -0.388301  0  3.289514  0  0  -0.320915  0  3.597907  0  0  -0.337695  0  3.604135  0  0  -0.382878  -0.310043  0  3.593469  0
N  N47  1  0.19133356  0.20716299  0.29560998  1  0  -0.388202  0  3.289604  0  0  -0.32085  0  3.598016  0  0  -0.337569  0  3.604169  0  0  -0.382747  -0.30996  0  3.593567  0
