# generated using pymatgen
data_Mn2H22C42S(N4O5)2
_symmetry_space_group_name_H-M   'P 1'
_cell_length_a   6.41376399
_cell_length_b   12.37322714
_cell_length_c   25.81823928
_cell_angle_alpha   93.40093978
_cell_angle_beta   89.99567143
_cell_angle_gamma   104.93260045
_symmetry_Int_Tables_number   1
_chemical_formula_structural   Mn2H22C42S(N4O5)2
_chemical_formula_sum   'Mn4 H44 C84 S2 N16 O20'
_cell_volume   1975.98383012
_cell_formula_units_Z   2
loop_
 _symmetry_equiv_pos_site_id
 _symmetry_equiv_pos_as_xyz
  1  'x, y, z'
loop_
 _atom_site_type_symbol
 _atom_site_label
 _atom_site_symmetry_multiplicity
 _atom_site_fract_x
 _atom_site_fract_y
 _atom_site_fract_z
 _atom_site_occupancy
 _atom_site_pbe_bader_charge
 _atom_site_pbe_bader_spin_density
 _atom_site_pbe_cm5_charge
 _atom_site_pbe_ddec_charge
 _atom_site_pbe_ddec_spin_density
 _atom_site_pbe_ddec_sum_bond_order
 _atom_site_pbe_magmom
Mn  Mn0  1  0.00212479  0.16609055  0.96380878  1  1.52726  4.498316  0.624375  0.943835  4.634055  2.417876  4.429
Mn  Mn1  1  0.83558184  0.83395368  0.53597431  1  1.527605  4.483076  0.62581  0.944297  4.613697  2.433122  4.415
Mn  Mn2  1  0.99784127  0.83391707  0.03619352  1  1.52742  4.498319  0.624339  0.943861  4.634064  2.417947  4.429
Mn  Mn3  1  0.16444428  0.16604307  0.46402567  1  1.527894  -4.483035  0.625838  0.94441  -4.62152  2.432926  -4.415
H  H4  1  0.51074419  0.77853864  0.97789505  1  0.552819  0.000133  0.310898  0.286908  -0.000561  0.98886  0.0
H  H5  1  0.73319354  0.22133042  0.52213753  1  0.548867  -0.000119  0.310912  0.286419  0.000567  0.989711  0.0
H  H6  1  0.48922560  0.22146084  0.02209844  1  0.552718  0.000133  0.310961  0.286888  -0.000561  0.988902  0.0
H  H7  1  0.26681531  0.77867548  0.47786587  1  0.548819  0.000119  0.310825  0.286337  -0.000566  0.989853  0.0
H  H8  1  0.01398839  0.83291381  0.83745783  1  0.092704  0.000359  0.110148  0.116797  0.000164  0.98367  0.0
H  H9  1  0.17987552  0.16740445  0.66259237  1  0.076291  0.000137  0.110005  0.116157  8.7e-05  0.984378  0.0
H  H10  1  0.98602743  0.16707792  0.16254198  1  0.092607  0.000318  0.110163  0.116808  0.000131  0.983811  0.0
H  H11  1  0.82015051  0.83261089  0.33740322  1  0.076354  -9.6e-05  0.110031  0.116228  -5.7e-05  0.984416  0.0
H  H12  1  0.26652706  0.85026668  0.76357441  1  0.068397  0.000119  0.10997  0.109015  4.6e-05  0.999125  0.0
H  H13  1  0.41623264  0.15026145  0.73630824  1  0.102828  7.2e-05  0.110316  0.110118  4.7e-05  1.000137  0.0
H  H14  1  0.73350658  0.14972326  0.23642921  1  0.11556  7.7e-05  0.109922  0.108932  5.8e-05  0.999142  0.0
H  H15  1  0.58378776  0.84974884  0.26368756  1  0.102189  8e-06  0.110308  0.110101  -1.7e-05  1.000187  0.0
H  H16  1  0.71766486  0.12070029  0.84975842  1  0.108497  0.000201  0.112079  0.114369  -0.000115  1.037437  0.0
H  H17  1  0.59697514  0.87932118  0.65014247  1  0.132365  6.3e-05  0.112317  0.114883  -0.00017  1.036155  0.0
H  H18  1  0.28232230  0.87930901  0.15024354  1  0.10815  0.000203  0.11209  0.114381  -0.000115  1.037488  0.0
H  H19  1  0.40304029  0.12068226  0.34985852  1  0.132407  -6.1e-05  0.112316  0.114847  0.00017  1.036141  0.0
H  H20  1  0.05638456  0.30531990  0.07503641  1  0.137076  0.001028  0.118138  0.089281  0.000168  1.007731  0.001
H  H21  1  0.74946234  0.69434535  0.42481878  1  0.112045  0.000951  0.118081  0.089185  0.000129  1.007298  0.001
H  H22  1  0.94361548  0.69469022  0.92496636  1  0.136982  0.001028  0.118142  0.08931  0.000167  1.007757  0.001
H  H23  1  0.25053676  0.30564723  0.57518106  1  0.111948  -0.000951  0.11806  0.089143  -0.00013  1.00731  -0.001
H  H24  1  0.19214722  0.50470377  0.11065728  1  0.063549  0.000785  0.111357  0.119743  0.000427  0.975848  0.0
H  H25  1  0.68668727  0.49489115  0.38929136  1  0.057964  0.000735  0.111729  0.120275  0.000428  0.975635  0.0
H  H26  1  0.80784171  0.49530906  0.88933822  1  0.063482  0.000787  0.1114  0.1197  0.000427  0.97577  0.0
H  H27  1  0.31330348  0.50509721  0.61070950  1  0.058176  -0.000733  0.111743  0.120295  -0.000429  0.975622  0.0
H  H28  1  0.33265650  0.65456138  0.04884790  1  0.171147  0.000157  0.112616  0.123768  -0.000448  1.028052  0.0
H  H29  1  0.67826781  0.34505316  0.45116388  1  0.11857  -0.000181  0.112472  0.123738  0.000481  1.027128  0.0
H  H30  1  0.66733799  0.34544384  0.95114967  1  0.171227  0.000157  0.112636  0.123874  -0.000448  1.028046  0.0
H  H31  1  0.32174266  0.65494349  0.54884036  1  0.118677  0.000181  0.112475  0.123787  -0.000481  1.027088  0.0
H  H32  1  0.08175023  0.14383174  0.84114600  1  0.112542  0.001507  0.116378  0.08293  0.000991  1.02239  0.001
H  H33  1  0.93861868  0.85645715  0.65855569  1  0.104253  0.001483  0.116578  0.083212  0.00097  1.022164  0.001
H  H34  1  0.91824185  0.85615302  0.15886364  1  0.11262  0.00151  0.116362  0.082994  0.000994  1.022317  0.001
H  H35  1  0.06140401  0.14354211  0.34144477  1  0.104282  -0.001477  0.116609  0.083265  -0.000968  1.022137  -0.001
H  H36  1  0.19577224  0.26967147  0.76893044  1  0.108497  0.00064  0.112821  0.126782  0.000351  0.993055  0.0
H  H37  1  0.92714617  0.73065436  0.73078061  1  0.113766  0.000645  0.112664  0.126679  0.000356  0.993154  0.0
H  H38  1  0.80422506  0.73030501  0.23107505  1  0.108477  0.000639  0.112815  0.126721  0.000356  0.99302  0.0
H  H39  1  0.07285238  0.26934653  0.26922223  1  0.113868  -0.00063  0.112649  0.126658  -0.000356  0.993329  0.0
H  H40  1  0.33885410  0.47822174  0.79035284  1  0.104433  6.1e-05  0.114824  0.120791  5.1e-05  0.975899  0.0
H  H41  1  0.86174989  0.52206871  0.70948149  1  0.10964  6.3e-05  0.115157  0.120645  5.7e-05  0.976307  0.0
H  H42  1  0.66115097  0.52175155  0.20964673  1  0.104191  3.9e-05  0.114889  0.120959  3e-05  0.975776  0.0
H  H43  1  0.13824230  0.47792878  0.29052278  1  0.10965  -3e-05  0.115134  0.12063  -2.8e-05  0.97641  0.0
H  H44  1  0.59689296  0.83877854  0.88676022  1  0.14158  0.000264  0.129462  0.09575  -7e-05  1.002261  0.0
H  H45  1  0.75910560  0.16121609  0.61329862  1  0.139776  0.000196  0.12941  0.095893  -7.7e-05  1.001405  0.0
H  H46  1  0.40309190  0.16121676  0.11323235  1  0.141573  0.000263  0.129428  0.095807  -6.9e-05  1.002157  0.0
H  H47  1  0.24088630  0.83877144  0.38670183  1  0.139946  -0.000195  0.129465  0.095984  7.5e-05  1.001326  0.0
C  C48  1  0.07005565  0.94718073  0.92965516  1  1.621662  0.035726  0.22992  0.600045  0.035237  4.207879  0.03
C  C49  1  0.12041289  0.05233789  0.57051369  1  1.63784  0.011258  0.229378  0.597071  0.011464  4.209265  0.009
C  C50  1  0.92992891  0.05282960  0.07033987  1  1.621069  0.035737  0.229884  0.60008  0.035242  4.207744  0.03
C  C51  1  0.87959100  0.94765804  0.42948588  1  1.637393  -0.011247  0.2294  0.5971  -0.011482  4.209295  -0.009
C  C52  1  0.49379695  0.12378049  0.93695501  1  1.57488  0.024613  0.229194  0.597407  0.023098  4.150644  0.022
C  C53  1  0.36938664  0.87629605  0.56303157  1  1.575073  0.023792  0.228154  0.597995  0.022446  4.150542  0.021
C  C54  1  0.50619210  0.87622632  0.06304571  1  1.574867  0.024604  0.229074  0.59728  0.02309  4.150946  0.022
C  C55  1  0.63062315  0.12370235  0.43697002  1  1.575151  -0.02379  0.228255  0.598205  -0.022482  4.150447  -0.021
C  C56  1  0.42608088  0.04566329  0.88964160  1  0.021943  0.004192  -0.009143  -0.066056  0.002673  3.943454  0.002
C  C57  1  0.37964158  0.95427818  0.61037451  1  -0.008132  -0.001904  -0.009926  -0.066437  -0.002066  3.941164  -0.002
C  C58  1  0.57390352  0.95434359  0.11035679  1  0.022342  0.00418  -0.008986  -0.065697  0.002666  3.943249  0.002
C  C59  1  0.62037074  0.04572529  0.38962571  1  -0.007477  0.001917  -0.010017  -0.066623  0.002071  3.941281  0.002
C  C60  1  0.22673192  0.96437636  0.88577583  1  -0.046635  0.009066  0.007232  -0.025001  0.006477  3.929062  0.005
C  C61  1  0.26106439  0.03557052  0.61426238  1  -0.010199  0.002551  0.007161  -0.023498  0.002079  3.925932  0.001
C  C62  1  0.77326441  0.03562631  0.11422319  1  -0.046499  0.00917  0.007138  -0.025344  0.006562  3.929043  0.005
C  C63  1  0.73892774  0.96442373  0.38573791  1  -0.010173  -0.002475  0.007162  -0.023468  -0.002031  3.925957  -0.001
C  C64  1  0.16972162  0.89495785  0.84025800  1  -0.047104  0.001628  -0.080352  -0.103351  0.001235  3.956194  0.001
C  C65  1  0.27372994  0.10521836  0.65974891  1  -0.010366  -0.00182  -0.079681  -0.101891  -0.001371  3.954573  -0.001
C  C66  1  0.83029504  0.10503556  0.15974186  1  -0.047054  0.001577  -0.080225  -0.102989  0.001179  3.956152  0.001
C  C67  1  0.72627646  0.89478261  0.34025045  1  -0.010507  0.001852  -0.07968  -0.101986  0.001397  3.954835  0.001
C  C68  1  0.30963133  0.90482801  0.79874817  1  0.021509  0.004605  -0.070452  -0.061034  0.003632  3.970468  0.003
C  C69  1  0.40463250  0.09559067  0.70115255  1  -0.015024  0.003599  -0.071438  -0.064391  0.002839  3.972803  0.002
C  C70  1  0.69038926  0.09516703  0.20125330  1  -0.02573  0.004663  -0.070619  -0.061267  0.003666  3.970545  0.003
C  C71  1  0.59537984  0.90441284  0.29884612  1  -0.01449  -0.003468  -0.071461  -0.064349  -0.002725  3.972664  -0.002
C  C72  1  0.50702036  0.98638340  0.80281216  1  -0.198456  0.002299  -0.025772  -0.098557  0.001769  4.005408  0.001
C  C73  1  0.52053991  0.01385665  0.69709116  1  -0.217632  -0.003389  -0.024965  -0.096652  -0.002648  4.002677  -0.002
C  C74  1  0.49298866  0.01362596  0.19718709  1  -0.197603  0.002392  -0.02579  -0.098605  0.001837  4.005619  0.001
C  C75  1  0.47947266  0.98615357  0.30290735  1  -0.216777  0.003531  -0.02498  -0.096677  0.002727  4.002585  0.002
C  C76  1  0.56534093  0.05650995  0.84737736  1  0.021975  0.002826  -0.070702  -0.091035  0.00192  3.958716  0.002
C  C77  1  0.50854129  0.94353245  0.65256491  1  -0.022696  0.003563  -0.070831  -0.09216  0.002424  3.957773  0.002
C  C78  1  0.43465594  0.94349692  0.15262142  1  0.021066  0.002965  -0.070661  -0.091075  0.00203  3.958806  0.002
C  C79  1  0.49147542  0.05647356  0.34743423  1  -0.023947  -0.003426  -0.070884  -0.092132  -0.002329  3.957773  -0.002
C  C80  1  0.12503183  0.37254490  0.04978566  1  0.560136  0.008676  0.052684  0.100603  0.007052  3.960205  0.006
C  C81  1  0.75150529  0.62717046  0.45008927  1  0.518595  0.008714  0.053001  0.101495  0.007035  3.962507  0.006
C  C82  1  0.87495921  0.62746278  0.95021431  1  0.560635  0.008672  0.052681  0.100518  0.007049  3.960624  0.006
C  C83  1  0.24848880  0.37282460  0.54991182  1  0.518509  -0.008712  0.052987  0.101435  -0.007045  3.962548  -0.006
C  C84  1  0.20091368  0.48407968  0.06925409  1  -0.051271  2.7e-05  -0.084395  -0.132172  -0.000203  4.002005  0.0
C  C85  1  0.71633184  0.51557753  0.43067585  1  0.013776  -0.000372  -0.084928  -0.133328  -0.000326  4.003675  0.0
C  C86  1  0.79906928  0.51593057  0.93074364  1  -0.051739  2.9e-05  -0.084501  -0.132108  -0.000201  4.002105  0.0
C  C87  1  0.28366808  0.48441670  0.56932482  1  0.013512  0.000374  -0.084912  -0.13326  0.000324  4.003749  0.0
C  C88  1  0.28842318  0.53655835  0.98185885  1  -0.024417  0.000299  0.000972  -0.014529  -0.000129  4.01394  0.0
C  C89  1  0.75181806  0.46328227  0.51806709  1  0.043164  0.000184  0.001097  -0.014307  0.000156  4.014136  0.0
C  C90  1  0.71154739  0.46344270  0.01813818  1  -0.024451  0.0003  0.000888  -0.014512  -0.000127  4.013961  0.0
C  C91  1  0.24818860  0.53671610  0.48193566  1  0.043323  -0.000183  0.001276  -0.013954  -0.000157  4.014482  0.0
C  C92  1  0.28101575  0.56656904  0.03525321  1  -0.098673  0.007366  -0.068021  -0.067865  0.005351  3.915581  0.004
C  C93  1  0.71421400  0.43309827  0.46469737  1  -0.044915  0.007407  -0.068311  -0.068168  0.006033  3.915403  0.004
C  C94  1  0.71895194  0.43343873  0.96474367  1  -0.098638  0.007363  -0.068041  -0.068083  0.005349  3.915854  0.004
C  C95  1  0.28578289  0.56689928  0.53530458  1  -0.044956  -0.007407  -0.068352  -0.068286  -0.006042  3.915449  -0.004
C  C96  1  0.21080297  0.42110923  0.96541282  1  0.529685  0.006484  0.11661  0.112713  0.00531  3.993049  0.004
C  C97  1  0.78944082  0.57880200  0.53445156  1  0.471788  0.00598  0.116758  0.113061  0.004819  3.993252  0.004
C  C98  1  0.78918161  0.57889174  0.03458692  1  0.529798  0.006482  0.116675  0.112709  0.005308  3.992946  0.004
C  C99  1  0.21058310  0.42119973  0.46555091  1  0.471665  -0.005978  0.116701  0.112897  -0.004826  3.993521  -0.004
C  C100  1  0.21296430  0.38357461  0.91106337  1  0.44473  0.005982  0.117262  0.116085  0.004482  3.974063  0.004
C  C101  1  0.82966457  0.61652983  0.58875035  1  0.46877  0.005719  0.116901  0.115033  0.004253  3.973799  0.004
C  C102  1  0.78702597  0.61642216  0.08893661  1  0.444162  0.005984  0.117248  0.116099  0.004483  3.973821  0.004
C  C103  1  0.17036394  0.38346859  0.41125008  1  0.468992  -0.005718  0.117007  0.115198  -0.004259  3.974069  -0.004
C  C104  1  0.14042000  0.23409061  0.84919510  1  0.53104  0.009455  0.054113  0.105102  0.007792  3.942348  0.006
C  C105  1  0.90699303  0.76618406  0.65051634  1  0.529605  0.009496  0.053429  0.104025  0.007805  3.943038  0.006
C  C106  1  0.85955001  0.76589681  0.15080959  1  0.531087  0.009461  0.054001  0.104746  0.007796  3.942444  0.006
C  C107  1  0.09302185  0.23381515  0.34948605  1  0.529447  -0.009491  0.053329  0.104072  -0.007815  3.942986  -0.006
C  C108  1  0.20823685  0.30550950  0.80868653  1  -0.04576  0.000148  -0.08208  -0.121612  -0.00015  3.970375  0.0
C  C109  1  0.90353863  0.69481379  0.69104427  1  -0.052606  8e-06  -0.081444  -0.120524  -0.000246  3.972039  0.0
C  C110  1  0.79174396  0.69447455  0.19131844  1  -0.045709  0.000151  -0.081944  -0.121137  -0.000146  3.970043  0.0
C  C111  1  0.09647324  0.30518877  0.30895862  1  -0.052564  1e-06  -0.081468  -0.120618  0.000245  3.972309  0.0
C  C112  1  0.28344998  0.41952551  0.82037479  1  -0.035339  0.007478  -0.063343  -0.068767  0.005791  3.928524  0.004
C  C113  1  0.86472981  0.58074418  0.67943368  1  -0.020033  0.007567  -0.064211  -0.069963  0.005874  3.929351  0.004
C  C114  1  0.71652704  0.58046031  0.17962676  1  -0.035742  0.007479  -0.06343  -0.069222  0.00579  3.928389  0.004
C  C115  1  0.13527499  0.41925671  0.32056877  1  -0.020308  -0.007558  -0.064156  -0.069914  -0.005875  3.929456  -0.004
C  C116  1  0.28802697  0.46148711  0.87250996  1  0.005652  0.000161  0.001952  -0.004399  -9.8e-05  4.006038  0.0
C  C117  1  0.82702582  0.53867982  0.62733515  1  -0.074984  5.1e-05  0.001974  -0.003299  -0.000188  4.005293  0.0
C  C118  1  0.71195229  0.53850635  0.12748875  1  0.006282  0.000159  0.002008  -0.00414  -9.8e-05  4.005587  0.0
C  C119  1  0.17298896  0.46131607  0.37266596  1  -0.074834  -4.9e-05  0.001933  -0.00316  0.000185  4.005203  0.0
C  C120  1  0.36707885  0.57699339  0.88951069  1  0.437388  0.000424  0.078096  0.073229  0.000267  4.105367  0.0
C  C121  1  0.79086241  0.42310989  0.61040316  1  0.502169  0.000144  0.077683  0.072721  4.2e-05  4.106762  0.0
C  C122  1  0.63290355  0.42300009  0.11048685  1  0.43704  0.000424  0.078094  0.0732  0.000266  4.105401  0.0
C  C123  1  0.20916296  0.57688849  0.38959881  1  0.502343  -0.000143  0.077627  0.072586  -4.2e-05  4.106684  0.0
C  C124  1  0.36779745  0.61192614  0.94239195  1  0.396155  0.000429  0.091135  0.077187  0.000125  4.018726  0.0
C  C125  1  0.75623589  0.38802163  0.55756643  1  0.383773  0.000188  0.09155  0.077121  0.000192  4.021064  0.0
C  C126  1  0.63217927  0.38807159  0.05760381  1  0.396232  0.000428  0.091204  0.07718  0.000124  4.018697  0.0
C  C127  1  0.24378791  0.61197673  0.44243632  1  0.383636  -0.000187  0.091352  0.076772  -0.000192  4.021566  0.0
C  C128  1  0.51637003  0.75316463  0.89514519  1  0.979544  2e-06  0.145845  0.177102  -9.6e-05  3.956719  0.0
C  C129  1  0.76451698  0.24690891  0.60487628  1  0.982254  -0.000283  0.146499  0.178209  -0.000242  3.953962  0.0
C  C130  1  0.48361992  0.24683149  0.10484780  1  0.978702  1e-06  0.145989  0.177192  -9.6e-05  3.956513  0.0
C  C131  1  0.23549143  0.75308359  0.39512627  1  0.982378  0.000284  0.146417  0.178113  0.000241  3.954089  0.0
S  S132  1  0.68770645  0.00014741  0.74993611  1  2.477849  -4e-06  0.471691  0.971707  -3.7e-05  5.758994  0.0
S  S133  1  0.31230978  0.99986704  0.25006138  1  2.477559  0.000836  0.471809  0.971854  0.00075  5.759059  0.0
N  N134  1  0.13040021  0.34195714  0.99950873  1  -1.25911  0.04973  -0.314842  -0.282087  0.035116  3.506593  0.018
N  N135  1  0.78766257  0.65790112  0.50034171  1  -1.26054  0.049043  -0.315237  -0.283015  0.034714  3.508597  0.018
N  N136  1  0.86958051  0.65804550  0.00049146  1  -1.259356  0.049746  -0.314818  -0.281992  0.035112  3.506602  0.018
N  N137  1  0.21234766  0.34209816  0.49965836  1  -1.260621  -0.049045  -0.315265  -0.283023  -0.034775  3.508681  -0.018
N  N138  1  0.14168220  0.27177332  0.89867281  1  -1.245413  0.049708  -0.315493  -0.283296  0.034442  3.525262  0.017
N  N139  1  0.87020343  0.72841246  0.60106493  1  -1.244007  0.049066  -0.314576  -0.281106  0.034024  3.52401  0.017
N  N140  1  0.85829016  0.72822506  0.10132994  1  -1.245186  0.049709  -0.315485  -0.283334  0.034439  3.525323  0.017
N  N141  1  0.12981839  0.27158506  0.39893779  1  -1.244213  -0.049093  -0.314489  -0.281265  -0.034083  3.524285  -0.017
N  N142  1  0.46011907  0.66638974  0.86044429  1  -1.168257  9.2e-05  -0.363087  -0.393359  6.3e-05  3.217684  0.0
N  N143  1  0.79509066  0.33379699  0.63951620  1  -1.176915  -8.6e-05  -0.363489  -0.393601  -4.6e-05  3.216536  0.0
N  N144  1  0.53987895  0.33360381  0.13955055  1  -1.167757  6.8e-05  -0.363122  -0.393414  5e-05  3.217711  0.0
N  N145  1  0.20492342  0.66620062  0.36048343  1  -1.176958  0.000112  -0.363369  -0.393442  5.7e-05  3.216182  0.0
N  N146  1  0.46325820  0.72503069  0.94475773  1  -1.262425  0.000222  -0.368496  -0.243962  -0.000259  3.611259  0.0
N  N147  1  0.73894773  0.27487656  0.55525945  1  -1.261128  -0.000219  -0.368462  -0.244257  0.000194  3.609488  0.0
N  N148  1  0.53672011  0.27496710  0.05523610  1  -1.261622  0.000222  -0.368638  -0.244096  -0.000259  3.611302  0.0
N  N149  1  0.26106202  0.72512177  0.44474446  1  -1.261196  0.00022  -0.368354  -0.244152  -0.000194  3.609831  0.0
O  O150  1  0.35217177  0.13576042  0.96994055  1  -1.186208  0.05678  -0.28779  -0.549136  0.04303  2.287816  0.031
O  O151  1  0.21553777  0.86438488  0.53013520  1  -1.189724  0.055513  -0.287941  -0.550102  0.043142  2.289015  0.031
O  O152  1  0.64780178  0.86423722  0.03005869  1  -1.186165  0.056795  -0.28773  -0.549204  0.04304  2.288141  0.031
O  O153  1  0.78448098  0.13561272  0.46986482  1  -1.189939  -0.055509  -0.287948  -0.550192  -0.043214  2.289007  -0.031
O  O154  1  0.92657740  0.00166008  0.93066932  1  -1.19391  0.067173  -0.313632  -0.556075  0.045817  2.30768  0.028
O  O155  1  0.92303982  0.99736914  0.56975959  1  -1.202631  0.050319  -0.313922  -0.555272  0.033939  2.312939  0.015
O  O156  1  0.07342178  0.99835456  0.06932160  1  -1.193961  0.067187  -0.313737  -0.556203  0.045829  2.307372  0.028
O  O157  1  0.07695918  0.00262013  0.43023859  1  -1.202581  -0.050304  -0.313943  -0.555288  -0.034003  2.312997  -0.015
O  O158  1  0.08787473  0.87424205  0.96051038  1  -1.194594  0.071662  -0.29619  -0.527269  0.049557  2.3557  0.032
O  O159  1  0.20933774  0.12529222  0.53949236  1  -1.195688  -0.040588  -0.296291  -0.526397  -0.02754  2.363429  -0.008
O  O160  1  0.91208181  0.12577149  0.03949018  1  -1.194089  0.071674  -0.296039  -0.527106  0.049559  2.355661  0.032
O  O161  1  0.79067701  0.87470363  0.46051031  1  -1.195332  0.040608  -0.296344  -0.52647  0.027496  2.363502  0.008
O  O162  1  0.75111846  0.89614476  0.74089819  1  -1.300363  0.000167  -0.315731  -0.528249  5.4e-05  2.185678  0.0
O  O163  1  0.85459617  0.10411859  0.75900362  1  -1.30221  3.1e-05  -0.314877  -0.527777  -6.2e-05  2.187452  0.0
O  O164  1  0.24889904  0.10387223  0.25909823  1  -1.29985  0.000257  -0.315813  -0.528311  0.000192  2.18538  0.0
O  O165  1  0.14541626  0.89590074  0.24099946  1  -1.302504  0.000438  -0.314815  -0.527763  0.00021  2.187836  0.0
O  O166  1  0.69165142  0.17816492  0.94119589  1  -1.210244  0.06778  -0.315002  -0.557878  0.048914  2.353402  0.031
O  O167  1  0.51311239  0.82192229  0.55858263  1  -1.205712  0.066849  -0.313708  -0.557492  0.048282  2.355603  0.031
O  O168  1  0.30833569  0.82185366  0.05880407  1  -1.2103  0.067774  -0.315017  -0.557804  0.048904  2.353298  0.031
O  O169  1  0.48689179  0.17807112  0.44141763  1  -1.205691  -0.066879  -0.313752  -0.557545  -0.04838  2.355586  -0.031
