# generated using pymatgen
data_CdH17C22N6ClO2
_symmetry_space_group_name_H-M   'P 1'
_cell_length_a   10.32279466
_cell_length_b   13.82034026
_cell_length_c   16.39870612
_cell_angle_alpha   89.99977352
_cell_angle_beta   90.00032430
_cell_angle_gamma   104.63559138
_symmetry_Int_Tables_number   1
_chemical_formula_structural   CdH17C22N6ClO2
_chemical_formula_sum   'Cd4 H68 C88 N24 Cl4 O8'
_cell_volume   2263.60217459
_cell_formula_units_Z   4
loop_
 _symmetry_equiv_pos_site_id
 _symmetry_equiv_pos_as_xyz
  1  'x, y, z'
loop_
 _atom_site_type_symbol
 _atom_site_label
 _atom_site_symmetry_multiplicity
 _atom_site_fract_x
 _atom_site_fract_y
 _atom_site_fract_z
 _atom_site_occupancy
 _atom_site_pbe_bader_charge
 _atom_site_pbe_bader_spin_density
 _atom_site_pbe_cm5_charge
 _atom_site_pbe_ddec_charge
 _atom_site_pbe_ddec_spin_density
 _atom_site_pbe_ddec_sum_bond_order
 _atom_site_pbe_magmom
Cd  Cd0  1  0.21000713  0.06377036  0.82292251  1  1.211647  0  0.713847  0.801909  0  2.326875  0
Cd  Cd1  1  0.29000010  0.43622204  0.32293258  1  1.211715  0  0.713791  0.801828  0  2.326921  0
Cd  Cd2  1  0.78999177  0.93621721  0.17707112  1  1.211785  0  0.71383  0.801937  0  2.326922  0
Cd  Cd3  1  0.71001308  0.56378799  0.67707081  1  1.211749  0  0.713823  0.801904  0  2.326809  0
H  H4  1  0.38189497  0.11523203  0.41686325  1  0.130591  0  0.111169  0.11981  0  1.034253  0
H  H5  1  0.11810118  0.38476527  0.91686032  1  0.130538  0  0.111187  0.11984  0  1.034283  0
H  H6  1  0.61810017  0.88476749  0.58313465  1  0.130622  0  0.111163  0.119853  0  1.034145  0
H  H7  1  0.88189928  0.61523277  0.08313392  1  0.130604  0  0.111169  0.119811  0  1.034181  0
H  H8  1  0.24565291  0.83156256  0.54118016  1  0.112831  0  0.114411  0.130762  0  1.002613  0
H  H9  1  0.25434654  0.66843292  0.04117819  1  0.112889  0  0.114357  0.130717  0  1.00255  0
H  H10  1  0.75435077  0.16844222  0.45882445  1  0.112875  0  0.114402  0.130749  0  1.0025  0
H  H11  1  0.74565658  0.33156438  0.95882214  1  0.112788  0  0.114362  0.13071  0  1.002678  0
H  H12  1  0.27182849  0.84138844  0.27979005  1  0.082772  0  0.111017  0.122974  0  1.00562  0
H  H13  1  0.22816204  0.65861447  0.77978644  1  0.082663  0  0.111043  0.123055  0  1.005661  0
H  H14  1  0.72816740  0.15861332  0.72021028  1  0.082693  0  0.11104  0.123076  0  1.005693  0
H  H15  1  0.77183308  0.34138206  0.22021451  1  0.082631  0  0.111014  0.123044  0  1.005644  0
H  H16  1  0.21460864  0.91983319  0.64425699  1  0.120578  0  0.13683  0.10582  0  1.004063  0
H  H17  1  0.28538851  0.58016420  0.14425543  1  0.12066  0  0.136806  0.105833  0  1.004113  0
H  H18  1  0.78539410  0.08017457  0.35574152  1  0.120434  0  0.136836  0.105795  0  1.00408  0
H  H19  1  0.71460974  0.41983010  0.85574064  1  0.120538  0  0.136824  0.105847  0  1.00409  0
H  H20  1  0.42523090  0.21704991  0.69202328  1  0.150567  0  0.11569  0.121033  0  1.02723  0
H  H21  1  0.07478761  0.28293920  0.19201664  1  0.150693  0  0.115703  0.120995  0  1.027151  0
H  H22  1  0.57477522  0.78295637  0.30798011  1  0.150641  0  0.115728  0.121073  0  1.027127  0
H  H23  1  0.92520747  0.71705434  0.80798187  1  0.150797  0  0.115721  0.121064  0  1.027143  0
H  H24  1  0.45408095  0.17834742  0.52819340  1  0.120248  0  0.128734  0.131593  0  0.993242  0
H  H25  1  0.04592396  0.32164891  0.02818957  1  0.12008  0  0.128746  0.131605  0  0.993225  0
H  H26  1  0.54591844  0.82166482  0.47180694  1  0.120084  0  0.128722  0.131547  0  0.993402  0
H  H27  1  0.95407063  0.67834314  0.97180832  1  0.120145  0  0.128721  0.131527  0  0.993302  0
H  H28  1  0.35999284  0.68913271  0.32696309  1  0.16207  0  0.128173  0.102453  0  1.034406  0
H  H29  1  0.13999779  0.81086632  0.82695865  1  0.161884  0  0.128223  0.102552  0  1.034435  0
H  H30  1  0.64000142  0.31087578  0.67303908  1  0.161979  0  0.128178  0.10248  0  1.034361  0
H  H31  1  0.85999617  0.18913544  0.17304779  1  0.161872  0  0.128164  0.102467  0  1.034375  0
H  H32  1  0.02073592  0.49490921  0.43208818  1  0.102374  0  0.119561  0.112771  0  1.015505  0
H  H33  1  0.47925354  0.00508504  0.93209145  1  0.102387  0  0.119611  0.11288  0  1.015481  0
H  H34  1  0.97926898  0.50509631  0.56791704  1  0.102256  0  0.119532  0.112852  0  1.015494  0
H  H35  1  0.52075556  0.99490406  0.06790767  1  0.102497  0  0.11957  0.112853  0  1.015514  0
H  H36  1  0.03044484  0.68963270  0.48175337  1  0.13967  0  0.121857  0.125322  0  1.057917  0
H  H37  1  0.46953702  0.81035909  0.98175559  1  0.140032  0  0.121866  0.125418  0  1.057768  0
H  H38  1  0.96955834  0.31037058  0.51825611  1  0.13995  0  0.121871  0.125402  0  1.057818  0
H  H39  1  0.53046114  0.18962624  0.01824292  1  0.140062  0  0.121912  0.125447  0  1.057744  0
H  H40  1  0.44647564  0.01663601  0.22830963  1  0.096164  0  0.118795  0.114525  0  0.973766  0
H  H41  1  0.05351660  0.48336338  0.72831041  1  0.096113  0  0.118758  0.11442  0  0.97377  0
H  H42  1  0.55351150  0.98336274  0.77168766  1  0.095886  0  0.118767  0.114439  0  0.973711  0
H  H43  1  0.94647245  0.51663239  0.27168871  1  0.096101  0  0.118797  0.114544  0  0.973694  0
H  H44  1  0.27652417  0.02265734  0.22077275  1  0.099027  0  0.117744  0.117078  0  0.982351  0
H  H45  1  0.22346852  0.47734357  0.72077171  1  0.099127  0  0.117756  0.117059  0  0.982322  0
H  H46  1  0.72346588  0.97734142  0.77922881  1  0.099103  0  0.117772  0.11709  0  0.982325  0
H  H47  1  0.77651446  0.52265144  0.27922375  1  0.098891  0  0.117787  0.117124  0  0.982221  0
H  H48  1  0.21534350  0.18273119  0.25250170  1  0.163877  0  0.124224  0.112767  0  1.045837  0
H  H49  1  0.28467058  0.31727490  0.75249654  1  0.163678  0  0.124215  0.112773  0  1.045885  0
H  H50  1  0.78465434  0.81727058  0.74750412  1  0.163861  0  0.124187  0.112699  0  1.045919  0
H  H51  1  0.71533670  0.68272615  0.24750197  1  0.163784  0  0.124184  0.112664  0  1.045927  0
H  H52  1  0.58934857  0.36952511  0.32051779  1  0.122613  0  0.110567  0.109876  0  1.026366  0
H  H53  1  0.91067075  0.13048046  0.82051857  1  0.123018  0  0.110507  0.109865  0  1.026267  0
H  H54  1  0.41065877  0.63048191  0.67948011  1  0.122794  0  0.110581  0.109911  0  1.026268  0
H  H55  1  0.08934185  0.86951911  0.17948421  1  0.122884  0  0.110533  0.109902  0  1.026232  0
H  H56  1  0.61550760  0.17297316  0.29728035  1  0.117153  0  0.114794  0.111668  0  1.035891  0
H  H57  1  0.88450106  0.32702722  0.79727795  1  0.117968  0  0.114758  0.111627  0  1.035791  0
H  H58  1  0.38448754  0.82702636  0.70272059  1  0.117733  0  0.114766  0.111628  0  1.035939  0
H  H59  1  0.11549597  0.67296633  0.20272178  1  0.117903  0  0.114766  0.111643  0  1.035861  0
H  H60  1  0.46691719  0.40287396  0.84942144  1  0.123523  0  0.086334  0.101544  0  1.075746  0
H  H61  1  0.03309006  0.09712359  0.34941893  1  0.123368  0  0.086351  0.101586  0  1.0756  0
H  H62  1  0.53307908  0.59711734  0.15057585  1  0.123404  0  0.086287  0.101449  0  1.075959  0
H  H63  1  0.96691869  0.90287896  0.65056921  1  0.123529  0  0.086268  0.101402  0  1.076133  0
H  H64  1  0.55382325  0.58748577  0.84658996  1  0.052263  0  0.093943  0.098225  0  1.046232  0
H  H65  1  0.94617733  0.91251365  0.34659335  1  0.052306  0  0.093991  0.098328  0  1.046137  0
H  H66  1  0.44617228  0.41250330  0.15340184  1  0.052383  0  0.093947  0.098228  0  1.04616  0
H  H67  1  0.05382316  0.08748738  0.65340638  1  0.052317  0  0.093965  0.098277  0  1.046207  0
H  H68  1  0.64495611  0.74716844  0.92148784  1  0.061391  0  0.099502  0.104983  0  1.01504  0
H  H69  1  0.85504338  0.75283148  0.42148839  1  0.061376  0  0.099517  0.105037  0  1.014933  0
H  H70  1  0.35503973  0.25282735  0.07850396  1  0.061403  0  0.099481  0.10494  0  1.015175  0
H  H71  1  0.14495392  0.24716580  0.57850829  1  0.061388  0  0.099527  0.10502  0  1.015105  0
C  C72  1  0.34889352  0.03405055  0.41510892  1  -0.041295  0  -0.090477  -0.228623  0  3.928999  0
C  C73  1  0.15110165  0.46594676  0.91510766  1  -0.041227  0  -0.090571  -0.228757  0  3.929205  0
C  C74  1  0.65110553  0.96595197  0.58489264  1  -0.040951  0  -0.09051  -0.228692  0  3.929074  0
C  C75  1  0.84889878  0.53404829  0.08489024  1  -0.041315  0  -0.090442  -0.228515  0  3.929019  0
C  C76  1  0.31741085  0.97969971  0.48759471  1  0.310252  0  0.104812  0.205564  0  4.012043  0
C  C77  1  0.18258128  0.52029657  0.98759566  1  0.310249  0  0.104878  0.205741  0  4.011903  0
C  C78  1  0.68258823  0.02030580  0.51240563  1  0.309844  0  0.104907  0.205682  0  4.011898  0
C  C79  1  0.81742494  0.47969551  0.01240162  1  0.309946  0  0.104752  0.205529  0  4.012209  0
C  C80  1  0.26896497  0.87564867  0.48566050  1  0.037353  0  -0.087499  -0.258773  0  3.944187  0
C  C81  1  0.23102448  0.62434835  0.98565640  1  0.037497  0  -0.087446  -0.258757  0  3.944027  0
C  C82  1  0.73102998  0.12435608  0.51434593  1  0.037441  0  -0.087426  -0.25861  0  3.944141  0
C  C83  1  0.76898130  0.37564821  0.01434272  1  0.037505  0  -0.08742  -0.258752  0  3.944467  0
C  C84  1  0.25278304  0.82765625  0.41010032  1  0.314137  0  0.099849  0.19336  0  4.046472  0
C  C85  1  0.24720972  0.67234401  0.91009734  1  0.314097  0  0.099887  0.193385  0  4.046514  0
C  C86  1  0.74721751  0.17235075  0.58990367  1  0.314197  0  0.099794  0.193267  0  4.046524  0
C  C87  1  0.75278903  0.32765178  0.08990117  1  0.31397  0  0.09987  0.1934  0  4.046435  0
C  C88  1  0.28586519  0.88098513  0.33778361  1  -0.000152  0  -0.086522  -0.226917  0  3.949377  0
C  C89  1  0.21412796  0.61901537  0.83777886  1  -0.000199  0  -0.086528  -0.226988  0  3.949578  0
C  C90  1  0.71413411  0.11901814  0.66221978  1  -0.000408  0  -0.086474  -0.226938  0  3.949539  0
C  C91  1  0.78587175  0.38098043  0.16222087  1  -5.8e-05  0  -0.086483  -0.226931  0  3.949351  0
C  C92  1  0.33433270  0.98487184  0.34021115  1  -0.011019  0  0.002315  0.145548  0  3.95347  0
C  C93  1  0.16566144  0.51512866  0.84021084  1  -0.011072  0  0.002291  0.145469  0  3.953749  0
C  C94  1  0.66566782  0.01513218  0.65978735  1  -0.011172  0  0.002302  0.145494  0  3.953628  0
C  C95  1  0.83433248  0.48487012  0.15978644  1  -0.010941  0  0.002298  0.145459  0  3.953553  0
C  C96  1  0.28094061  0.99376043  0.63672895  1  0.979392  0  0.139534  0.087332  0  3.936174  0
C  C97  1  0.21906129  0.50623401  0.13672862  1  0.979468  0  0.139551  0.087211  0  3.936468  0
C  C98  1  0.71906551  0.00624584  0.36327017  1  0.979299  0  0.13945  0.087259  0  3.936048  0
C  C99  1  0.78093720  0.49376104  0.86326806  1  0.979415  0  0.139495  0.08714  0  3.93636  0
C  C100  1  0.38821153  0.14862000  0.65753280  1  0.462046  0  0.003282  -0.019234  0  3.970638  0
C  C101  1  0.11179902  0.35137518  0.15753033  1  0.461964  0  0.003298  -0.019284  0  3.970552  0
C  C102  1  0.61178927  0.85138776  0.34246509  1  0.46176  0  0.003277  -0.019181  0  3.970543  0
C  C103  1  0.88819973  0.64862061  0.84246818  1  0.461906  0  0.003254  -0.019383  0  3.970781  0
C  C104  1  0.40258038  0.13033152  0.57637829  1  0.243499  0  0.007871  -0.085375  0  3.895284  0
C  C105  1  0.09742442  0.36966316  0.07637570  1  0.243406  0  0.007807  -0.085353  0  3.895404  0
C  C106  1  0.59741655  0.86967623  0.42362022  1  0.244198  0  0.007861  -0.085363  0  3.895317  0
C  C107  1  0.90256366  0.63033261  0.92362281  1  0.243524  0  0.007853  -0.085269  0  3.895372  0
C  C108  1  0.26696229  0.66209251  0.36018327  1  0.949146  0  0.138489  0.089353  0  3.92067  0
C  C109  1  0.23302689  0.83790417  0.86017846  1  0.949539  0  0.138484  0.089406  0  3.920476  0
C  C110  1  0.73303629  0.33791151  0.63982255  1  0.94965  0  0.138596  0.089574  0  3.920393  0
C  C111  1  0.76696579  0.16209086  0.13982370  1  0.949736  0  0.138601  0.089577  0  3.92053  0
C  C112  1  0.09278096  0.56460137  0.41782304  1  0.432225  0  -0.000267  -0.029289  0  4.01247  0
C  C113  1  0.40721569  0.93539290  0.91782401  1  0.43249  0  -0.000256  -0.029378  0  4.012302  0
C  C114  1  0.90722226  0.43540490  0.58218157  1  0.432422  0  -0.000232  -0.029374  0  4.012246  0
C  C115  1  0.59279366  0.06459694  0.08217450  1  0.431953  0  -0.00025  -0.029442  0  4.01246  0
C  C116  1  0.09629118  0.65990979  0.44334136  1  0.275306  0  0.001571  -0.098984  0  3.890739  0
C  C117  1  0.40369181  0.84008064  0.94334569  1  0.275002  0  0.001561  -0.098934  0  3.890535  0
C  C118  1  0.90371203  0.34009648  0.55666507  1  0.274819  0  0.001587  -0.098944  0  3.890504  0
C  C119  1  0.59631022  0.15990471  0.05665221  1  0.275465  0  0.001597  -0.098842  0  3.890432  0
C  C120  1  0.36592889  0.04052236  0.26004671  1  0.319921  0  -0.039384  -0.11831  0  3.874633  0
C  C121  1  0.13406702  0.45947843  0.76004602  1  0.319781  0  -0.039285  -0.117996  0  3.874594  0
C  C122  1  0.63406994  0.95948240  0.73995180  1  0.320074  0  -0.039341  -0.118117  0  3.874552  0
C  C123  1  0.86592203  0.54051734  0.23995310  1  0.320055  0  -0.039403  -0.118315  0  3.874523  0
C  C124  1  0.32092084  0.20960467  0.26763475  1  0.972909  0  0.144499  0.103213  0  3.862226  0
C  C125  1  0.17909095  0.29040286  0.76763722  1  0.973345  0  0.144461  0.103071  0  3.862758  0
C  C126  1  0.67907924  0.79040383  0.73236132  1  0.973195  0  0.14459  0.103254  0  3.862906  0
C  C127  1  0.82091561  0.70959893  0.23236433  1  0.973219  0  0.144544  0.103229  0  3.862792  0
C  C128  1  0.51681436  0.30127464  0.30293529  1  0.409545  0  -0.006166  -0.036342  0  4.025372  0
C  C129  1  0.98320457  0.19873023  0.80292451  1  0.408792  0  -0.006186  -0.03656  0  4.025671  0
C  C130  1  0.48318885  0.69873162  0.69707237  1  0.409282  0  -0.006272  -0.036586  0  4.02554  0
C  C131  1  0.01680731  0.80127008  0.19707156  1  0.409104  0  -0.00623  -0.036607  0  4.025453  0
C  C132  1  0.53090186  0.20571281  0.29206205  1  0.231567  0  -0.012657  -0.132729  0  3.959629  0
C  C133  1  0.96910892  0.29428536  0.79204847  1  0.231362  0  -0.012555  -0.132547  0  3.959647  0
C  C134  1  0.46909454  0.79429046  0.70794743  1  0.230741  0  -0.012514  -0.132522  0  3.959497  0
C  C135  1  0.03089539  0.70570970  0.20794577  1  0.230782  0  -0.012476  -0.132439  0  3.959396  0
C  C136  1  0.36146358  0.22165061  0.91378334  1  1.568551  0  0.170648  0.53581  0  4.279367  0
C  C137  1  0.13855028  0.27835049  0.41379401  1  1.568586  0  0.170749  0.535975  0  4.279171  0
C  C138  1  0.63852300  0.77834067  0.08621883  1  1.568519  0  0.170647  0.535754  0  4.278833  0
C  C139  1  0.86146337  0.72165805  0.58621120  1  1.56873  0  0.170709  0.535847  0  4.279113  0
C  C140  1  0.40953241  0.31840191  0.95933198  1  -0.021729  0  -0.028531  -0.033986  0  4.000989  0
C  C141  1  0.09046702  0.18159826  0.45933610  1  -0.021588  0  -0.028559  -0.03415  0  4.001193  0
C  C142  1  0.59046295  0.68159537  0.04066531  1  -0.021547  0  -0.028573  -0.034033  0  4.000726  0
C  C143  1  0.90952137  0.81840424  0.54066302  1  -0.02161  0  -0.028589  -0.034093  0  4.000944  0
C  C144  1  0.46020061  0.40564415  0.91585288  1  -0.095985  0  -0.096869  -0.169324  0  3.96356  0
C  C145  1  0.03979050  0.09435837  0.41585284  1  -0.09534  0  -0.096798  -0.169267  0  3.963591  0
C  C146  1  0.53979157  0.59434938  0.08414319  1  -0.095812  0  -0.096738  -0.16921  0  3.963805  0
C  C147  1  0.96020376  0.90565011  0.58414018  1  -0.095842  0  -0.096731  -0.169149  0  3.964038  0
C  C148  1  0.50181034  0.49883306  0.95630599  1  -0.004205  0  -0.016246  0.066844  0  4.003336  0
C  C149  1  0.99819261  0.00117203  0.45630484  1  -0.004409  0  -0.016183  0.067086  0  4.003351  0
C  C150  1  0.49819231  0.50116573  0.04369008  1  -0.118759  0  -0.016236  0.066896  0  4.003386  0
C  C151  1  0.00181180  0.99883200  0.54368818  1  -0.118355  0  -0.016236  0.066867  0  4.003408  0
C  C152  1  0.55174856  0.58970416  0.91301227  1  -0.047824  0  -0.097493  -0.125776  0  3.974612  0
C  C153  1  0.94826615  0.91029807  0.41301323  1  -0.048171  0  -0.097693  -0.126149  0  3.974904  0
C  C154  1  0.44825556  0.41029613  0.08698380  1  -0.047747  0  -0.097518  -0.125806  0  3.974504  0
C  C155  1  0.05174573  0.08970224  0.58698589  1  -0.04814  0  -0.097528  -0.12586  0  3.974667  0
C  C156  1  0.59995531  0.67824176  0.95424656  1  -0.022453  0  -0.098927  -0.118241  0  4.009867  0
C  C157  1  0.90005366  0.82175958  0.45424521  1  -0.022485  0  -0.098878  -0.118183  0  4.010022  0
C  C158  1  0.40004634  0.32175405  0.04574890  1  -0.022649  0  -0.098915  -0.118209  0  4.009964  0
C  C159  1  0.09995387  0.17824221  0.54575208  1  -0.022482  0  -0.098991  -0.118292  0  4.010157  0
N  N160  1  0.31207130  0.06295496  0.69425888  1  -1.21644  0  -0.349495  -0.284276  0  3.51856  0
N  N161  1  0.18793662  0.43704010  0.19425700  1  -1.216491  0  -0.349453  -0.284073  0  3.51839  0
N  N162  1  0.68793313  0.93705206  0.30573963  1  -1.216524  0  -0.349463  -0.28424  0  3.518659  0
N  N163  1  0.81206431  0.56295645  0.80573907  1  -1.216663  0  -0.349466  -0.284139  0  3.518623  0
N  N164  1  0.33482153  0.03106142  0.56328340  1  -1.238963  0  -0.224138  0.00094  0  3.785255  0
N  N165  1  0.16517735  0.46893329  0.06328316  1  -1.23886  0  -0.224165  0.00082  0  3.785418  0
N  N166  1  0.66517949  0.96894410  0.43671572  1  -1.238748  0  -0.224155  0.000806  0  3.784922  0
N  N167  1  0.83481846  0.53105951  0.93671352  1  -1.238577  0  -0.224032  0.001112  0  3.785103  0
N  N168  1  0.19988627  0.56714519  0.36687042  1  -1.196987  0  -0.353018  -0.282662  0  3.532058  0
N  N169  1  0.30010950  0.93285074  0.86686797  1  -1.197061  0  -0.353049  -0.28274  0  3.532058  0
N  N170  1  0.80011791  0.43286108  0.63313540  1  -1.196911  0  -0.353059  -0.282754  0  3.531964  0
N  N171  1  0.69989456  0.06714358  0.13313480  1  -1.197233  0  -0.353067  -0.282816  0  3.532221  0
N  N172  1  0.20742343  0.72159248  0.40579947  1  -1.273483  0  -0.226219  0.006602  0  3.783511  0
N  N173  1  0.29256514  0.77840405  0.90579690  1  -1.273875  0  -0.226336  0.006342  0  3.783762  0
N  N174  1  0.79257540  0.27841228  0.59420392  1  -1.273872  0  -0.226366  0.006253  0  3.783657  0
N  N175  1  0.70743189  0.22158950  0.09420283  1  -1.273981  0  -0.226413  0.006252  0  3.783583  0
N  N176  1  0.38590850  0.30247322  0.28734175  1  -1.183195  0  -0.349038  -0.275278  0  3.484811  0
N  N177  1  0.11411412  0.19753428  0.78733882  1  -1.183078  0  -0.349023  -0.275072  0  3.485185  0
N  N178  1  0.61409959  0.69753604  0.71265920  1  -1.182994  0  -0.349103  -0.275249  0  3.485366  0
N  N179  1  0.88589607  0.80246678  0.21266091  1  -1.182926  0  -0.349079  -0.275167  0  3.48517  0
N  N180  1  0.40572669  0.14851347  0.26924000  1  -1.226784  0  -0.247147  0.045513  0  3.785859  0
N  N181  1  0.09428361  0.35148957  0.76923710  1  -1.227297  0  -0.24719  0.045384  0  3.786211  0
N  N182  1  0.59427386  0.85149354  0.73076094  1  -1.2268  0  -0.247211  0.045459  0  3.786101  0
N  N183  1  0.90571685  0.64850847  0.23076202  1  -1.226917  0  -0.247253  0.045314  0  3.786222  0
Cl  Cl184  1  0.98075393  0.94158132  0.80765535  1  -0.701564  0  -0.361124  -0.569102  0  1.029206  0
Cl  Cl185  1  0.51923955  0.55841821  0.30765231  1  -0.701536  0  -0.361118  -0.569049  0  1.029254  0
Cl  Cl186  1  0.01925019  0.05841897  0.19235170  1  -0.701562  0  -0.361135  -0.569113  0  1.029124  0
Cl  Cl187  1  0.48074299  0.44158128  0.69234132  1  -0.701515  0  -0.36113  -0.569128  0  1.029061  0
O  O188  1  0.26544199  0.15495831  0.94543090  1  -1.148593  0  -0.350094  -0.548716  0  2.134495  0
O  O189  1  0.23456634  0.34504566  0.44544291  1  -1.148916  0  -0.350089  -0.548707  0  2.134441  0
O  O190  1  0.73454493  0.84504269  0.05457980  1  -1.148853  0  -0.350023  -0.548617  0  2.134329  0
O  O191  1  0.76544635  0.65496287  0.55457450  1  -1.149076  0  -0.350037  -0.548592  0  2.134659  0
O  O192  1  0.41472022  0.21155607  0.84530793  1  -1.18736  0  -0.358744  -0.583249  0  2.135926  0
O  O193  1  0.08529964  0.28844452  0.34531533  1  -1.187294  0  -0.358823  -0.583309  0  2.135717  0
O  O194  1  0.58526627  0.78842625  0.15469546  1  -1.187279  0  -0.358805  -0.583265  0  2.135877  0
O  O195  1  0.91473322  0.71156930  0.65468989  1  -1.187254  0  -0.358833  -0.583334  0  2.135567  0
