# generated using pymatgen
data_Zn2H21C33(NO)9
_symmetry_space_group_name_H-M   'P 1'
_cell_length_a   13.74351250
_cell_length_b   15.60257293
_cell_length_c   18.37771506
_cell_angle_alpha   89.99983829
_cell_angle_beta   90.00006768
_cell_angle_gamma   90.00024823
_symmetry_Int_Tables_number   1
_chemical_formula_structural   Zn2H21C33(NO)9
_chemical_formula_sum   'Zn8 H84 C132 N36 O36'
_cell_volume   3940.80981660
_cell_formula_units_Z   4
loop_
 _symmetry_equiv_pos_site_id
 _symmetry_equiv_pos_as_xyz
  1  'x, y, z'
loop_
 _atom_site_type_symbol
 _atom_site_label
 _atom_site_symmetry_multiplicity
 _atom_site_fract_x
 _atom_site_fract_y
 _atom_site_fract_z
 _atom_site_occupancy
 _atom_site_pbe_bader_charge
 _atom_site_pbe_bader_spin_density
 _atom_site_pbe_cm5_charge
 _atom_site_pbe_ddec_charge
 _atom_site_pbe_ddec_spin_density
 _atom_site_pbe_ddec_sum_bond_order
 _atom_site_pbe_magmom
Zn  Zn0  1  0.24999842  0.66806213  0.35686033  1  1.238929  0  0.691766  0.77185  0  2.419045  0
Zn  Zn1  1  0.74999949  0.83193843  0.85685994  1  1.239022  0  0.691763  0.771891  0  2.418934  0
Zn  Zn2  1  0.25000066  0.16806354  0.14313903  1  1.239155  0  0.691761  0.77183  0  2.419091  0
Zn  Zn3  1  0.74999955  0.33193792  0.64313865  1  1.239245  0  0.691773  0.771843  0  2.419058  0
Zn  Zn4  1  0.25000050  0.75955196  0.86831553  1  1.25949  0  0.695796  0.758683  0  2.414852  0
Zn  Zn5  1  0.75000034  0.74044856  0.36831619  1  1.259887  0  0.69579  0.758713  0  2.414863  0
Zn  Zn6  1  0.24999909  0.25955084  0.63168442  1  1.259849  0  0.695786  0.758704  0  2.414911  0
Zn  Zn7  1  0.75000038  0.24044809  0.13168399  1  1.259386  0  0.69579  0.75868  0  2.414852  0
H  H8  1  0.25000073  0.95932789  0.53728284  1  0.141433  0  0.10914  0.12121  0  1.001166  0
H  H9  1  0.75000104  0.54067117  0.03728126  1  0.141464  0  0.109153  0.121163  0  1.001271  0
H  H10  1  0.25000129  0.45933080  0.96271609  1  0.14139  0  0.109149  0.121226  0  1.001156  0
H  H11  1  0.75000015  0.04067151  0.46271722  1  0.141422  0  0.109131  0.121192  0  1.00119  0
H  H12  1  0.25000016  0.17952469  0.39603553  1  0.109809  0  0.101141  0.108079  0  1.04459  0
H  H13  1  0.75000045  0.32047400  0.89603572  1  0.109748  0  0.101181  0.108111  0  1.044602  0
H  H14  1  0.25000043  0.67952541  0.10396489  1  0.110165  0  0.101135  0.108059  0  1.044585  0
H  H15  1  0.75000072  0.82047536  0.60396454  1  0.109796  0  0.101138  0.108074  0  1.044564  0
H  H16  1  0.25000047  0.92696952  0.30421038  1  0.117873  0  0.099756  0.095657  0  1.069932  0
H  H17  1  0.75000027  0.57302609  0.80421062  1  0.117834  0  0.099786  0.095675  0  1.070134  0
H  H18  1  0.25000061  0.42697011  0.19578618  1  0.117868  0  0.09977  0.095618  0  1.07017  0
H  H19  1  0.75000041  0.07302861  0.69578859  1  0.117837  0  0.099735  0.095601  0  1.070046  0
H  H20  1  0.68071365  0.62481984  0.50257183  1  0.135987  0  0.110298  0.127756  0  1.049217  0
H  H21  1  0.31928516  0.87518254  0.00257232  1  0.127199  0  0.110292  0.127737  0  1.049216  0
H  H22  1  0.81928583  0.12481585  0.99742944  1  0.127195  0  0.110258  0.127681  0  1.04922  0
H  H23  1  0.18071567  0.37518058  0.49742872  1  0.127083  0  0.110282  0.127743  0  1.049179  0
H  H24  1  0.31928505  0.37518149  0.49742769  1  0.1359  0  0.11029  0.127763  0  1.049179  0
H  H25  1  0.68071354  0.12481558  0.99742883  1  0.135956  0  0.110272  0.127734  0  1.049216  0
H  H26  1  0.18071360  0.87518356  0.00257281  1  0.136007  0  0.110267  0.127744  0  1.049226  0
H  H27  1  0.81928448  0.62481883  0.50257135  1  0.127194  0  0.110268  0.127724  0  1.049205  0
H  H28  1  0.41095598  0.65077896  0.61861168  1  0.100649  0  0.116516  0.132724  0  1.005765  0
H  H29  1  0.58904374  0.84922176  0.11861084  1  0.100667  0  0.116537  0.132785  0  1.005726  0
H  H30  1  0.08904380  0.15078024  0.88138908  1  0.100664  0  0.116521  0.132746  0  1.00576  0
H  H31  1  0.91095751  0.34922107  0.38138908  1  0.100675  0  0.116522  0.132743  0  1.005795  0
H  H32  1  0.58904344  0.34922238  0.38138785  1  0.100661  0  0.11652  0.132734  0  1.005767  0
H  H33  1  0.41095569  0.15078085  0.88138923  1  0.100662  0  0.116523  0.132742  0  1.005768  0
H  H34  1  0.91095635  0.84922237  0.11861316  1  0.100606  0  0.11653  0.132759  0  1.005743  0
H  H35  1  0.08904337  0.65077834  0.61861153  1  0.100673  0  0.116515  0.132712  0  1.005804  0
H  H36  1  0.68118038  0.68377448  0.73260689  1  0.127887  0  0.114047  0.13063  0  1.036753  0
H  H37  1  0.31882025  0.81623098  0.23260806  1  0.127825  0  0.114036  0.130616  0  1.03672  0
H  H38  1  0.81882012  0.18376805  0.76739261  1  0.127857  0  0.114022  0.130574  0  1.036842  0
H  H39  1  0.18117956  0.31622338  0.26739421  1  0.127894  0  0.11406  0.130652  0  1.036768  0
H  H40  1  0.31881905  0.31622301  0.26739318  1  0.118579  0  0.114041  0.130615  0  1.03674  0
H  H41  1  0.68118136  0.18376650  0.76739309  1  0.118944  0  0.114031  0.130639  0  1.036778  0
H  H42  1  0.18118004  0.81623136  0.23260855  1  0.118499  0  0.114022  0.130609  0  1.036742  0
H  H43  1  0.81881913  0.68377602  0.73260695  1  0.118573  0  0.11402  0.13061  0  1.036749  0
H  H44  1  0.36348927  0.70684545  0.50273266  1  0.198125  0  0.135187  0.11528  0  1.03809  0
H  H45  1  0.63650881  0.79315629  0.00273199  1  0.198164  0  0.135193  0.11528  0  1.038104  0
H  H46  1  0.13650933  0.20684653  0.99726851  1  0.198126  0  0.135195  0.115297  0  1.038121  0
H  H47  1  0.86349216  0.29315311  0.49726806  1  0.198004  0  0.1352  0.115278  0  1.038115  0
H  H48  1  0.63650943  0.29315844  0.49726687  1  0.197816  0  0.135217  0.115297  0  1.038116  0
H  H49  1  0.36349207  0.20684632  0.99726753  1  0.198139  0  0.135213  0.115331  0  1.0381  0
H  H50  1  0.86349009  0.79315672  0.00273427  1  0.197778  0  0.135195  0.11525  0  1.038107  0
H  H51  1  0.13650727  0.70684438  0.50273092  1  0.19806  0  0.135213  0.115276  0  1.038155  0
H  H52  1  0.43703252  0.54242941  0.32941536  1  0.163825  0  0.125321  0.127361  0  0.988922  0
H  H53  1  0.56296608  0.95757252  0.82941452  1  0.16379  0  0.125338  0.127416  0  0.988877  0
H  H54  1  0.06296595  0.04243066  0.17058702  1  0.163808  0  0.125327  0.127381  0  0.988888  0
H  H55  1  0.93703212  0.45757007  0.67058541  1  0.163811  0  0.125334  0.127395  0  0.988928  0
H  H56  1  0.56296836  0.45757256  0.67058525  1  0.163794  0  0.125331  0.127405  0  0.988847  0
H  H57  1  0.43703335  0.04243009  0.17058664  1  0.163805  0  0.125358  0.12742  0  0.988838  0
H  H58  1  0.93703275  0.95757003  0.82941414  1  0.163811  0  0.125352  0.127404  0  0.98887  0
H  H59  1  0.06296585  0.54242613  0.32941465  1  0.163821  0  0.125359  0.127469  0  0.988888  0
H  H60  1  0.58712304  0.53739061  0.43146730  1  0.172186  0  0.126359  0.13316  0  1.011397  0
H  H61  1  0.41287499  0.96261226  0.93146793  1  0.171961  0  0.126358  0.133108  0  1.011405  0
H  H62  1  0.91287813  0.03738841  0.06853282  1  0.172021  0  0.126364  0.133165  0  1.011388  0
H  H63  1  0.08712269  0.46261266  0.56853317  1  0.171995  0  0.126364  0.133126  0  1.01139  0
H  H64  1  0.41287711  0.46261264  0.56853277  1  0.171977  0  0.126372  0.133124  0  1.011404  0
H  H65  1  0.58712298  0.03738779  0.06853322  1  0.172009  0  0.126369  0.133132  0  1.011395  0
H  H66  1  0.08712493  0.96261100  0.93146833  1  0.171975  0  0.126367  0.133118  0  1.011422  0
H  H67  1  0.91287528  0.53738483  0.43146962  1  0.171933  0  0.126337  0.133076  0  1.011399  0
H  H68  1  0.36578154  0.75675419  0.70951565  1  0.167787  0  0.146552  0.116492  0  0.97437  0
H  H69  1  0.63422050  0.74324751  0.20951510  1  0.167798  0  0.146549  0.116521  0  0.974354  0
H  H70  1  0.13421658  0.25675723  0.79048486  1  0.167752  0  0.146571  0.11651  0  0.974285  0
H  H71  1  0.86578023  0.24324438  0.29048452  1  0.167768  0  0.146571  0.116507  0  0.974263  0
H  H72  1  0.63421933  0.24324650  0.29048387  1  0.167809  0  0.14657  0.116523  0  0.974317  0
H  H73  1  0.36578329  0.25675639  0.79048387  1  0.16778  0  0.146553  0.116478  0  0.974274  0
H  H74  1  0.86578066  0.74324731  0.20951521  1  0.167804  0  0.146528  0.116453  0  0.974303  0
H  H75  1  0.13422065  0.75675375  0.70951609  1  0.167797  0  0.146557  0.116485  0  0.974372  0
H  H76  1  0.44597791  0.68141064  0.92165422  1  0.115717  0  0.127677  0.124892  0  0.981577  0
H  H77  1  0.55402738  0.81859419  0.42165397  1  0.115715  0  0.127689  0.124911  0  0.981533  0
H  H78  1  0.05402494  0.18140511  0.57834646  1  0.115732  0  0.127694  0.124876  0  0.981576  0
H  H79  1  0.94597808  0.31859208  0.07834602  1  0.115735  0  0.127687  0.124882  0  0.981565  0
H  H80  1  0.55402151  0.31859325  0.07834530  1  0.115694  0  0.127688  0.12489  0  0.981575  0
H  H81  1  0.44597641  0.18140779  0.57834500  1  0.115699  0  0.127679  0.124903  0  0.981552  0
H  H82  1  0.94597449  0.81859493  0.42165360  1  0.115704  0  0.127715  0.124937  0  0.981601  0
H  H83  1  0.05402061  0.68140925  0.92165514  1  0.115714  0  0.127675  0.124908  0  0.981521  0
H  H84  1  0.59005805  0.62902292  0.82545251  1  0.165602  0  0.126711  0.130593  0  1.036831  0
H  H85  1  0.40994709  0.87098287  0.32545418  1  0.165423  0  0.126746  0.130604  0  1.036805  0
H  H86  1  0.90994363  0.12901715  0.67454711  1  0.16536  0  0.126692  0.130554  0  1.036822  0
H  H87  1  0.09005881  0.37097716  0.17454904  1  0.165621  0  0.12671  0.130562  0  1.036815  0
H  H88  1  0.40993992  0.37097713  0.17454755  1  0.165596  0  0.126715  0.130585  0  1.036808  0
H  H89  1  0.59005597  0.12901975  0.67454643  1  0.165399  0  0.126708  0.130574  0  1.03682  0
H  H90  1  0.09005507  0.87098290  0.32545404  1  0.165398  0  0.126714  0.130595  0  1.036797  0
H  H91  1  0.90993988  0.62902418  0.82545211  1  0.165764  0  0.126706  0.130559  0  1.036814  0
C  C92  1  0.25000058  0.93150319  0.42181749  1  0.048649  0  -0.026779  -0.050241  0  4.002429  0
C  C93  1  0.75000108  0.56849844  0.92181556  1  0.048774  0  -0.026617  -0.049968  0  4.002246  0
C  C94  1  0.25000126  0.43150226  0.07818179  1  0.048695  0  -0.026721  -0.050121  0  4.002307  0
C  C95  1  0.75000030  0.06849814  0.57818258  1  0.048667  0  -0.026774  -0.050269  0  4.00223  0
C  C96  1  0.25000076  0.98570441  0.48237229  1  -0.069298  0  -0.066454  -0.082926  0  3.896831  0
C  C97  1  0.75000026  0.51429509  0.98237212  1  -0.069366  0  -0.066462  -0.082947  0  3.896608  0
C  C98  1  0.25000062  0.48570560  0.01762523  1  -0.069268  0  -0.0664  -0.082902  0  3.896623  0
C  C99  1  0.75000085  0.01429372  0.51762723  1  -0.069273  0  -0.066412  -0.082888  0  3.896544  0
C  C100  1  0.25000069  0.07489310  0.47301204  1  -0.000638  0  -0.019807  -0.034753  0  3.972985  0
C  C101  1  0.75000076  0.42510533  0.97301143  1  -0.000616  0  -0.019789  -0.034665  0  3.972738  0
C  C102  1  0.25000084  0.57489472  0.02698755  1  -0.000673  0  -0.019868  -0.034866  0  3.973127  0
C  C103  1  0.75000092  0.92510631  0.52698857  1  -0.000664  0  -0.019809  -0.034737  0  3.972907  0
C  C104  1  0.25000072  0.11026367  0.40287215  1  -0.012334  0  -0.072356  -0.08815  0  3.894777  0
C  C105  1  0.75000062  0.38973372  0.90287163  1  -0.012317  0  -0.072381  -0.088224  0  3.894952  0
C  C106  1  0.25000099  0.61026505  0.09712680  1  -0.012662  0  -0.072325  -0.088096  0  3.89495  0
C  C107  1  0.75000016  0.88973510  0.59712737  1  -0.012247  0  -0.072334  -0.088119  0  3.894943  0
C  C108  1  0.25000054  0.05619384  0.34207304  1  -0.088687  0  -0.024241  -0.037249  0  4.006243  0
C  C109  1  0.75000071  0.44380247  0.84207456  1  -0.088821  0  -0.02422  -0.037103  0  4.00613  0
C  C110  1  0.25000017  0.55619630  0.15792496  1  -0.088804  0  -0.024233  -0.037178  0  4.006162  0
C  C111  1  0.75000034  0.94380493  0.65792540  1  -0.088822  0  -0.02427  -0.037311  0  4.006325  0
C  C112  1  0.25000061  0.96758838  0.35227017  1  -0.106537  0  -0.084982  -0.11783  0  3.976525  0
C  C113  1  0.75000093  0.53240835  0.85226724  1  -0.106454  0  -0.085114  -0.118086  0  3.976707  0
C  C114  1  0.25000067  0.46758978  0.14773174  1  -0.106475  0  -0.085047  -0.117878  0  3.976517  0
C  C115  1  0.75000027  0.03241103  0.64773044  1  -0.106459  0  -0.084984  -0.117772  0  3.976506  0
C  C116  1  0.24999962  0.83553439  0.42942301  1  1.535513  0  0.199247  0.568233  0  4.22601  0
C  C117  1  0.74999986  0.66446144  0.92942194  1  1.535391  0  0.199194  0.568409  0  4.225894  0
C  C118  1  0.25000029  0.33553861  0.07057486  1  1.535364  0  0.19917  0.568231  0  4.226111  0
C  C119  1  0.74999908  0.16446374  0.57057542  1  1.535466  0  0.199258  0.568304  0  4.225977  0
C  C120  1  0.25000015  0.13023707  0.53980645  1  1.50855  0  0.186358  0.539411  0  4.241057  0
C  C121  1  0.74999989  0.36976217  0.03980626  1  1.508542  0  0.186374  0.539465  0  4.240993  0
C  C122  1  0.25000026  0.63023916  0.96019435  1  1.508539  0  0.186352  0.539475  0  4.241021  0
C  C123  1  0.75000073  0.86976234  0.46019361  1  1.50856  0  0.186377  0.539467  0  4.240926  0
C  C124  1  0.25000056  0.08783683  0.26532244  1  1.58275  0  0.189974  0.549824  0  4.226135  0
C  C125  1  0.75000202  0.41215974  0.76532241  1  1.582608  0  0.189984  0.549825  0  4.226086  0
C  C126  1  0.25000031  0.58783711  0.23467766  1  1.582782  0  0.189876  0.549706  0  4.226318  0
C  C127  1  0.75000032  0.91215938  0.73467654  1  1.582607  0  0.190086  0.549979  0  4.225866  0
C  C128  1  0.69610652  0.65056095  0.61828097  1  0.063156  0  0.013103  0.119436  0  3.945752  0
C  C129  1  0.30389247  0.84944297  0.11828151  1  0.063439  0  0.013109  0.119422  0  3.945816  0
C  C130  1  0.80389235  0.15055664  0.88172024  1  0.063598  0  0.013106  0.119449  0  3.945661  0
C  C131  1  0.19610750  0.34943762  0.38171905  1  -0.084148  0  0.013079  0.119446  0  3.945762  0
C  C132  1  0.30389290  0.34943846  0.38171964  1  0.063424  0  0.013119  0.119475  0  3.945758  0
C  C133  1  0.69610768  0.15055643  0.88172073  1  -0.083739  0  0.013161  0.119584  0  3.945627  0
C  C134  1  0.19610853  0.84944213  0.11828201  1  -0.083869  0  0.013088  0.119467  0  3.945793  0
C  C135  1  0.80389192  0.65056179  0.61828047  1  -0.084151  0  0.01313  0.119574  0  3.945693  0
C  C136  1  0.64369407  0.63659531  0.55382246  1  -0.002894  0  -0.080284  -0.197943  0  3.889309  0
C  C137  1  0.35630482  0.86340819  0.05382301  1  -0.003155  0  -0.080311  -0.197932  0  3.889391  0
C  C138  1  0.85630692  0.13659227  0.94617824  1  -0.003077  0  -0.08023  -0.197801  0  3.889201  0
C  C139  1  0.14369522  0.36340498  0.44617751  1  -0.002785  0  -0.080262  -0.197907  0  3.889183  0
C  C140  1  0.35630608  0.36340538  0.44617761  1  -0.002841  0  -0.08028  -0.197933  0  3.889239  0
C  C141  1  0.64369388  0.13659122  0.94617814  1  -0.003117  0  -0.080239  -0.197945  0  3.88937  0
C  C142  1  0.14369396  0.86340906  0.05382401  1  -0.003129  0  -0.08027  -0.197964  0  3.889433  0
C  C143  1  0.85630493  0.63659443  0.55382255  1  -0.002898  0  -0.080276  -0.19797  0  3.889287  0
C  C144  1  0.54249506  0.63952732  0.55396769  1  0.316618  0  0.096769  0.184162  0  4.054229  0
C  C145  1  0.45750311  0.86047553  0.05396835  1  0.317137  0  0.096781  0.18419  0  4.054332  0
C  C146  1  0.95750449  0.13952659  0.94603245  1  0.316564  0  0.096728  0.184075  0  4.054257  0
C  C147  1  0.04249620  0.36047257  0.44603273  1  0.317097  0  0.096808  0.184294  0  4.054255  0
C  C148  1  0.45750364  0.36047337  0.44603183  1  0.317127  0  0.096755  0.184255  0  4.054177  0
C  C149  1  0.54249705  0.13952644  0.94603226  1  0.31668  0  0.096773  0.184236  0  4.054328  0
C  C150  1  0.04249566  0.86047474  0.05396979  1  0.317098  0  0.096745  0.184152  0  4.054277  0
C  C151  1  0.95750323  0.63952747  0.55396733  1  0.31722  0  0.096791  0.184325  0  4.054212  0
C  C152  1  0.49004130  0.65476755  0.61776938  1  0.001609  0  -0.089267  -0.262708  0  3.956247  0
C  C153  1  0.50995769  0.84523573  0.11776957  1  0.001564  0  -0.089326  -0.262774  0  3.956257  0
C  C154  1  0.00995777  0.15476725  0.88223137  1  0.001637  0  -0.089299  -0.262744  0  3.956188  0
C  C155  1  0.99004209  0.34523085  0.38223090  1  0.001626  0  -0.089327  -0.262867  0  3.956222  0
C  C156  1  0.50995812  0.34523250  0.38222960  1  0.001629  0  -0.089285  -0.262772  0  3.95612  0
C  C157  1  0.49004247  0.15476688  0.88223158  1  0.001496  0  -0.089288  -0.262739  0  3.956105  0
C  C158  1  0.99004165  0.84523665  0.11777087  1  0.001651  0  -0.089312  -0.262727  0  3.956206  0
C  C159  1  0.00995734  0.65476856  0.61776917  1  0.001518  0  -0.089322  -0.262794  0  3.956221  0
C  C160  1  0.54268878  0.67036626  0.68134530  1  0.226849  0  0.100462  0.190108  0  4.032623  0
C  C161  1  0.45731031  0.82963681  0.18134602  1  0.226726  0  0.100488  0.190048  0  4.032784  0
C  C162  1  0.95730946  0.17036595  0.81865477  1  0.22671  0  0.100488  0.190106  0  4.032641  0
C  C163  1  0.04269029  0.32963108  0.31865513  1  0.22666  0  0.100515  0.190204  0  4.032495  0
C  C164  1  0.45730992  0.32963251  0.31865422  1  0.226813  0  0.100468  0.190191  0  4.032657  0
C  C165  1  0.54268984  0.17036516  0.81865404  1  0.226768  0  0.100488  0.190099  0  4.032553  0
C  C166  1  0.04268996  0.82963602  0.18134584  1  0.226679  0  0.10053  0.190098  0  4.032727  0
C  C167  1  0.95731059  0.67036769  0.68134494  1  0.226843  0  0.100465  0.190151  0  4.032652  0
C  C168  1  0.64398966  0.66841677  0.68213108  1  0.11725  0  -0.075159  -0.195062  0  3.889936  0
C  C169  1  0.35601016  0.83158886  0.18213280  1  0.117458  0  -0.075086  -0.19492  0  3.889968  0
C  C170  1  0.85600857  0.16841095  0.81786954  1  0.117222  0  -0.075124  -0.194993  0  3.889936  0
C  C171  1  0.14399046  0.33158095  0.31786944  1  0.117392  0  -0.075199  -0.195172  0  3.890045  0
C  C172  1  0.35601049  0.33158136  0.31787007  1  0.117013  0  -0.075124  -0.1951  0  3.890078  0
C  C173  1  0.64399145  0.16840991  0.81786944  1  0.116844  0  -0.07519  -0.195156  0  3.889926  0
C  C174  1  0.14399012  0.83158910  0.18213325  1  0.11745  0  -0.075097  -0.194971  0  3.88999  0
C  C175  1  0.85600970  0.66841846  0.68213009  1  0.117262  0  -0.075121  -0.195147  0  3.889969  0
C  C176  1  0.40284370  0.65962901  0.47062863  1  0.952506  0  0.14381  0.092197  0  3.88628  0
C  C177  1  0.59715439  0.84037245  0.97062863  1  0.952255  0  0.143769  0.092186  0  3.886251  0
C  C178  1  0.09715462  0.15963086  0.02937184  1  0.952505  0  0.143783  0.092134  0  3.88634  0
C  C179  1  0.90284541  0.34037034  0.52937103  1  0.952549  0  0.143844  0.092243  0  3.88619  0
C  C180  1  0.59715573  0.34037424  0.52937089  1  0.952873  0  0.143744  0.092177  0  3.886279  0
C  C181  1  0.40284576  0.15962952  0.02937252  1  0.952279  0  0.143765  0.092098  0  3.886338  0
C  C182  1  0.90284481  0.84037239  0.97062986  1  0.952856  0  0.143763  0.092232  0  3.886204  0
C  C183  1  0.09715401  0.65962779  0.47062795  1  0.952365  0  0.14375  0.09221  0  3.886264  0
C  C184  1  0.44523433  0.57587703  0.38070190  1  0.367405  0  0.005619  -0.016001  0  3.969431  0
C  C185  1  0.55476289  0.92412345  0.88070058  1  0.367287  0  0.005577  -0.016099  0  3.96948  0
C  C186  1  0.05476430  0.07587778  0.11929931  1  0.367387  0  0.005607  -0.016001  0  3.96951  0
C  C187  1  0.94523514  0.42412313  0.61929888  1  0.367396  0  0.005621  -0.01606  0  3.969353  0
C  C188  1  0.55476509  0.42412430  0.61929817  1  0.367761  0  0.005658  -0.016049  0  3.969445  0
C  C189  1  0.44523581  0.07587724  0.11929894  1  0.367277  0  0.005602  -0.016056  0  3.969422  0
C  C190  1  0.94523658  0.92412227  0.88070130  1  0.367419  0  0.005637  -0.015994  0  3.969406  0
C  C191  1  0.05476283  0.57587372  0.38070173  1  0.367757  0  0.005613  -0.016156  0  3.96959  0
C  C192  1  0.51896078  0.57215398  0.43080827  1  0.288387  0  0.00283  -0.095699  0  3.899822  0
C  C193  1  0.48103725  0.92784761  0.93080797  1  0.288597  0  0.002838  -0.095571  0  3.899758  0
C  C194  1  0.98103910  0.07215332  0.06919230  1  0.288536  0  0.002823  -0.095708  0  3.899891  0
C  C195  1  0.01896026  0.42784839  0.56919213  1  0.288545  0  0.002822  -0.095619  0  3.899802  0
C  C196  1  0.48103792  0.42784863  0.56919288  1  0.288588  0  0.00281  -0.095548  0  3.899878  0
C  C197  1  0.51896145  0.07215244  0.06919319  1  0.288605  0  0.002788  -0.095647  0  3.899824  0
C  C198  1  0.01896250  0.92784673  0.93080831  1  0.288522  0  0.002828  -0.095607  0  3.899811  0
C  C199  1  0.98103698  0.57215102  0.43080848  1  0.288584  0  0.002814  -0.095502  0  3.899843  0
C  C200  1  0.40506477  0.72810378  0.75445981  1  0.960771  0  0.155408  0.109305  0  3.879695  0
C  C201  1  0.59493734  0.77189840  0.25446025  1  0.960772  0  0.155414  0.109296  0  3.879714  0
C  C202  1  0.09493394  0.22810426  0.74554077  1  0.960943  0  0.155442  0.109412  0  3.879512  0
C  C203  1  0.90506498  0.27189558  0.24554040  1  0.960778  0  0.155411  0.109293  0  3.879624  0
C  C204  1  0.59493465  0.27189755  0.24553971  1  0.960789  0  0.155479  0.109403  0  3.879668  0
C  C205  1  0.40506572  0.22810293  0.74553982  1  0.960953  0  0.155439  0.109394  0  3.879588  0
C  C206  1  0.90506330  0.77189707  0.25446093  1  0.960392  0  0.155449  0.109389  0  3.879677  0
C  C207  1  0.09493590  0.72810319  0.75446021  1  0.960781  0  0.155432  0.109341  0  3.879757  0
C  C208  1  0.45128512  0.68960427  0.86326284  1  0.420509  0  0.008906  -0.010358  0  3.969448  0
C  C209  1  0.54871863  0.81039563  0.36326479  1  0.420424  0  0.008937  -0.010293  0  3.969246  0
C  C210  1  0.04871631  0.18960237  0.63673619  1  0.420208  0  0.008861  -0.010349  0  3.96941  0
C  C211  1  0.95128534  0.31039719  0.13673686  1  0.420499  0  0.008896  -0.010361  0  3.969449  0
C  C212  1  0.54871504  0.31039706  0.13673504  1  0.420463  0  0.008883  -0.0104  0  3.969421  0
C  C213  1  0.45128444  0.18960506  0.63673528  1  0.42048  0  0.008968  -0.010303  0  3.969303  0
C  C214  1  0.95128311  0.81039575  0.36326551  1  0.420453  0  0.008878  -0.010415  0  3.969505  0
C  C215  1  0.04871481  0.68960350  0.86326375  1  0.420494  0  0.0089  -0.010406  0  3.969381  0
C  C216  1  0.52234763  0.66274225  0.81648234  1  0.284459  0  0.012321  -0.078327  0  3.867407  0
C  C217  1  0.47765385  0.83725909  0.31648361  1  0.284686  0  0.012166  -0.078488  0  3.867152  0
C  C218  1  0.97765276  0.16273927  0.68351775  1  0.284928  0  0.012353  -0.078281  0  3.867327  0
C  C219  1  0.02234824  0.33725629  0.18351916  1  0.284475  0  0.0123  -0.07835  0  3.867306  0
C  C220  1  0.47765106  0.33725716  0.18351773  1  0.284467  0  0.012307  -0.078306  0  3.867325  0
C  C221  1  0.52234848  0.16274160  0.68351700  1  0.284649  0  0.012263  -0.078377  0  3.86729  0
C  C222  1  0.02234740  0.83725758  0.31648395  1  0.284664  0  0.012255  -0.07841  0  3.867378  0
C  C223  1  0.97765118  0.66274376  0.81648200  1  0.28431  0  0.012282  -0.078332  0  3.867421  0
N  N224  1  0.25000090  0.93368099  0.83052825  1  0.779566  0  0.099907  0.720675  0  4.399577  0
N  N225  1  0.74999988  0.56632222  0.33052606  1  0.779611  0  0.099802  0.720737  0  4.399253  0
N  N226  1  0.24999955  0.43367975  0.66947292  1  0.779673  0  0.099835  0.720711  0  4.399502  0
N  N227  1  0.74999925  0.06631713  0.16946800  1  0.779898  0  0.099948  0.720717  0  4.399772  0
N  N228  1  0.49090335  0.62504960  0.48797744  1  -1.269515  0  -0.223222  0.00578  0  3.80053  0
N  N229  1  0.50909403  0.87495117  0.98797783  1  -1.269976  0  -0.223222  0.005683  0  3.800629  0
N  N230  1  0.00909552  0.12504989  0.01202366  1  -1.269497  0  -0.223232  0.005767  0  3.800591  0
N  N231  1  0.99090521  0.37495073  0.51202284  1  -1.269895  0  -0.223249  0.005631  0  3.800647  0
N  N232  1  0.50909534  0.37495302  0.51202154  1  -1.269948  0  -0.223173  0.005557  0  3.800753  0
N  N233  1  0.49090466  0.12504888  0.01202333  1  -1.26946  0  -0.223224  0.005713  0  3.800638  0
N  N234  1  0.99090463  0.87495209  0.98797913  1  -1.269975  0  -0.223225  0.005646  0  3.800584  0
N  N235  1  0.00909421  0.62504739  0.48797777  1  -1.269985  0  -0.223201  0.005578  0  3.800689  0
N  N236  1  0.37387427  0.63069665  0.40612716  1  -1.238116  0  -0.353056  -0.275592  0  3.615272  0
N  N237  1  0.62612372  0.86930438  0.90612603  1  -1.23771  0  -0.352994  -0.275528  0  3.615313  0
N  N238  1  0.12612463  0.13069840  0.09387392  1  -1.238087  0  -0.353007  -0.27553  0  3.615317  0
N  N239  1  0.87387550  0.36930066  0.59387247  1  -1.237988  0  -0.353082  -0.275543  0  3.615131  0
N  N240  1  0.62612515  0.36930596  0.59387290  1  -1.238569  0  -0.353096  -0.27554  0  3.615327  0
N  N241  1  0.37387498  0.13069695  0.09387458  1  -1.237846  0  -0.353036  -0.275541  0  3.615336  0
N  N242  1  0.87387479  0.86930357  0.90612723  1  -1.238048  0  -0.353083  -0.275611  0  3.615237  0
N  N243  1  0.12612247  0.63069554  0.40612596  1  -1.238179  0  -0.353031  -0.275527  0  3.615337  0
N  N244  1  0.49207808  0.68695754  0.74738883  1  -1.244551  0  -0.217577  0.01838  0  3.775399  0
N  N245  1  0.50792329  0.81304338  0.24738910  1  -1.24449  0  -0.217552  0.018415  0  3.775308  0
N  N246  1  0.00791970  0.18695767  0.75261075  1  -1.24455  0  -0.217571  0.018341  0  3.775421  0
N  N247  1  0.99207923  0.31303958  0.25261254  1  -1.24458  0  -0.217558  0.018481  0  3.775293  0
N  N248  1  0.50792061  0.31304058  0.25261069  1  -1.244568  0  -0.217574  0.018328  0  3.775472  0
N  N249  1  0.49207904  0.18695795  0.75261097  1  -1.244543  0  -0.21759  0.018362  0  3.775433  0
N  N250  1  0.99207827  0.81304238  0.24738986  1  -1.244472  0  -0.217554  0.018422  0  3.775373  0
N  N251  1  0.00792092  0.68695854  0.74738862  1  -1.244543  0  -0.217538  0.018462  0  3.77542  0
N  N252  1  0.37893905  0.73039619  0.82400598  1  -1.209928  0  -0.3535  -0.276365  0  3.631857  0
N  N253  1  0.62106245  0.76960576  0.32400591  1  -1.209973  0  -0.353449  -0.276346  0  3.631917  0
N  N254  1  0.12106112  0.23039572  0.67599513  1  -1.210008  0  -0.353528  -0.276443  0  3.631829  0
N  N255  1  0.87893914  0.26960499  0.17599420  1  -1.209889  0  -0.353503  -0.276348  0  3.631883  0
N  N256  1  0.62106037  0.26960578  0.17599354  1  -1.209875  0  -0.353553  -0.276402  0  3.631937  0
N  N257  1  0.37893916  0.23039621  0.67599416  1  -1.210046  0  -0.353519  -0.276417  0  3.631893  0
N  N258  1  0.87893830  0.76960561  0.32400656  1  -1.209602  0  -0.353499  -0.276374  0  3.632061  0
N  N259  1  0.12106174  0.73039506  0.82400641  1  -1.209914  0  -0.353481  -0.276363  0  3.631895  0
O  O260  1  0.24999947  0.79527318  0.36758294  1  -1.191386  0  -0.340566  -0.583849  0  2.396077  0
O  O261  1  0.74999919  0.70472349  0.86758069  1  -1.191309  0  -0.340563  -0.583955  0  2.395917  0
O  O262  1  0.25000024  0.29527656  0.13241666  1  -1.191214  0  -0.340534  -0.583873  0  2.395929  0
O  O263  1  0.74999850  0.20472558  0.63241658  1  -1.191294  0  -0.340578  -0.583881  0  2.395904  0
O  O264  1  0.24999958  0.80091179  0.49105476  1  -1.184302  0  -0.339703  -0.565741  0  2.110357  0
O  O265  1  0.74999927  0.69908832  0.99105143  1  -1.184198  0  -0.339744  -0.565928  0  2.110226  0
O  O266  1  0.25000088  0.30091109  0.00894591  1  -1.184304  0  -0.339735  -0.565842  0  2.110353  0
O  O267  1  0.74999912  0.19908698  0.50894422  1  -1.184329  0  -0.339716  -0.565777  0  2.110371  0
O  O268  1  0.25000035  0.21333556  0.52975015  1  -1.155537  0  -0.347309  -0.567407  0  2.272812  0
O  O269  1  0.74999968  0.28666372  0.02975070  1  -1.155563  0  -0.347332  -0.567461  0  2.272829  0
O  O270  1  0.25000047  0.71333826  0.97025046  1  -1.155618  0  -0.347345  -0.567407  0  2.272698  0
O  O271  1  0.75000053  0.78666321  0.47024991  1  -1.155564  0  -0.347324  -0.567424  0  2.272777  0
O  O272  1  0.24999939  0.09662392  0.60150949  1  -1.155917  0  -0.326041  -0.537012  0  2.122146  0
O  O273  1  0.75000075  0.40337448  0.10150921  1  -1.15589  0  -0.326019  -0.537008  0  2.122162  0
O  O274  1  0.25000013  0.59662686  0.89849031  1  -1.155835  0  -0.325966  -0.536985  0  2.122122  0
O  O275  1  0.75000076  0.90337485  0.39849058  1  -1.155876  0  -0.326021  -0.537027  0  2.122185  0
O  O276  1  0.25000075  0.16968104  0.25361631  1  -1.164377  0  -0.332138  -0.542433  0  2.271178  0
O  O277  1  0.74999963  0.33031428  0.75361811  1  -1.164501  0  -0.332214  -0.542552  0  2.27117  0
O  O278  1  0.24999979  0.66968128  0.24638196  1  -1.164184  0  -0.332092  -0.542405  0  2.271221  0
O  O279  1  0.75000013  0.83031196  0.74638049  1  -1.164321  0  -0.33223  -0.54262  0  2.27114  0
O  O280  1  0.25000112  0.03455916  0.21355219  1  -1.188331  0  -0.328428  -0.557056  0  2.159387  0
O  O281  1  0.75000211  0.46543822  0.71355203  1  -1.188238  0  -0.328386  -0.55704  0  2.159401  0
O  O282  1  0.24999949  0.53455606  0.28644749  1  -1.188352  0  -0.328338  -0.55701  0  2.159531  0
O  O283  1  0.75000049  0.96543512  0.78644842  1  -1.188173  0  -0.328451  -0.557059  0  2.159259  0
O  O284  1  0.25000084  0.88822236  0.89157289  1  -0.646878  0  -0.232284  -0.509534  0  2.135063  0
O  O285  1  0.75000004  0.61178000  0.39156841  1  -0.647307  0  -0.232257  -0.509556  0  2.135121  0
O  O286  1  0.25000084  0.38822005  0.60842893  1  -0.647352  0  -0.232283  -0.509577  0  2.135099  0
O  O287  1  0.74999931  0.11177512  0.10842336  1  -0.64678  0  -0.232373  -0.509589  0  2.135205  0
O  O288  1  0.25000076  0.89380434  0.77148288  1  -0.502145  0  -0.185126  -0.432246  0  1.894864  0
O  O289  1  0.74999993  0.60619971  0.27148167  1  -0.502291  0  -0.185136  -0.432274  0  1.894741  0
O  O290  1  0.25000095  0.39380354  0.72851839  1  -0.502161  0  -0.185078  -0.43221  0  1.894851  0
O  O291  1  0.75000012  0.10619379  0.22851447  1  -0.502376  0  -0.185187  -0.432295  0  1.894703  0
O  O292  1  0.25000082  0.01312704  0.83606704  1  -0.455654  0  -0.198585  -0.427658  0  1.849573  0
O  O293  1  0.75000042  0.48687570  0.33606112  1  -0.455508  0  -0.198509  -0.427698  0  1.849455  0
O  O294  1  0.24999974  0.51312628  0.66393351  1  -0.455599  0  -0.198552  -0.427695  0  1.849567  0
O  O295  1  0.75000005  0.98687108  0.16392650  1  -0.455762  0  -0.198479  -0.427602  0  1.849814  0
