# generated using pymatgen
data_CdH14C20N2O5
_symmetry_space_group_name_H-M   'P 1'
_cell_length_a   7.74031048
_cell_length_b   10.49059560
_cell_length_c   10.49059896
_cell_angle_alpha   85.35284710
_cell_angle_beta   88.34622286
_cell_angle_gamma   88.34596819
_symmetry_Int_Tables_number   1
_chemical_formula_structural   CdH14C20N2O5
_chemical_formula_sum   'Cd2 H28 C40 N4 O10'
_cell_volume   848.38662825
_cell_formula_units_Z   2
loop_
 _symmetry_equiv_pos_site_id
 _symmetry_equiv_pos_as_xyz
  1  'x, y, z'
loop_
 _atom_site_type_symbol
 _atom_site_label
 _atom_site_symmetry_multiplicity
 _atom_site_fract_x
 _atom_site_fract_y
 _atom_site_fract_z
 _atom_site_occupancy
 _atom_site_hle17_bader_spin_density
 _atom_site_hle17_ddec_charge
 _atom_site_hle17_ddec_spin_density
 _atom_site_hle17_ddec_sum_bond_order
 _atom_site_hle17_magmom
 _atom_site_hse06_10hf_bader_spin_density
 _atom_site_hse06_10hf_ddec_charge
 _atom_site_hse06_10hf_ddec_spin_density
 _atom_site_hse06_10hf_ddec_sum_bond_order
 _atom_site_hse06_10hf_magmom
 _atom_site_hse06_bader_spin_density
 _atom_site_hse06_ddec_charge
 _atom_site_hse06_ddec_spin_density
 _atom_site_hse06_ddec_sum_bond_order
 _atom_site_hse06_magmom
 _atom_site_pbe_bader_spin_density
 _atom_site_pbe_cm5_charge
 _atom_site_pbe_ddec_charge
 _atom_site_pbe_ddec_spin_density
 _atom_site_pbe_ddec_sum_bond_order
 _atom_site_pbe_magmom
Cd  Cd0  1  0.00000000  0.00000000  0.00000000  1  0  1.299345  0  1.602002  0  0  1.133818  0  2.060492  0  0  1.190516  0  1.996951  0  0  0.770955  1.094291  0  2.103106  0
Cd  Cd1  1  0.50000000  0.00000017  0.99999970  1  0  1.299349  0  1.601892  0  0  1.133834  0  2.060376  0  0  1.190535  0  1.996836  0  0  0.770997  1.094305  0  2.10299  0
H  H2  1  0.61997874  0.32747154  0.10076191  1  0  0.077597  0  0.939836  0  0  0.085871  0  1.005259  0  0  0.088395  0  1.002824  0  0  0.115419  0.083977  0  1.006981  0
H  H3  1  0.88002839  0.89923749  0.67252884  1  0  0.077607  0  0.939818  0  0  0.085878  0  1.005242  0  0  0.088401  0  1.002811  0  0  0.115433  0.083984  0  1.006956  0
H  H4  1  0.38002231  0.67252780  0.89923807  1  0  0.077584  0  0.939805  0  0  0.08586  0  1.005226  0  0  0.088386  0  1.002789  0  0  0.115414  0.083965  0  1.006943  0
H  H5  1  0.11997263  0.10076281  0.32747203  1  0  0.077605  0  0.939822  0  0  0.08588  0  1.005245  0  0  0.088405  0  1.00281  0  0  0.115439  0.083984  0  1.006962  0
H  H6  1  0.62058758  0.56327168  0.12923909  1  0  0.112724  0  0.93943  0  0  0.125412  0  0.994384  0  0  0.128665  0  0.993789  0  0  0.109816  0.122733  0  0.995697  0
H  H7  1  0.87940883  0.87075246  0.43673034  1  0  0.112671  0  0.939413  0  0  0.125327  0  0.994412  0  0  0.128571  0  0.99383  0  0  0.109767  0.122649  0  0.995719  0
H  H8  1  0.37941089  0.43672766  0.87076095  1  0  0.112688  0  0.939428  0  0  0.125373  0  0.994386  0  0  0.128626  0  0.993792  0  0  0.109797  0.122695  0  0.995695  0
H  H9  1  0.12059351  0.12924687  0.56327057  1  0  0.11268  0  0.939415  0  0  0.125336  0  0.994415  0  0  0.128579  0  0.993833  0  0  0.109777  0.122655  0  0.995726  0
H  H10  1  0.98758141  0.72554692  0.77288732  1  0  0.107221  0  0.981901  0  0  0.1168  0  1.042701  0  0  0.120395  0  1.040351  0  0  0.102702  0.114267  0  1.044304  0
H  H11  1  0.51242076  0.22710832  0.27445164  1  0  0.107218  0  0.9819  0  0  0.116815  0  1.042682  0  0  0.120408  0  1.040331  0  0  0.102718  0.114281  0  1.04429  0
H  H12  1  0.01241957  0.27445433  0.22711347  1  0  0.107211  0  0.981905  0  0  0.116799  0  1.042694  0  0  0.120393  0  1.040345  0  0  0.1027  0.114268  0  1.044297  0
H  H13  1  0.48758150  0.77289295  0.72554627  1  0  0.107211  0  0.981901  0  0  0.116802  0  1.042687  0  0  0.120398  0  1.040335  0  0  0.10271  0.114272  0  1.044295  0
H  H14  1  0.13265415  0.62124842  0.59328773  1  0  0.087789  0  0.958569  0  0  0.098752  0  1.018438  0  0  0.100778  0  1.019598  0  0  0.097594  0.097293  0  1.017785  0
H  H15  1  0.36735434  0.40671319  0.37874603  1  0  0.087762  0  0.95856  0  0  0.09874  0  1.018423  0  0  0.100764  0  1.019589  0  0  0.097638  0.097299  0  1.017755  0
H  H16  1  0.86734428  0.37875188  0.40671319  1  0  0.087811  0  0.958558  0  0  0.098773  0  1.018425  0  0  0.100799  0  1.019585  0  0  0.097615  0.09731  0  1.017784  0
H  H17  1  0.63264926  0.59328712  0.62125287  1  0  0.087794  0  0.958524  0  0  0.098765  0  1.018393  0  0  0.100789  0  1.019557  0  0  0.097633  0.097319  0  1.017737  0
H  H18  1  0.10732667  0.38639677  0.57743336  1  0  0.083457  0  0.968834  0  0  0.095916  0  1.028722  0  0  0.098265  0  1.028028  0  0  0.098862  0.093793  0  1.030251  0
H  H19  1  0.39267665  0.42257032  0.61359916  1  0  0.083459  0  0.968803  0  0  0.095907  0  1.02872  0  0  0.098252  0  1.028034  0  0  0.09885  0.093817  0  1.03021  0
H  H20  1  0.89267040  0.61360545  0.42256554  1  0  0.083444  0  0.968848  0  0  0.095895  0  1.028749  0  0  0.098242  0  1.028058  0  0  0.098855  0.093787  0  1.030254  0
H  H21  1  0.60732436  0.57742999  0.38639979  1  0  0.083458  0  0.968786  0  0  0.095928  0  1.028671  0  0  0.098275  0  1.027979  0  0  0.098841  0.093803  0  1.030205  0
H  H22  1  0.94240168  0.25541018  0.74387848  1  0  0.113962  0  0.954155  0  0  0.123836  0  1.016325  0  0  0.127181  0  1.014567  0  0  0.108616  0.121569  0  1.017513  0
H  H23  1  0.55759942  0.25612249  0.74458791  1  0  0.113933  0  0.954177  0  0  0.123804  0  1.016344  0  0  0.127143  0  1.01458  0  0  0.108608  0.121538  0  1.017529  0
H  H24  1  0.05759808  0.74458917  0.25612057  1  0  0.113993  0  0.954161  0  0  0.123868  0  1.016327  0  0  0.127215  0  1.014566  0  0  0.108615  0.121601  0  1.01751  0
H  H25  1  0.44239908  0.74387589  0.25541220  1  0  0.113985  0  0.954142  0  0  0.123862  0  1.016299  0  0  0.127208  0  1.01454  0  0  0.10862  0.121595  0  1.017486  0
H  H26  1  0.74606832  0.08215905  0.80928165  1  0  0.37912  0  0.940293  0  0  0.334317  0  1.035266  0  0  0.346931  0  1.017807  0  0  0.276999  0.325976  0  1.04662  0
H  H27  1  0.75393418  0.19071900  0.91784107  1  0  0.379084  0  0.940371  0  0  0.3343  0  1.035289  0  0  0.346915  0  1.01783  0  0  0.276988  0.325962  0  1.046641  0
H  H28  1  0.25393011  0.91784125  0.19071928  1  0  0.37913  0  0.940276  0  0  0.334339  0  1.03523  0  0  0.346953  0  1.017772  0  0  0.276997  0.325998  0  1.046584  0
H  H29  1  0.24606680  0.80928226  0.08215877  1  0  0.379149  0  0.940209  0  0  0.33433  0  1.035236  0  0  0.346944  0  1.017778  0  0  0.277002  0.325987  0  1.046596  0
C  C30  1  0.69110559  0.39277345  0.03366101  1  0  0.156368  0  3.711703  0  0  0.120901  0  3.978246  0  0  0.129991  0  3.99158  0  0  0.060796  0.115225  0  3.969618  0
C  C31  1  0.80889619  0.96633771  0.60722624  1  0  0.156361  0  3.711562  0  0  0.120896  0  3.978107  0  0  0.129988  0  3.991437  0  0  0.060818  0.115221  0  3.969468  0
C  C32  1  0.30889417  0.60722589  0.96633996  1  0  0.156394  0  3.711582  0  0  0.120921  0  3.978129  0  0  0.130011  0  3.991462  0  0  0.060795  0.115249  0  3.969488  0
C  C33  1  0.19110228  0.03366162  0.39277475  1  0  0.156431  0  3.711495  0  0  0.120953  0  3.978049  0  0  0.130045  0  3.991378  0  0  0.060809  0.115276  0  3.969414  0
C  C34  1  0.69207799  0.52471083  0.04948362  1  0  -0.13813  0  3.74119  0  0  -0.161827  0  3.997981  0  0  -0.16756  0  4.018511  0  0  -0.083755  -0.158422  0  3.985814  0
C  C35  1  0.80791680  0.95051273  0.47528803  1  0  -0.138072  0  3.741346  0  0  -0.161739  0  3.998126  0  0  -0.167464  0  4.018659  0  0  -0.083758  -0.158334  0  3.98595  0
C  C36  1  0.30792048  0.47528850  0.95051737  1  0  -0.138088  0  3.741235  0  0  -0.161777  0  3.998023  0  0  -0.167508  0  4.018555  0  0  -0.083747  -0.15837  0  3.985846  0
C  C37  1  0.19208296  0.04948661  0.52471198  1  0  -0.138068  0  3.741295  0  0  -0.161734  0  3.998084  0  0  -0.167459  0  4.018615  0  0  -0.083741  -0.158328  0  3.985909  0
C  C38  1  0.78000665  0.60625697  0.96177696  1  0  -0.036401  0  3.657356  0  0  -0.023735  0  3.893471  0  0  -0.025643  0  3.911654  0  0  0.00839  -0.022783  0  3.881693  0
C  C39  1  0.71998997  0.03821505  0.39374358  1  0  -0.036388  0  3.657581  0  0  -0.023718  0  3.893668  0  0  -0.025627  0  3.911848  0  0  0.00843  -0.022762  0  3.881891  0
C  C40  1  0.21999307  0.39374332  0.03822393  1  0  -0.036446  0  3.657507  0  0  -0.023794  0  3.893621  0  0  -0.025703  0  3.911804  0  0  0.008379  -0.022839  0  3.881843  0
C  C41  1  0.28001108  0.96178429  0.60625736  1  0  -0.03644  0  3.657614  0  0  -0.023775  0  3.893705  0  0  -0.025683  0  3.911883  0  0  0.008382  -0.02282  0  3.881923  0
C  C42  1  0.87234901  0.55266907  0.85772800  1  0  0.002654  0  3.735528  0  0  0.014418  0  3.962811  0  0  0.011807  0  3.988022  0  0  -0.001996  0.016222  0  3.946098  0
C  C43  1  0.62764551  0.14226733  0.44733178  1  0  0.002606  0  3.735573  0  0  0.01436  0  3.962862  0  0  0.011746  0  3.988075  0  0  -0.001999  0.016161  0  3.946157  0
C  C44  1  0.12765072  0.44733122  0.14227384  1  0  0.002698  0  3.735529  0  0  0.014456  0  3.962812  0  0  0.011845  0  3.988022  0  0  -0.001968  0.016259  0  3.946108  0
C  C45  1  0.37235169  0.85773106  0.55266835  1  0  0.002652  0  3.735482  0  0  0.014418  0  3.962776  0  0  0.011808  0  3.987987  0  0  -0.001963  0.016222  0  3.946063  0
C  C46  1  0.97281442  0.62408245  0.76298601  1  0  -0.106163  0  3.742208  0  0  -0.129109  0  3.994626  0  0  -0.131376  0  4.016121  0  0  -0.091286  -0.127666  0  3.980183  0
C  C47  1  0.52718500  0.23700812  0.37591749  1  0  -0.106128  0  3.742196  0  0  -0.12908  0  3.994618  0  0  -0.131352  0  4.016125  0  0  -0.091251  -0.127637  0  3.980186  0
C  C48  1  0.02718526  0.37591880  0.23701481  1  0  -0.106151  0  3.742168  0  0  -0.129104  0  3.994593  0  0  -0.131371  0  4.01609  0  0  -0.091275  -0.127656  0  3.980149  0
C  C49  1  0.47281741  0.76298931  0.62408260  1  0  -0.106145  0  3.742271  0  0  -0.129092  0  3.994679  0  0  -0.13136  0  4.016177  0  0  -0.091252  -0.127651  0  3.980248  0
C  C50  1  0.05471574  0.56502252  0.66425620  1  0  -0.083139  0  3.794051  0  0  -0.096131  0  4.047215  0  0  -0.099742  0  4.070338  0  0  -0.09531  -0.093061  0  4.032337  0
C  C51  1  0.44528502  0.33574320  0.43497334  1  0  -0.08308  0  3.793959  0  0  -0.096076  0  4.047143  0  0  -0.099688  0  4.070262  0  0  -0.095356  -0.093016  0  4.032267  0
C  C52  1  0.94528266  0.43497872  0.33574561  1  0  -0.083181  0  3.794046  0  0  -0.09617  0  4.047223  0  0  -0.09978  0  4.070343  0  0  -0.095334  -0.093094  0  4.032354  0
C  C53  1  0.55471596  0.66425807  0.56502555  1  0  -0.083086  0  3.794089  0  0  -0.096076  0  4.047258  0  0  -0.099686  0  4.070378  0  0  -0.095339  -0.093017  0  4.032388  0
C  C54  1  0.04170119  0.43181886  0.65573301  1  0  -0.058748  0  3.790975  0  0  -0.073549  0  4.040049  0  0  -0.07402  0  4.061305  0  0  -0.091197  -0.07274  0  4.027156  0
C  C55  1  0.45830173  0.34426458  0.56817720  1  0  -0.05876  0  3.790994  0  0  -0.073575  0  4.040115  0  0  -0.074046  0  4.061369  0  0  -0.091188  -0.072783  0  4.027204  0
C  C56  1  0.95829853  0.56818144  0.34426693  1  0  -0.058694  0  3.790975  0  0  -0.073489  0  4.040052  0  0  -0.073959  0  4.061309  0  0  -0.091188  -0.072679  0  4.027147  0
C  C57  1  0.54170065  0.65573381  0.43182283  1  0  -0.058778  0  3.790924  0  0  -0.073612  0  4.04003  0  0  -0.074083  0  4.061285  0  0  -0.091192  -0.072801  0  4.027136  0
C  C58  1  0.94836043  0.35882837  0.74684455  1  0  -0.142476  0  3.714538  0  0  -0.163074  0  3.966368  0  0  -0.167709  0  3.987661  0  0  -0.08857  -0.161313  0  3.952748  0
C  C59  1  0.55163720  0.25315273  0.64116980  1  0  -0.142468  0  3.71456  0  0  -0.163054  0  3.96642  0  0  -0.167674  0  3.987698  0  0  -0.088551  -0.161295  0  3.952811  0
C  C60  1  0.05163800  0.64117193  0.25315542  1  0  -0.142559  0  3.714561  0  0  -0.163165  0  3.966397  0  0  -0.1678  0  3.987688  0  0  -0.08858  -0.161398  0  3.952776  0
C  C61  1  0.44836123  0.74684758  0.35882826  1  0  -0.142568  0  3.714478  0  0  -0.163147  0  3.966327  0  0  -0.16778  0  3.987615  0  0  -0.088593  -0.161387  0  3.952708  0
C  C62  1  0.86131311  0.41727744  0.84859349  1  0  0.190858  0  3.77967  0  0  0.187094  0  4.021065  0  0  0.191904  0  4.044134  0  0  0.109574  0.184414  0  4.005694  0
C  C63  1  0.63868594  0.15140171  0.58272163  1  0  0.190823  0  3.779785  0  0  0.187064  0  4.021192  0  0  0.191875  0  4.044262  0  0  0.109523  0.184378  0  4.00583  0
C  C64  1  0.13868794  0.58272190  0.15140649  1  0  0.190807  0  3.779761  0  0  0.187055  0  4.021135  0  0  0.191867  0  4.044204  0  0  0.109546  0.184365  0  4.00578  0
C  C65  1  0.36131259  0.84859572  0.41727759  1  0  0.190952  0  3.779686  0  0  0.187159  0  4.021122  0  0  0.191969  0  4.044194  0  0  0.109566  0.184481  0  4.005749  0
C  C66  1  0.77161890  0.74860147  0.97830182  1  0  0.672543  0  3.900771  0  0  0.621104  0  4.197381  0  0  0.656826  0  4.187785  0  0  0.213973  0.597193  0  4.202574  0
C  C67  1  0.72836816  0.02169647  0.25139977  1  0  0.672593  0  3.900693  0  0  0.621158  0  4.197289  0  0  0.656881  0  4.187696  0  0  0.213964  0.597237  0  4.202493  0
C  C68  1  0.22838078  0.25139978  0.02169900  1  0  0.672595  0  3.900834  0  0  0.621179  0  4.197404  0  0  0.656902  0  4.187808  0  0  0.214004  0.597255  0  4.202608  0
C  C69  1  0.27163289  0.97830288  0.74860021  1  0  0.672577  0  3.90064  0  0  0.621153  0  4.197226  0  0  0.656874  0  4.187629  0  0  0.213979  0.597239  0  4.202419  0
N  N70  1  0.76934669  0.34098451  0.93603440  1  0  -0.329315  0  3.178734  0  0  -0.269096  0  3.427912  0  0  -0.282837  0  3.441429  0  0  -0.302563  -0.260134  0  3.418369  0
N  N71  1  0.73065305  0.06396642  0.65901526  1  0  -0.32932  0  3.178689  0  0  -0.269085  0  3.427863  0  0  -0.282826  0  3.441382  0  0  -0.302562  -0.260119  0  3.418319  0
N  N72  1  0.23065170  0.65901674  0.06396645  1  0  -0.329326  0  3.178677  0  0  -0.269081  0  3.427851  0  0  -0.282823  0  3.44137  0  0  -0.30254  -0.260114  0  3.418309  0
N  N73  1  0.26934416  0.93603197  0.34098392  1  0  -0.329462  0  3.178686  0  0  -0.269215  0  3.427865  0  0  -0.282958  0  3.441383  0  0  -0.302585  -0.260252  0  3.41832  0
O  O74  1  0.75000146  0.09354670  0.90645323  1  0  -0.875613  0  2.047465  0  0  -0.791862  0  2.323869  0  0  -0.820795  0  2.282689  0  0  -0.574669  -0.771595  0  2.350325  0
O  O75  1  0.24999955  0.90645360  0.09354668  1  0  -0.875626  0  2.047334  0  0  -0.791868  0  2.32378  0  0  -0.8208  0  2.282601  0  0  -0.574671  -0.771596  0  2.350239  0
O  O76  1  0.90842236  0.80916913  0.94767692  1  0  -0.650967  0  2.05462  0  0  -0.586112  0  2.312652  0  0  -0.616087  0  2.301017  0  0  -0.323909  -0.565273  0  2.319327  0
O  O77  1  0.59157956  0.05231901  0.19083375  1  0  -0.650891  0  2.054831  0  0  -0.586054  0  2.312853  0  0  -0.616021  0  2.301209  0  0  -0.323858  -0.565214  0  2.319532  0
O  O78  1  0.09157866  0.19083116  0.05232490  1  0  -0.651  0  2.05461  0  0  -0.586158  0  2.312641  0  0  -0.616134  0  2.301001  0  0  -0.323926  -0.565316  0  2.319318  0
O  O79  1  0.40842407  0.94768034  0.80916617  1  0  -0.650896  0  2.054701  0  0  -0.586062  0  2.312729  0  0  -0.616043  0  2.30111  0  0  -0.323878  -0.565228  0  2.319411  0
O  O80  1  0.62912249  0.79268258  0.02064763  1  0  -0.650782  0  1.99429  0  0  -0.592751  0  2.24968  0  0  -0.621014  0  2.237475  0  0  -0.322302  -0.572619  0  2.256927  0
O  O81  1  0.87087594  0.97934712  0.20731587  1  0  -0.650902  0  1.99401  0  0  -0.592852  0  2.249356  0  0  -0.621115  0  2.237152  0  0  -0.322365  -0.572715  0  2.256611  0
O  O82  1  0.37087461  0.20731867  0.97935325  1  0  -0.6508  0  1.994402  0  0  -0.592777  0  2.249781  0  0  -0.621037  0  2.237575  0  0  -0.322322  -0.572634  0  2.257023  0
O  O83  1  0.12912766  0.02065318  0.79268398  1  0  -0.650897  0  1.994076  0  0  -0.592846  0  2.249418  0  0  -0.621108  0  2.237215  0  0  -0.322371  -0.572713  0  2.256666  0
