# generated using pymatgen
data_H8Pb(C3O)4
_symmetry_space_group_name_H-M   'P 1'
_cell_length_a   5.28497865
_cell_length_b   7.93589049
_cell_length_c   12.87244611
_cell_angle_alpha   94.27043236
_cell_angle_beta   101.75326652
_cell_angle_gamma   90.11557039
_symmetry_Int_Tables_number   1
_chemical_formula_structural   H8Pb(C3O)4
_chemical_formula_sum   'H16 Pb2 C24 O8'
_cell_volume   527.01502525
_cell_formula_units_Z   2
loop_
 _symmetry_equiv_pos_site_id
 _symmetry_equiv_pos_as_xyz
  1  'x, y, z'
loop_
 _atom_site_type_symbol
 _atom_site_label
 _atom_site_symmetry_multiplicity
 _atom_site_fract_x
 _atom_site_fract_y
 _atom_site_fract_z
 _atom_site_occupancy
 _atom_site_hle17_bader_spin_density
 _atom_site_hle17_ddec_charge
 _atom_site_hle17_ddec_spin_density
 _atom_site_hle17_ddec_sum_bond_order
 _atom_site_hle17_magmom
 _atom_site_hse06_10hf_bader_spin_density
 _atom_site_hse06_10hf_ddec_charge
 _atom_site_hse06_10hf_ddec_spin_density
 _atom_site_hse06_10hf_ddec_sum_bond_order
 _atom_site_hse06_10hf_magmom
 _atom_site_hse06_bader_spin_density
 _atom_site_hse06_ddec_charge
 _atom_site_hse06_ddec_spin_density
 _atom_site_hse06_ddec_sum_bond_order
 _atom_site_hse06_magmom
 _atom_site_pbe_bader_spin_density
 _atom_site_pbe_cm5_charge
 _atom_site_pbe_ddec_charge
 _atom_site_pbe_ddec_spin_density
 _atom_site_pbe_ddec_sum_bond_order
 _atom_site_pbe_magmom
H  H0  1  0.32979540  0.98031596  0.80713756  1  0  0.120219  0  0.960598  0  0  0.127456  0  1.025102  0  0  0.130925  0  1.025074  0  0  0.105654  0.124963  0  1.025366  0
H  H1  1  0.52310589  0.51924977  0.19272561  1  0  0.119753  0  0.960208  0  0  0.127463  0  1.024222  0  0  0.130957  0  1.02409  0  0  0.105807  0.124983  0  1.024519  0
H  H2  1  0.67019929  0.01970797  0.19286124  1  0  0.120288  0  0.960631  0  0  0.127548  0  1.025051  0  0  0.131017  0  1.025024  0  0  0.105651  0.125054  0  1.025313  0
H  H3  1  0.47697528  0.48082744  0.80729495  1  0  0.119801  0  0.960364  0  0  0.127507  0  1.024425  0  0  0.131002  0  1.024287  0  0  0.105765  0.125024  0  1.024727  0
H  H4  1  0.55877276  0.18329781  0.65272979  1  0  0.084767  0  0.98866  0  0  0.095239  0  1.05433  0  0  0.09747  0  1.053187  0  0  0.101998  0.093615  0  1.055174  0
H  H5  1  0.90534091  0.31648464  0.34673783  1  0  0.085791  0  0.987143  0  0  0.095615  0  1.053458  0  0  0.097929  0  1.052174  0  0  0.10215  0.093922  0  1.054384  0
H  H6  1  0.44125329  0.81667288  0.34725226  1  0  0.084601  0  0.988595  0  0  0.095049  0  1.054292  0  0  0.097278  0  1.053152  0  0  0.101953  0.093426  0  1.055134  0
H  H7  1  0.09459012  0.68346351  0.65326111  1  0  0.085783  0  0.987333  0  0  0.095652  0  1.053587  0  0  0.097968  0  1.052303  0  0  0.102113  0.093937  0  1.054564  0
H  H8  1  0.95140944  0.94156821  0.68281354  1  0  0.111948  0  0.952234  0  0  0.121259  0  1.013512  0  0  0.124751  0  1.011283  0  0  0.106465  0.118729  0  1.015231  0
H  H9  1  0.26914929  0.55774909  0.31731244  1  0  0.111681  0  0.953056  0  0  0.121006  0  1.014197  0  0  0.124523  0  1.011973  0  0  0.106327  0.118391  0  1.01599  0
H  H10  1  0.04861085  0.05840130  0.31717576  1  0  0.111913  0  0.952331  0  0  0.121229  0  1.013593  0  0  0.12472  0  1.011367  0  0  0.106469  0.118703  0  1.015303  0
H  H11  1  0.73081162  0.44223448  0.68269121  1  0  0.111708  0  0.953184  0  0  0.121036  0  1.014252  0  0  0.124558  0  1.012022  0  0  0.106347  0.118419  0  1.016049  0
H  H12  1  0.38544477  0.15497186  0.47249656  1  0  0.091243  0  0.979864  0  0  0.101052  0  1.043385  0  0  0.102639  0  1.045231  0  0  0.099012  0.09992  0  1.042145  0
H  H13  1  0.91208322  0.34525554  0.52709346  1  0  0.090607  0  0.97992  0  0  0.101304  0  1.042649  0  0  0.102842  0  1.044553  0  0  0.099163  0.100164  0  1.041405  0
H  H14  1  0.61458508  0.84499385  0.52749181  1  0  0.09124  0  0.980001  0  0  0.101006  0  1.043573  0  0  0.102591  0  1.045421  0  0  0.098947  0.099875  0  1.04233  0
H  H15  1  0.08786585  0.65471792  0.47290957  1  0  0.090744  0  0.979761  0  0  0.101344  0  1.042609  0  0  0.102866  0  1.044541  0  0  0.099172  0.100253  0  1.041315  0
Pb  Pb16  1  0.17246669  0.24971529  0.99942113  1  0  1.353149  0  1.311024  0  0  1.177086  0  1.689149  0  0  1.239481  0  1.647536  0  0  0.652241  1.131962  0  1.718338  0
Pb  Pb17  1  0.82752037  0.75030999  0.00058487  1  0  1.353195  0  1.311049  0  0  1.177127  0  1.689173  0  0  1.23952  0  1.647555  0  0  0.652226  1.132007  0  1.718365  0
C  C18  1  0.69670272  0.12517749  0.85072884  1  0  0.663369  0  3.952168  0  0  0.619277  0  4.233969  0  0  0.655708  0  4.228052  0  0  0.201089  0.594638  0  4.236807  0
C  C19  1  0.84570311  0.37444614  0.14862157  1  0  0.662054  0  3.947242  0  0  0.61737  0  4.230112  0  0  0.653693  0  4.224371  0  0  0.200525  0.592819  0  4.232787  0
C  C20  1  0.30329396  0.87485019  0.14926639  1  0  0.663834  0  3.95171  0  0  0.619691  0  4.233569  0  0  0.656123  0  4.227643  0  0  0.201348  0.595052  0  4.236407  0
C  C21  1  0.15431108  0.62558045  0.85138982  1  0  0.66205  0  3.947237  0  0  0.61742  0  4.230021  0  0  0.653733  0  4.224288  0  0  0.200602  0.592873  0  4.232692  0
C  C22  1  0.45759864  0.06355434  0.77667729  1  0  -0.258769  0  3.671446  0  0  -0.268884  0  3.925422  0  0  -0.283554  0  3.944207  0  0  -0.101352  -0.259249  0  3.912758  0
C  C23  1  0.68121762  0.43628099  0.22302977  1  0  -0.255794  0  3.668946  0  0  -0.266286  0  3.922535  0  0  -0.2808  0  3.94137  0  0  -0.101049  -0.256775  0  3.909776  0
C  C24  1  0.54240347  0.93645943  0.22331626  1  0  -0.258903  0  3.671455  0  0  -0.269011  0  3.925469  0  0  -0.283684  0  3.944255  0  0  -0.101302  -0.259372  0  3.912802  0
C  C25  1  0.31879842  0.56374183  0.77698316  1  0  -0.255949  0  3.668997  0  0  -0.266495  0  3.922619  0  0  -0.281006  0  3.941456  0  0  -0.101094  -0.256984  0  3.909856  0
C  C26  1  0.41079308  0.10527181  0.67467444  1  0  -0.011948  0  3.717502  0  0  -0.037631  0  3.961832  0  0  -0.031534  0  3.979557  0  0  -0.065375  -0.04144  0  3.949573  0
C  C27  1  0.73589075  0.39449800  0.32499842  1  0  -0.014833  0  3.715306  0  0  -0.039474  0  3.959295  0  0  -0.033489  0  3.977072  0  0  -0.065701  -0.043152  0  3.946977  0
C  C28  1  0.58922569  0.89471412  0.32531464  1  0  -0.011762  0  3.71736  0  0  -0.037466  0  3.96169  0  0  -0.031369  0  3.97942  0  0  -0.065398  -0.041274  0  3.949428  0
C  C29  1  0.26407795  0.60548810  0.67500598  1  0  -0.014755  0  3.71519  0  0  -0.039495  0  3.959186  0  0  -0.033511  0  3.97696  0  0  -0.065641  -0.043175  0  3.946874  0
C  C30  1  0.19624250  0.05352407  0.58865219  1  0  0.07583  0  3.792539  0  0  0.097664  0  4.020076  0  0  0.096437  0  4.04291  0  0  -0.00753  0.098444  0  4.004496  0
C  C31  1  0.60738925  0.44626417  0.41119381  1  0  0.077529  0  3.790617  0  0  0.098839  0  4.018588  0  0  0.097675  0  4.041431  0  0  -0.007197  0.099583  0  4.002958  0
C  C32  1  0.80378752  0.94644797  0.41133724  1  0  0.075872  0  3.793047  0  0  0.097839  0  4.02036  0  0  0.096617  0  4.043196  0  0  -0.007324  0.098617  0  4.004783  0
C  C33  1  0.39257961  0.55372824  0.58881086  1  0  0.077668  0  3.790287  0  0  0.099104  0  4.018099  0  0  0.097942  0  4.040941  0  0  -0.007134  0.099846  0  4.002473  0
C  C34  1  0.97443265  0.96716256  0.60318265  1  0  -0.093343  0  3.700551  0  0  -0.112117  0  3.944836  0  0  -0.113623  0  3.963402  0  0  -0.080444  -0.111025  0  3.932292  0
C  C35  1  0.37149067  0.53237254  0.39689556  1  0  -0.093441  0  3.699741  0  0  -0.111962  0  3.94395  0  0  -0.113503  0  3.962532  0  0  -0.079959  -0.110779  0  3.9314  0
C  C36  1  0.02559158  0.03280949  0.39680785  1  0  -0.09344  0  3.700707  0  0  -0.112249  0  3.944977  0  0  -0.113756  0  3.963536  0  0  -0.08051  -0.11116  0  3.932441  0
C  C37  1  0.62847234  0.46761736  0.60310931  1  0  -0.093669  0  3.699944  0  0  -0.1122  0  3.944146  0  0  -0.113745  0  3.962726  0  0  -0.080028  -0.111013  0  3.931586  0
C  C38  1  0.21559055  0.08661619  0.48413923  1  0  -0.109221  0  3.72449  0  0  -0.128414  0  3.971987  0  0  -0.131129  0  3.993458  0  0  -0.083402  -0.126526  0  3.957354  0
C  C39  1  0.73097732  0.41353615  0.51567222  1  0  -0.109371  0  3.724352  0  0  -0.129253  0  3.97186  0  0  -0.131924  0  3.993345  0  0  -0.084101  -0.127353  0  3.957198  0
C  C40  1  0.78443930  0.91334953  0.51584992  1  0  -0.109297  0  3.725343  0  0  -0.128433  0  3.972691  0  0  -0.131148  0  3.994158  0  0  -0.083323  -0.126544  0  3.958053  0
C  C41  1  0.26898165  0.58644741  0.48433050  1  0  -0.109433  0  3.724039  0  0  -0.129284  0  3.971532  0  0  -0.131951  0  3.993038  0  0  -0.084026  -0.12742  0  3.95683  0
O  O42  1  0.84613922  0.23207091  0.82294799  1  0  -0.631267  0  1.910788  0  0  -0.564686  0  2.133697  0  0  -0.594683  0  2.127734  0  0  -0.3012  -0.543664  0  2.136951  0
O  O43  1  0.02316526  0.26827089  0.17643404  1  0  -0.630996  0  1.908313  0  0  -0.563871  0  2.131004  0  0  -0.59398  0  2.125297  0  0  -0.300795  -0.542801  0  2.134141  0
O  O44  1  0.15386302  0.76794915  0.17704350  1  0  -0.631489  0  1.910575  0  0  -0.564862  0  2.133505  0  0  -0.594852  0  2.127519  0  0  -0.301323  -0.543867  0  2.136811  0
O  O45  1  0.97680933  0.73172145  0.82356333  1  0  -0.631062  0  1.908212  0  0  -0.563913  0  2.130793  0  0  -0.594019  0  2.125085  0  0  -0.300829  -0.542839  0  2.133936  0
O  O46  1  0.74877063  0.06995118  0.94477819  1  0  -0.719301  0  2.011228  0  0  -0.638884  0  2.249362  0  0  -0.673261  0  2.243064  0  0  -0.301068  -0.614555  0  2.252751  0
O  O47  1  0.80278053  0.42858330  0.05427225  1  0  -0.719606  0  2.009167  0  0  -0.639173  0  2.247579  0  0  -0.67355  0  2.241415  0  0  -0.30132  -0.614804  0  2.250822  0
O  O48  1  0.25120913  0.93009299  0.05522256  1  0  -0.719499  0  2.011247  0  0  -0.639141  0  2.249537  0  0  -0.673513  0  2.243226  0  0  -0.30127  -0.614808  0  2.252931  0
O  O49  1  0.19728708  0.57149017  0.94575247  1  0  -0.719486  0  2.009172  0  0  -0.638999  0  2.247385  0  0  -0.673382  0  2.241256  0  0  -0.30133  -0.614637  0  2.250633  0
