# generated using pymatgen
data_CdPH17C24(NO3)2
_symmetry_space_group_name_H-M   'P 1'
_cell_length_a   10.22434842
_cell_length_b   11.01384024
_cell_length_c   11.86188307
_cell_angle_alpha   67.46395338
_cell_angle_beta   65.15928357
_cell_angle_gamma   81.92957380
_symmetry_Int_Tables_number   1
_chemical_formula_structural   CdPH17C24(NO3)2
_chemical_formula_sum   'Cd2 P2 H34 C48 N4 O12'
_cell_volume   1119.27126488
_cell_formula_units_Z   2
loop_
 _symmetry_equiv_pos_site_id
 _symmetry_equiv_pos_as_xyz
  1  'x, y, z'
loop_
 _atom_site_type_symbol
 _atom_site_label
 _atom_site_symmetry_multiplicity
 _atom_site_fract_x
 _atom_site_fract_y
 _atom_site_fract_z
 _atom_site_occupancy
 _atom_site_hle17_bader_spin_density
 _atom_site_hle17_ddec_charge
 _atom_site_hle17_ddec_spin_density
 _atom_site_hle17_ddec_sum_bond_order
 _atom_site_hle17_magmom
 _atom_site_hse06_10hf_bader_spin_density
 _atom_site_hse06_10hf_ddec_charge
 _atom_site_hse06_10hf_ddec_spin_density
 _atom_site_hse06_10hf_ddec_sum_bond_order
 _atom_site_hse06_10hf_magmom
 _atom_site_hse06_bader_spin_density
 _atom_site_hse06_ddec_charge
 _atom_site_hse06_ddec_spin_density
 _atom_site_hse06_ddec_sum_bond_order
 _atom_site_hse06_magmom
 _atom_site_pbe_bader_spin_density
 _atom_site_pbe_cm5_charge
 _atom_site_pbe_ddec_charge
 _atom_site_pbe_ddec_spin_density
 _atom_site_pbe_ddec_sum_bond_order
 _atom_site_pbe_magmom
Cd  Cd0  1  0.95786877  0.15899032  0.52195626  1  0  1.207138  0  1.707701  0  0  1.024359  0  2.16878  0  0  1.079692  0  2.110667  0  0  0.801009  0.984745  0  2.210044  0
Cd  Cd1  1  0.04213031  0.84101068  0.47804389  1  0  1.207115  0  1.70774  0  0  1.024317  0  2.168828  0  0  1.07965  0  2.110716  0  0  0.801001  0.984704  0  2.210091  0
P  P2  1  0.26610744  0.14501480  0.28272134  1  0  1.179829  0  4.787862  0  0  1.050248  0  5.245738  0  0  1.092658  0  5.222552  0  0  0.279203  1.020097  0  5.26241  0
P  P3  1  0.73389263  0.85498325  0.71728034  1  0  1.179709  0  4.787922  0  0  1.050118  0  5.245836  0  0  1.09253  0  5.222648  0  0  0.279168  1.01997  0  5.262509  0
H  H4  1  0.52689415  0.39086874  0.51099983  1  0  0.402851  0  0.889602  0  0  0.371233  0  0.966973  0  0  0.384518  0  0.952919  0  0  0.306943  0.36201  0  0.976585  0
H  H5  1  0.47310489  0.60913128  0.48900237  1  0  0.402806  0  0.889593  0  0  0.371241  0  0.966899  0  0  0.384525  0  0.952846  0  0  0.306974  0.362018  0  0.976512  0
H  H6  1  0.42630223  0.91060732  0.35311753  1  0  0.101739  0  0.9581  0  0  0.110459  0  1.022062  0  0  0.11441  0  1.019053  0  0  0.102044  0.107252  0  1.025055  0
H  H7  1  0.57369679  0.08939172  0.64688419  1  0  0.101764  0  0.958088  0  0  0.110479  0  1.022057  0  0  0.114432  0  1.019045  0  0  0.102054  0.107272  0  1.025049  0
H  H8  1  0.65921819  0.87124045  0.37939801  1  0  0.095988  0  0.963797  0  0  0.105049  0  1.028274  0  0  0.108387  0  1.026286  0  0  0.100204  0.102292  0  1.030469  0
H  H9  1  0.34078299  0.12875858  0.62060124  1  0  0.096027  0  0.963786  0  0  0.105069  0  1.028275  0  0  0.108408  0  1.026285  0  0  0.100217  0.102313  0  1.030463  0
H  H10  1  0.70430787  0.28269572  0.29131208  1  0  0.0995  0  0.967324  0  0  0.106086  0  1.035472  0  0  0.110348  0  1.031797  0  0  0.098511  0.102667  0  1.038769  0
H  H11  1  0.29569115  0.71730331  0.70868964  1  0  0.099466  0  0.967383  0  0  0.106062  0  1.035512  0  0  0.110325  0  1.031838  0  0  0.098492  0.102644  0  1.03881  0
H  H12  1  0.47493820  0.32475178  0.25941013  1  0  0.079683  0  0.966193  0  0  0.08888  0  1.035628  0  0  0.092052  0  1.033569  0  0  0.094379  0.086217  0  1.037936  0
H  H13  1  0.52506193  0.67524824  0.74058999  1  0  0.079709  0  0.96615  0  0  0.088882  0  1.035608  0  0  0.092053  0  1.033549  0  0  0.094381  0.086221  0  1.037915  0
H  H14  1  0.23428000  0.40972859  0.11370571  1  0  0.092738  0  0.977999  0  0  0.101144  0  1.044324  0  0  0.104125  0  1.043308  0  0  0.101053  0.099091  0  1.045026  0
H  H15  1  0.76571898  0.59026946  0.88629721  1  0  0.092749  0  0.97794  0  0  0.101091  0  1.044351  0  0  0.104077  0  1.043326  0  0  0.101014  0.099039  0  1.045052  0
H  H16  1  0.31119199  0.51862687  0.86556136  1  0  0.096781  0  0.964859  0  0  0.105699  0  1.029931  0  0  0.108738  0  1.027991  0  0  0.105119  0.103213  0  1.031863  0
H  H17  1  0.68880707  0.48137413  0.13444048  1  0  0.096749  0  0.964881  0  0  0.105676  0  1.029958  0  0  0.1087  0  1.028034  0  0  0.105109  0.103187  0  1.031894  0
H  H18  1  0.46998330  0.15005050  0.82014150  1  0  0.100796  0  0.966138  0  0  0.108791  0  1.032773  0  0  0.111667  0  1.031087  0  0  0.105453  0.106574  0  1.034317  0
H  H19  1  0.53001580  0.84995148  0.17985913  1  0  0.100781  0  0.966113  0  0  0.10878  0  1.032748  0  0  0.111657  0  1.031058  0  0  0.105448  0.10656  0  1.034302  0
H  H20  1  0.39636705  0.04336776  0.06616650  1  0  0.091565  0  0.95834  0  0  0.101703  0  1.023027  0  0  0.10421  0  1.022434  0  0  0.103604  0.100033  0  1.023302  0
H  H21  1  0.60363200  0.95663226  0.93383317  1  0  0.091575  0  0.958337  0  0  0.101729  0  1.022989  0  0  0.104235  0  1.022399  0  0  0.10361  0.100047  0  1.023279  0
H  H22  1  0.95852379  0.38411963  0.25279503  1  0  0.087767  0  0.928656  0  0  0.097089  0  0.989182  0  0  0.099697  0  0.986663  0  0  0.119445  0.094882  0  0.991591  0
H  H23  1  0.04147639  0.61588235  0.74720269  1  0  0.087819  0  0.928639  0  0  0.097132  0  0.989184  0  0  0.099736  0  0.98667  0  0  0.119456  0.094925  0  0.991593  0
H  H24  1  0.93085396  0.62924618  0.15282019  1  0  0.100975  0  0.938877  0  0  0.115662  0  0.988084  0  0  0.118156  0  0.988847  0  0  0.107937  0.11381  0  0.987931  0
H  H25  1  0.06914511  0.37075482  0.84718080  1  0  0.100951  0  0.938849  0  0  0.115661  0  0.988034  0  0  0.118156  0  0.988797  0  0  0.107934  0.11381  0  0.987881  0
H  H26  1  0.84172239  0.75757423  0.30721559  1  0  0.103878  0  0.946525  0  0  0.114623  0  1.005637  0  0  0.11771  0  1.002998  0  0  0.110241  0.112091  0  1.008066  0
H  H27  1  0.15827560  0.24242677  0.69278495  1  0  0.103901  0  0.946513  0  0  0.114662  0  1.005608  0  0  0.117737  0  1.002984  0  0  0.110258  0.11213  0  1.008036  0
H  H28  1  0.78003170  0.63988402  0.54721072  1  0  0.128631  0  0.960972  0  0  0.137228  0  1.02249  0  0  0.140835  0  1.02085  0  0  0.111071  0.134592  0  1.023849  0
H  H29  1  0.21996519  0.36011600  0.45279057  1  0  0.128647  0  0.961001  0  0  0.137248  0  1.022498  0  0  0.140855  0  1.020857  0  0  0.111076  0.134613  0  1.023855  0
H  H30  1  0.70314264  0.52382534  0.74755816  1  0  0.111617  0  0.966794  0  0  0.120967  0  1.030815  0  0  0.124315  0  1.029045  0  0  0.107951  0.118416  0  1.032429  0
H  H31  1  0.29685751  0.47617566  0.25243992  1  0  0.111674  0  0.966756  0  0  0.12098  0  1.030829  0  0  0.12433  0  1.029055  0  0  0.10794  0.118428  0  1.032441  0
H  H32  1  0.65122666  0.37740817  0.98344565  1  0  0.087665  0  0.950366  0  0  0.100204  0  1.010183  0  0  0.10165  0  1.01041  0  0  0.105128  0.099262  0  1.009836  0
H  H33  1  0.34877349  0.62259283  0.01655242  1  0  0.087654  0  0.95036  0  0  0.100191  0  1.010183  0  0  0.101633  0  1.010419  0  0  0.105132  0.099248  0  1.009837  0
H  H34  1  0.73221861  0.14441820  0.03242786  1  0  0.107338  0  0.951887  0  0  0.117716  0  1.008607  0  0  0.119795  0  1.010124  0  0  0.107864  0.116113  0  1.007782  0
H  H35  1  0.26778154  0.85558280  0.96757106  1  0  0.107315  0  0.951926  0  0  0.117694  0  1.008645  0  0  0.119772  0  1.010163  0  0  0.107859  0.11609  0  1.007821  0
H  H36  1  0.85955133  0.06611723  0.83827959  1  0  0.09013  0  0.924602  0  0  0.099779  0  0.982526  0  0  0.102383  0  0.980543  0  0  0.120784  0.097837  0  0.984028  0
H  H37  1  0.14044990  0.93388377  0.16171894  1  0  0.090119  0  0.924611  0  0  0.099796  0  0.982509  0  0  0.102401  0  0.980524  0  0  0.120782  0.097854  0  0.984012  0
C  C38  1  0.43711752  0.12047197  0.29981827  1  0  -0.20601  0  3.764702  0  0  -0.169448  0  4.006762  0  0  -0.177409  0  4.03089  0  0  -0.029285  -0.163248  0  3.989708  0
C  C39  1  0.56288152  0.87952805  0.70018224  1  0  -0.205889  0  3.764637  0  0  -0.169328  0  4.00668  0  0  -0.177289  0  4.030806  0  0  -0.029245  -0.16313  0  3.989632  0
C  C40  1  0.49037766  0.99299893  0.33386593  1  0  -0.058687  0  3.754345  0  0  -0.079478  0  4.003488  0  0  -0.08128  0  4.025202  0  0  -0.085853  -0.078184  0  3.989232  0
C  C41  1  0.50962244  0.00700011  0.66613371  1  0  -0.058736  0  3.754374  0  0  -0.07953  0  4.00351  0  0  -0.08133  0  4.025223  0  0  -0.085869  -0.078236  0  3.989257  0
C  C42  1  0.62065401  0.97083035  0.34895707  1  0  -0.069344  0  3.725486  0  0  -0.093337  0  3.974809  0  0  -0.093829  0  3.99534  0  0  -0.085778  -0.092746  0  3.961108  0
C  C43  1  0.37934607  0.02916770  0.65104293  1  0  -0.06941  0  3.725502  0  0  -0.09338  0  3.974832  0  0  -0.09387  0  3.99536  0  0  -0.085791  -0.092787  0  3.96113  0
C  C44  1  0.69948077  0.07537070  0.33181174  1  0  -0.059157  0  3.739265  0  0  -0.032779  0  3.965121  0  0  -0.039795  0  3.987879  0  0  -0.017792  -0.027657  0  3.948826  0
C  C45  1  0.30051933  0.92462834  0.66818874  1  0  -0.059073  0  3.739128  0  0  -0.032722  0  3.965004  0  0  -0.039738  0  3.987762  0  0  -0.017788  -0.027597  0  3.948708  0
C  C46  1  0.64577852  0.20275638  0.29876599  1  0  -0.078508  0  3.73067  0  0  -0.100599  0  3.977336  0  0  -0.101063  0  3.996307  0  0  -0.089978  -0.099868  0  3.964822  0
C  C47  1  0.35422155  0.79724168  0.70123654  1  0  -0.078558  0  3.730733  0  0  -0.100646  0  3.977401  0  0  -0.101108  0  3.996372  0  0  -0.090012  -0.099914  0  3.964889  0
C  C48  1  0.51640862  0.22531651  0.28221220  1  0  -0.057395  0  3.76718  0  0  -0.077801  0  4.017346  0  0  -0.078889  0  4.038499  0  0  -0.088957  -0.077144  0  4.003395  0
C  C49  1  0.48359255  0.77468253  0.71778789  1  0  -0.05742  0  3.767229  0  0  -0.077803  0  4.017405  0  0  -0.078892  0  4.038557  0  0  -0.088947  -0.077148  0  4.00346  0
C  C50  1  0.83319371  0.05018429  0.36089118  1  0  0.660909  0  3.910836  0  0  0.610275  0  4.202325  0  0  0.645862  0  4.194096  0  0  0.205226  0.585911  0  4.207013  0
C  C51  1  0.16680531  0.94981474  0.63910969  1  0  0.660912  0  3.91078  0  0  0.610297  0  4.202256  0  0  0.645884  0  4.194024  0  0  0.205254  0.585933  0  4.20694  0
C  C52  1  0.31519178  0.22156325  0.10399911  1  0  -0.163286  0  3.714177  0  0  -0.128302  0  3.952286  0  0  -0.134616  0  3.974391  0  0  -0.014835  -0.123797  0  3.937347  0
C  C53  1  0.68480834  0.77843676  0.89600185  1  0  -0.163239  0  3.71409  0  0  -0.128271  0  3.952213  0  0  -0.134586  0  3.974313  0  0  -0.014853  -0.123769  0  3.937275  0
C  C54  1  0.28870834  0.35490612  0.04780994  1  0  -0.063867  0  3.757658  0  0  -0.081171  0  3.998512  0  0  -0.083524  0  4.019986  0  0  -0.084769  -0.079812  0  3.983731  0
C  C55  1  0.71129283  0.64509291  0.95219099  1  0  -0.063868  0  3.757529  0  0  -0.081122  0  3.998371  0  0  -0.083479  0  4.019845  0  0  -0.084726  -0.079763  0  3.983594  0
C  C56  1  0.33002526  0.41481440  0.91090282  1  0  -0.072798  0  3.738556  0  0  -0.097047  0  3.986063  0  0  -0.096534  0  4.005881  0  0  -0.083336  -0.096688  0  3.97252  0
C  C57  1  0.66997596  0.58518660  0.08909908  1  0  -0.072713  0  3.738578  0  0  -0.096968  0  3.986053  0  0  -0.09644  0  4.005881  0  0  -0.083309  -0.096607  0  3.972509  0
C  C58  1  0.39740958  0.34139025  0.82854464  1  0  -0.085196  0  3.79968  0  0  -0.062187  0  4.034508  0  0  -0.071205  0  4.058855  0  0  -0.021616  -0.056667  0  4.018985  0
C  C59  1  0.60259051  0.65860879  0.17145837  1  0  -0.085268  0  3.799818  0  0  -0.062226  0  4.034665  0  0  -0.07125  0  4.059007  0  0  -0.021612  -0.0567  0  4.019142  0
C  C60  1  0.41966414  0.20679587  0.88458115  1  0  -0.058765  0  3.711427  0  0  -0.083552  0  3.957974  0  0  -0.082588  0  3.977815  0  0  -0.079942  -0.084132  0  3.945028  0
C  C61  1  0.58033601  0.79320513  0.11541946  1  0  -0.058786  0  3.711451  0  0  -0.083572  0  3.957982  0  0  -0.082608  0  3.977825  0  0  -0.079946  -0.084153  0  3.945031  0
C  C62  1  0.37915690  0.14781914  0.02156698  1  0  -0.05684  0  3.749655  0  0  -0.076231  0  3.996298  0  0  -0.07853  0  4.018284  0  0  -0.080027  -0.0749  0  3.981322  0
C  C63  1  0.62084323  0.85218088  0.97843229  1  0  -0.056838  0  3.749654  0  0  -0.076228  0  3.996293  0  0  -0.078527  0  4.018282  0  0  -0.080009  -0.074886  0  3.981324  0
C  C64  1  0.44586225  0.40982684  0.68298041  1  0  0.648255  0  3.833575  0  0  0.592248  0  4.138548  0  0  0.626319  0  4.130234  0  0  0.234972  0.568567  0  4.145075  0
C  C65  1  0.55413384  0.59018399  0.31702069  1  0  0.648369  0  3.83286  0  0  0.592267  0  4.138008  0  0  0.626348  0  4.129685  0  0  0.235005  0.568575  0  4.144541  0
C  C66  1  0.91862261  0.44542251  0.31353570  1  0  0.147834  0  3.700196  0  0  0.116602  0  3.957376  0  0  0.123984  0  3.974524  0  0  0.05309  0.111987  0  3.945679  0
C  C67  1  0.08137751  0.55457751  0.68646357  1  0  0.1478  0  3.700212  0  0  0.116564  0  3.957395  0  0  0.123951  0  3.974545  0  0  0.053099  0.111949  0  3.945703  0
C  C68  1  0.90262465  0.58065285  0.25940184  1  0  -0.128723  0  3.747872  0  0  -0.141809  0  4.001547  0  0  -0.149389  0  4.02485  0  0  -0.086564  -0.137051  0  3.986263  0
C  C69  1  0.09737869  0.41934619  0.74059579  1  0  -0.128731  0  3.747963  0  0  -0.141835  0  4.001653  0  0  -0.149414  0  4.024951  0  0  -0.086569  -0.137079  0  3.986372  0
C  C70  1  0.85148654  0.65105800  0.34477163  1  0  -0.00063  0  3.712349  0  0  -0.022055  0  3.969257  0  0  -0.018657  0  3.987463  0  0  -0.068469  -0.023621  0  3.957082  0
C  C71  1  0.14851362  0.34894300  0.65522475  1  0  -0.000587  0  3.712363  0  0  -0.022037  0  3.969274  0  0  -0.018628  0  3.987479  0  0  -0.068474  -0.023602  0  3.957098  0
C  C72  1  0.81604752  0.58458715  0.48071997  1  0  -0.132267  0  3.645947  0  0  -0.153691  0  3.900102  0  0  -0.16024  0  3.919939  0  0  -0.07943  -0.149132  0  3.886363  0
C  C73  1  0.18395264  0.41541385  0.51927810  1  0  -0.132311  0  3.64598  0  0  -0.153693  0  3.900076  0  0  -0.160253  0  3.919934  0  0  -0.079419  -0.149133  0  3.886333  0
C  C74  1  0.83510984  0.44844068  0.52750543  1  0  0.170123  0  3.762496  0  0  0.166106  0  4.007203  0  0  0.172515  0  4.028404  0  0  0.118235  0.161922  0  3.992832  0
C  C75  1  0.16488815  0.55156032  0.47249511  1  0  0.169996  0  3.762628  0  0  0.165961  0  4.007334  0  0  0.172368  0  4.028539  0  0  0.118156  0.161777  0  3.992962  0
C  C76  1  0.80346265  0.36951711  0.67027388  1  0  0.177185  0  3.755592  0  0  0.171016  0  3.999597  0  0  0.177341  0  4.021029  0  0  0.12123  0.166572  0  3.986237  0
C  C77  1  0.19653747  0.63048290  0.32972540  1  0  0.177171  0  3.755737  0  0  0.171014  0  3.999706  0  0  0.17734  0  4.021138  0  0  0.12122  0.166571  0  3.986343  0
C  C78  1  0.73411432  0.42130133  0.77153371  1  0  -0.142573  0  3.692737  0  0  -0.162211  0  3.944404  0  0  -0.169403  0  3.966393  0  0  -0.079155  -0.157566  0  3.930238  0
C  C79  1  0.26588583  0.57869967  0.22846521  1  0  -0.14256  0  3.692793  0  0  -0.162175  0  3.944458  0  0  -0.169364  0  3.966442  0  0  -0.079133  -0.157529  0  3.930287  0
C  C80  1  0.70736313  0.34011467  0.90276174  1  0  -0.006855  0  3.743062  0  0  -0.024936  0  3.992017  0  0  -0.022728  0  4.01354  0  0  -0.068062  -0.026035  0  3.976923  0
C  C81  1  0.29263594  0.65988633  0.09723672  1  0  -0.00688  0  3.743059  0  0  -0.024966  0  3.992027  0  0  -0.022759  0  4.013547  0  0  -0.068065  -0.026066  0  3.976932  0
C  C82  1  0.75167227  0.21013458  0.93072095  1  0  -0.126231  0  3.731876  0  0  -0.135464  0  3.977977  0  0  -0.142449  0  4.000645  0  0  -0.081779  -0.130628  0  3.962403  0
C  C83  1  0.24832791  0.78986741  0.06927761  1  0  -0.126179  0  3.731856  0  0  -0.135411  0  3.977962  0  0  -0.142394  0  4.00063  0  0  -0.081767  -0.130575  0  3.962391  0
C  C84  1  0.82131094  0.16624219  0.82447567  1  0  0.142059  0  3.706829  0  0  0.111558  0  3.960487  0  0  0.118222  0  3.978197  0  0  0.054724  0.107242  0  3.947866  0
C  C85  1  0.17868813  0.83375881  0.17552448  1  0  0.14208  0  3.706901  0  0  0.111545  0  3.960557  0  0  0.118208  0  3.978269  0  0  0.054716  0.107227  0  3.947936  0
N  N86  1  0.88667634  0.38182566  0.44349405  1  0  -0.350619  0  3.22564  0  0  -0.285411  0  3.487626  0  0  -0.303749  0  3.504905  0  0  -0.320143  -0.272406  0  3.475283  0
N  N87  1  0.11332271  0.61817436  0.55650561  1  0  -0.350552  0  3.225689  0  0  -0.285327  0  3.487653  0  0  -0.303664  0  3.504928  0  0  -0.320127  -0.272324  0  3.475312  0
N  N88  1  0.84531640  0.24369073  0.69869087  1  0  -0.349979  0  3.23511  0  0  -0.282818  0  3.495255  0  0  -0.30127  0  3.513755  0  0  -0.316928  -0.270043  0  3.482704  0
N  N89  1  0.15468265  0.75630929  0.30130795  1  0  -0.350006  0  3.235249  0  0  -0.282822  0  3.495374  0  0  -0.301277  0  3.513876  0  0  -0.316911  -0.270048  0  3.482822  0
O  O90  1  0.88471644  0.93553013  0.37595776  1  0  -0.652397  0  2.027846  0  0  -0.588231  0  2.283644  0  0  -0.617163  0  2.272123  0  0  -0.326906  -0.567664  0  2.291471  0
O  O91  1  0.11528369  0.06446988  0.62404236  1  0  -0.652422  0  2.027817  0  0  -0.588269  0  2.283624  0  0  -0.6172  0  2.272096  0  0  -0.326923  -0.567707  0  2.291459  0
O  O92  1  0.88055120  0.14472491  0.37071516  1  0  -0.665541  0  2.05024  0  0  -0.601599  0  2.30639  0  0  -0.630311  0  2.29412  0  0  -0.334905  -0.580973  0  2.3153  0
O  O93  1  0.11944781  0.85527413  0.62928571  1  0  -0.665556  0  2.050275  0  0  -0.601619  0  2.306428  0  0  -0.630335  0  2.29416  0  0  -0.334916  -0.580997  0  2.315342  0
O  O94  1  0.49965166  0.33434539  0.61133510  1  0  -0.528196  0  2.107205  0  0  -0.472946  0  2.326405  0  0  -0.495935  0  2.313692  0  0  -0.312521  -0.45719  0  2.335987  0
O  O95  1  0.50034741  0.66565561  0.38866590  1  0  -0.52801  0  2.107276  0  0  -0.472833  0  2.326545  0  0  -0.495821  0  2.313832  0  0  -0.312469  -0.457075  0  2.336132  0
O  O96  1  0.43604251  0.53179692  0.63422884  1  0  -0.568961  0  2.03672  0  0  -0.514794  0  2.260332  0  0  -0.538448  0  2.253767  0  0  -0.278805  -0.498351  0  2.265175  0
O  O97  1  0.56395626  0.46819327  0.36577864  1  0  -0.569158  0  2.035796  0  0  -0.514878  0  2.259424  0  0  -0.538538  0  2.252855  0  0  -0.278878  -0.49843  0  2.264265  0
O  O98  1  0.17899574  0.24485504  0.34390105  1  0  -0.805915  0  1.986197  0  0  -0.730108  0  2.257938  0  0  -0.75678  0  2.240803  0  0  -0.377399  -0.710518  0  2.269581  0
O  O99  1  0.82100435  0.75514399  0.65609943  1  0  -0.805856  0  1.9863  0  0  -0.730027  0  2.258019  0  0  -0.756697  0  2.240884  0  0  -0.377347  -0.71043  0  2.269651  0
O  O100  1  0.20141276  0.01072213  0.32693973  1  0  -0.824244  0  2.062972  0  0  -0.746744  0  2.349034  0  0  -0.773825  0  2.328845  0  0  -0.38222  -0.727397  0  2.363659  0
O  O101  1  0.79858736  0.98927789  0.67306123  1  0  -0.824246  0  2.062947  0  0  -0.746737  0  2.349002  0  0  -0.773828  0  2.328827  0  0  -0.382217  -0.727392  0  2.363627  0
