# generated using pymatgen
data_UH6C8O7
_symmetry_space_group_name_H-M   'P 1'
_cell_length_a   6.69676538
_cell_length_b   7.83664792
_cell_length_c   10.49654131
_cell_angle_alpha   96.48323901
_cell_angle_beta   106.90260731
_cell_angle_gamma   102.25141746
_symmetry_Int_Tables_number   1
_chemical_formula_structural   UH6C8O7
_chemical_formula_sum   'U2 H12 C16 O14'
_cell_volume   505.99929567
_cell_formula_units_Z   2
loop_
 _symmetry_equiv_pos_site_id
 _symmetry_equiv_pos_as_xyz
  1  'x, y, z'
loop_
 _atom_site_type_symbol
 _atom_site_label
 _atom_site_symmetry_multiplicity
 _atom_site_fract_x
 _atom_site_fract_y
 _atom_site_fract_z
 _atom_site_occupancy
 _atom_site_hle17_bader_spin_density
 _atom_site_hle17_ddec_charge
 _atom_site_hle17_ddec_spin_density
 _atom_site_hle17_ddec_sum_bond_order
 _atom_site_hle17_magmom
 _atom_site_hse06_10hf_bader_spin_density
 _atom_site_hse06_10hf_ddec_charge
 _atom_site_hse06_10hf_ddec_spin_density
 _atom_site_hse06_10hf_ddec_sum_bond_order
 _atom_site_hse06_10hf_magmom
 _atom_site_hse06_bader_spin_density
 _atom_site_hse06_ddec_charge
 _atom_site_hse06_ddec_spin_density
 _atom_site_hse06_ddec_sum_bond_order
 _atom_site_hse06_magmom
 _atom_site_pbe_bader_spin_density
 _atom_site_pbe_cm5_charge
 _atom_site_pbe_ddec_charge
 _atom_site_pbe_ddec_spin_density
 _atom_site_pbe_ddec_sum_bond_order
 _atom_site_pbe_magmom
U  U0  1  0.21975327  0.08041744  0.28577828  1  0  2.504586  0  4.101406  0  0  2.569245  0  4.750104  0  0  2.675102  0  4.71578  0  0  2.186461  2.49334  0  4.775769  0
U  U1  1  0.78025031  0.91958925  0.71422214  1  0  2.504846  0  4.100909  0  0  2.569537  0  4.749595  0  0  2.675419  0  4.715228  0  0  2.186539  2.493611  0  4.775299  0
H  H2  1  0.48926802  0.18745617  0.58149689  1  0  0.44795  0  0.817806  0  0  0.428784  0  0.871578  0  0  0.439646  0  0.855555  0  0  0.327352  0.420997  0  0.883092  0
H  H3  1  0.51073449  0.81254660  0.41850497  1  0  0.447931  0  0.817789  0  0  0.428761  0  0.871602  0  0  0.439623  0  0.855579  0  0  0.327359  0.420972  0  0.883118  0
H  H4  1  0.25199548  0.09437999  0.57378062  1  0  0.433619  0  0.853539  0  0  0.406737  0  0.919771  0  0  0.41934  0  0.901319  0  0  0.3138  0.397559  0  0.933157  0
H  H5  1  0.74800661  0.90562144  0.42622107  1  0  0.433617  0  0.853524  0  0  0.406738  0  0.919761  0  0  0.419341  0  0.901309  0  0  0.313814  0.397564  0  0.933143  0
H  H6  1  0.73528854  0.49611750  0.37157059  1  0  0.111961  0  0.930014  0  0  0.121771  0  0.986223  0  0  0.124808  0  0.984841  0  0  0.116395  0.119511  0  0.987559  0
H  H7  1  0.26471871  0.50388237  0.62842509  1  0  0.111915  0  0.929998  0  0  0.121733  0  0.986195  0  0  0.124774  0  0.984807  0  0  0.116336  0.11947  0  0.987538  0
H  H8  1  0.74570236  0.72503919  0.22794445  1  0  0.092414  0  0.956547  0  0  0.099316  0  1.022116  0  0  0.102499  0  1.020205  0  0  0.108731  0.097038  0  1.02345  0
H  H9  1  0.25428322  0.27495023  0.77205093  1  0  0.092398  0  0.956381  0  0  0.099264  0  1.021999  0  0  0.102447  0  1.020087  0  0  0.108702  0.096987  0  1.023332  0
H  H10  1  0.75727333  0.64934713  0.99416534  1  0  0.104762  0  0.948456  0  0  0.112431  0  1.011714  0  0  0.116026  0  1.009672  0  0  0.11095  0.109873  0  1.013319  0
H  H11  1  0.24270598  0.35065284  0.00582704  1  0  0.10474  0  0.94848  0  0  0.112486  0  1.011646  0  0  0.116081  0  1.009603  0  0  0.110973  0.10993  0  1.013254  0
H  H12  1  0.75771806  0.34237637  0.90496073  1  0  0.109167  0  0.941839  0  0  0.117777  0  1.00201  0  0  0.120783  0  1.000618  0  0  0.115456  0.115749  0  1.002988  0
H  H13  1  0.24228301  0.65762234  0.09503869  1  0  0.109166  0  0.941861  0  0  0.11776  0  1.002047  0  0  0.120766  0  1.000656  0  0  0.115447  0.11573  0  1.003026  0
C  C14  1  0.76615032  0.24922029  0.09120332  1  0  -0.083404  0  3.725817  0  0  -0.0741  0  3.960425  0  0  -0.081362  0  3.981806  0  0  -0.00252  -0.069112  0  3.945967  0
C  C15  1  0.23385183  0.75076889  0.90878884  1  0  -0.083293  0  3.725627  0  0  -0.073944  0  3.960215  0  0  -0.081205  0  3.981601  0  0  -0.00241  -0.068957  0  3.94575  0
C  C16  1  0.76264670  0.29336319  0.22490018  1  0  -0.085395  0  3.737818  0  0  -0.080923  0  3.983083  0  0  -0.087446  0  4.005077  0  0  0.001539  -0.076088  0  3.967887  0
C  C17  1  0.23735383  0.70663825  0.77510128  1  0  -0.085517  0  3.738129  0  0  -0.081054  0  3.983408  0  0  -0.087579  0  4.005399  0  0  0.001463  -0.076215  0  3.968207  0
C  C18  1  0.74795071  0.46362707  0.27095970  1  0  -0.055645  0  3.688496  0  0  -0.081719  0  3.944575  0  0  -0.083499  0  3.965714  0  0  -0.066437  -0.080355  0  3.929977  0
C  C19  1  0.25205568  0.53637423  0.72903883  1  0  -0.055554  0  3.688423  0  0  -0.081616  0  3.944439  0  0  -0.083398  0  3.965581  0  0  -0.066368  -0.08025  0  3.929837  0
C  C20  1  0.75110350  0.59197664  0.18947024  1  0  -0.016885  0  3.703305  0  0  -0.03839  0  3.96602  0  0  -0.039328  0  3.986106  0  0  -0.067022  -0.037288  0  3.951762  0
C  C21  1  0.24889362  0.40802880  0.81053100  1  0  -0.01684  0  3.702934  0  0  -0.038301  0  3.965648  0  0  -0.03924  0  3.985738  0  0  -0.06693  -0.037198  0  3.951385  0
C  C22  1  0.75705002  0.54958235  0.05836582  1  0  -0.04631  0  3.720356  0  0  -0.062995  0  3.978168  0  0  -0.065386  0  3.999602  0  0  -0.071504  -0.061224  0  3.963363  0
C  C23  1  0.24293250  0.45041527  0.94163641  1  0  -0.04635  0  3.720404  0  0  -0.063115  0  3.978235  0  0  -0.065506  0  3.999666  0  0  -0.07157  -0.06135  0  3.963434  0
C  C24  1  0.75829393  0.37782723  0.00849366  1  0  -0.051908  0  3.695137  0  0  -0.075445  0  3.945447  0  0  -0.076369  0  3.967032  0  0  -0.068105  -0.074647  0  3.930598  0
C  C25  1  0.24170565  0.62216623  0.99150703  1  0  -0.051927  0  3.695241  0  0  -0.075458  0  3.945568  0  0  -0.076383  0  3.967154  0  0  -0.068166  -0.074658  0  3.930719  0
C  C26  1  0.78105511  0.07307444  0.03091215  1  0  0.715187  0  3.803884  0  0  0.683889  0  4.095679  0  0  0.725541  0  4.079491  0  0  0.252569  0.654783  0  4.106133  0
C  C27  1  0.21894740  0.92692832  0.96908972  1  0  0.715249  0  3.803554  0  0  0.683852  0  4.095507  0  0  0.725505  0  4.079318  0  0  0.252567  0.654748  0  4.105962  0
C  C28  1  0.75575548  0.16581989  0.32018214  1  0  0.721914  0  3.784208  0  0  0.689232  0  4.070163  0  0  0.730081  0  4.054561  0  0  0.262959  0.660646  0  4.080372  0
C  C29  1  0.24424577  0.83417889  0.67981922  1  0  0.722046  0  3.784109  0  0  0.689339  0  4.070107  0  0  0.730199  0  4.054483  0  0  0.262972  0.660749  0  4.080321  0
O  O30  1  0.23676218  0.30401242  0.25605133  1  0  -0.68813  0  1.547398  0  0  -0.695547  0  1.82043  0  0  -0.717071  0  1.81149  0  0  -0.752489  -0.683013  0  1.827784  0
O  O31  1  0.76323392  0.69599729  0.74395868  1  0  -0.688183  0  1.54719  0  0  -0.695608  0  1.820216  0  0  -0.717138  0  1.81127  0  0  -0.752461  -0.683067  0  1.827577  0
O  O32  1  0.21254291  0.85882504  0.32332748  1  0  -0.721245  0  1.545891  0  0  -0.723862  0  1.820661  0  0  -0.744355  0  1.80691  0  0  -0.754275  -0.711831  0  1.831317  0
O  O33  1  0.78747094  0.14118431  0.67667567  1  0  -0.721364  0  1.545847  0  0  -0.723997  0  1.820626  0  0  -0.744497  0  1.806871  0  0  -0.754358  -0.711961  0  1.831289  0
O  O34  1  0.89585940  0.98594144  0.10347153  1  0  -0.655629  0  2.081335  0  0  -0.644269  0  2.355578  0  0  -0.680549  0  2.350756  0  0  -0.3606  -0.617592  0  2.357584  0
O  O35  1  0.10414323  0.01405727  0.89652813  1  0  -0.655708  0  2.081467  0  0  -0.644333  0  2.355779  0  0  -0.680618  0  2.350957  0  0  -0.36062  -0.617653  0  2.357787  0
O  O36  1  0.68296022  0.01576579  0.90447844  1  0  -0.668122  0  2.061254  0  0  -0.656575  0  2.331585  0  0  -0.691475  0  2.32519  0  0  -0.368012  -0.630818  0  2.334886  0
O  O37  1  0.31704275  0.98422776  0.09552565  1  0  -0.6682  0  2.06124  0  0  -0.656586  0  2.331581  0  0  -0.691481  0  2.325187  0  0  -0.368001  -0.630832  0  2.334881  0
O  O38  1  0.90155549  0.08310039  0.35858441  1  0  -0.653112  0  2.02697  0  0  -0.623987  0  2.273033  0  0  -0.657114  0  2.264196  0  0  -0.328915  -0.599764  0  2.278338  0
O  O39  1  0.09844929  0.91689970  0.64141759  1  0  -0.653144  0  2.026937  0  0  -0.624011  0  2.27301  0  0  -0.657147  0  2.264167  0  0  -0.328901  -0.599785  0  2.278319  0
O  O40  1  0.59747507  0.14451052  0.36658526  1  0  -0.676927  0  2.084736  0  0  -0.659246  0  2.351704  0  0  -0.695438  0  2.344321  0  0  -0.369813  -0.632129  0  2.355402  0
O  O41  1  0.40252300  0.85549352  0.63341412  1  0  -0.677028  0  2.084681  0  0  -0.659335  0  2.351636  0  0  -0.69553  0  2.344237  0  0  -0.369829  -0.632222  0  2.355354  0
O  O42  1  0.33676112  0.18419245  0.53686025  1  0  -0.838827  0  1.853944  0  0  -0.812114  0  2.034251  0  0  -0.834426  0  2.002577  0  0  -0.586523  -0.795621  0  2.056541  0
O  O43  1  0.66324086  0.81581304  0.46314366  1  0  -0.838824  0  1.853889  0  0  -0.812123  0  2.034256  0  0  -0.834438  0  2.00258  0  0  -0.586557  -0.79563  0  2.056546  0
