# generated using pymatgen
data_Li2H9C3SNO7
_symmetry_space_group_name_H-M   'P 1'
_cell_length_a   5.00960562
_cell_length_b   9.02507581
_cell_length_c   9.79814462
_cell_angle_alpha   72.65263086
_cell_angle_beta   82.63666520
_cell_angle_gamma   89.30993580
_symmetry_Int_Tables_number   1
_chemical_formula_structural   Li2H9C3SNO7
_chemical_formula_sum   'Li4 H18 C6 S2 N2 O14'
_cell_volume   419.19732681
_cell_formula_units_Z   2
loop_
 _symmetry_equiv_pos_site_id
 _symmetry_equiv_pos_as_xyz
  1  'x, y, z'
loop_
 _atom_site_type_symbol
 _atom_site_label
 _atom_site_symmetry_multiplicity
 _atom_site_fract_x
 _atom_site_fract_y
 _atom_site_fract_z
 _atom_site_occupancy
 _atom_site_hle17_bader_spin_density
 _atom_site_hle17_ddec_charge
 _atom_site_hle17_ddec_spin_density
 _atom_site_hle17_ddec_sum_bond_order
 _atom_site_hle17_magmom
 _atom_site_hse06_10hf_bader_spin_density
 _atom_site_hse06_10hf_ddec_charge
 _atom_site_hse06_10hf_ddec_spin_density
 _atom_site_hse06_10hf_ddec_sum_bond_order
 _atom_site_hse06_10hf_magmom
 _atom_site_hse06_bader_spin_density
 _atom_site_hse06_ddec_charge
 _atom_site_hse06_ddec_spin_density
 _atom_site_hse06_ddec_sum_bond_order
 _atom_site_hse06_magmom
 _atom_site_pbe_bader_spin_density
 _atom_site_pbe_cm5_charge
 _atom_site_pbe_ddec_charge
 _atom_site_pbe_ddec_spin_density
 _atom_site_pbe_ddec_sum_bond_order
 _atom_site_pbe_magmom
Li  Li0  1  0.77754909  0.10869447  0.60488711  1  0  0.860273  0  0.398161  0  0  0.824359  0  0.496271  0  0  0.832576  0  0.481374  0  0  0.53083  0.818474  0  0.50692  0
Li  Li1  1  0.22245541  0.89131458  0.39510559  1  0  0.860293  0  0.398111  0  0  0.824347  0  0.496257  0  0  0.832568  0  0.481358  0  0  0.530814  0.818465  0  0.506903  0
Li  Li2  1  0.74916533  0.75167145  0.28045217  1  0  0.853653  0  0.408936  0  0  0.820942  0  0.502843  0  0  0.82848  0  0.489052  0  0  0.527732  0.815421  0  0.512943  0
Li  Li3  1  0.25083634  0.24832168  0.71955279  1  0  0.853653  0  0.408962  0  0  0.820955  0  0.502858  0  0  0.828492  0  0.489067  0  0  0.527722  0.81543  0  0.51295  0
H  H4  1  0.35226625  0.89181874  0.76587497  1  0  0.331816  0  0.863022  0  0  0.310783  0  0.927597  0  0  0.318099  0  0.922147  0  0  0.327169  0.305399  0  0.931842  0
H  H5  1  0.64772585  0.10818365  0.23412674  1  0  0.331739  0  0.863071  0  0  0.310709  0  0.92765  0  0  0.318023  0  0.922189  0  0  0.327153  0.305343  0  0.93187  0
H  H6  1  0.02928705  0.85355769  0.75474497  1  0  0.343225  0  0.874627  0  0  0.322055  0  0.937182  0  0  0.330276  0  0.930673  0  0  0.321681  0.316185  0  0.94201  0
H  H7  1  0.97070893  0.14644228  0.24525520  1  0  0.343213  0  0.874576  0  0  0.322011  0  0.937182  0  0  0.33023  0  0.930678  0  0  0.321672  0.316143  0  0.942006  0
H  H8  1  0.63474842  0.47047804  0.33542788  1  0  0.428254  0  0.870675  0  0  0.398106  0  0.934295  0  0  0.407514  0  0.920138  0  0  0.303647  0.391311  0  0.944589  0
H  H9  1  0.36524939  0.52951848  0.66457425  1  0  0.428182  0  0.870775  0  0  0.39802  0  0.934419  0  0  0.40743  0  0.920259  0  0  0.30362  0.391221  0  0.944723  0
H  H10  1  0.25662882  0.62121605  0.87343432  1  0  0.072312  0  0.937281  0  0  0.086244  0  1.003682  0  0  0.087392  0  1.003054  0  0  0.113546  0.085389  0  1.004169  0
H  H11  1  0.74337327  0.37878506  0.12656508  1  0  0.072364  0  0.93727  0  0  0.08627  0  1.003699  0  0  0.087417  0  1.003073  0  0  0.113553  0.085415  0  1.00418  0
H  H12  1  0.98026498  0.66442037  0.98737793  1  0  0.066902  0  0.933629  0  0  0.082727  0  0.99787  0  0  0.083596  0  0.997524  0  0  0.117558  0.082072  0  0.998145  0
H  H13  1  0.01973689  0.33557712  0.01261954  1  0  0.066929  0  0.933643  0  0  0.08275  0  0.997876  0  0  0.083623  0  0.997524  0  0  0.117571  0.082094  0  0.99815  0
H  H14  1  0.38696547  0.59041923  0.11609044  1  0  0.135464  0  0.931021  0  0  0.150852  0  0.987042  0  0  0.15303  0  0.98679  0  0  0.119706  0.148917  0  0.987802  0
H  H15  1  0.61303231  0.40957712  0.88390767  1  0  0.135475  0  0.93099  0  0  0.150853  0  0.987026  0  0  0.153031  0  0.986775  0  0  0.119711  0.148917  0  0.987789  0
H  H16  1  0.57114464  0.75034182  0.99230408  1  0  0.114537  0  0.933258  0  0  0.129785  0  0.990889  0  0  0.132498  0  0.989425  0  0  0.112749  0.127691  0  0.992143  0
H  H17  1  0.42885319  0.24965485  0.00770107  1  0  0.11452  0  0.933326  0  0  0.129769  0  0.990961  0  0  0.132483  0  0.989497  0  0  0.112747  0.127677  0  0.992205  0
H  H18  1  0.95142937  0.47423193  0.32872690  1  0  0.446289  0  0.843548  0  0  0.418443  0  0.900652  0  0  0.428216  0  0.886271  0  0  0.304251  0.411556  0  0.910767  0
H  H19  1  0.04857245  0.52576450  0.67127295  1  0  0.446317  0  0.843519  0  0  0.418461  0  0.900638  0  0  0.428234  0  0.886256  0  0  0.304256  0.411573  0  0.910756  0
H  H20  1  0.09772194  0.94168479  0.87402028  1  0  0.338275  0  0.872428  0  0  0.316656  0  0.935638  0  0  0.32526  0  0.928567  0  0  0.320664  0.310575  0  0.940742  0
H  H21  1  0.90227994  0.05831275  0.12597820  1  0  0.338256  0  0.872414  0  0  0.316638  0  0.935615  0  0  0.325243  0  0.928545  0  0  0.320645  0.310558  0  0.940717  0
C  C22  1  0.25961540  0.80757049  0.13928938  1  0  0.755626  0  3.823167  0  0  0.713508  0  4.119255  0  0  0.745828  0  4.110266  0  0  0.235296  0.691656  0  4.124599  0
C  C23  1  0.74037411  0.19242142  0.86071473  1  0  0.755656  0  3.823084  0  0  0.713675  0  4.118986  0  0  0.745995  0  4.109994  0  0  0.2355  0.691813  0  4.124344  0
C  C24  1  0.36681099  0.70838095  0.04380276  1  0  -0.315066  0  3.646874  0  0  -0.352054  0  3.896711  0  0  -0.358729  0  3.904443  0  0  -0.152941  -0.347222  0  3.8915  0
C  C25  1  0.63318683  0.29161558  0.95619937  1  0  -0.31507  0  3.646967  0  0  -0.35211  0  3.896811  0  0  -0.358785  0  3.904542  0  0  -0.15298  -0.347278  0  3.891594  0
C  C26  1  0.18426393  0.70186662  0.93355832  1  0  0.112708  0  3.564434  0  0  0.045744  0  3.832572  0  0  0.050952  0  3.84263  0  0  -0.055962  0.042187  0  3.825594  0
C  C27  1  0.81574000  0.29813114  0.06644506  1  0  0.112658  0  3.564457  0  0  0.045725  0  3.832566  0  0  0.050933  0  3.842627  0  0  -0.055966  0.042168  0  3.825583  0
S  S28  1  0.67391398  0.77768480  0.58051490  1  0  1.620892  0  5.858643  0  0  1.502992  0  6.399868  0  0  1.556511  0  6.361954  0  0  0.59432  1.46591  0  6.424831  0
S  S29  1  0.32608857  0.22232537  0.41947656  1  0  1.620844  0  5.858698  0  0  1.502926  0  6.399957  0  0  1.556448  0  6.362031  0  0  0.594306  1.465833  0  6.424935  0
N  N30  1  0.16612098  0.85697786  0.82612210  1  0  -0.502149  0  3.190752  0  0  -0.451262  0  3.40068  0  0  -0.466698  0  3.397853  0  0  -0.602301  -0.440808  0  3.403378  0
N  N31  1  0.83387279  0.14301854  0.17387727  1  0  -0.502051  0  3.190721  0  0  -0.451142  0  3.400625  0  0  -0.466575  0  3.397807  0  0  -0.602266  -0.440708  0  3.403293  0
O  O32  1  0.38562068  0.79023110  0.56024281  1  0  -0.817459  0  1.95778  0  0  -0.769941  0  2.218679  0  0  -0.78931  0  2.199588  0  0  -0.424258  -0.75605  0  2.231079  0
O  O33  1  0.61438174  0.20977670  0.43974837  1  0  -0.817447  0  1.957814  0  0  -0.76991  0  2.218649  0  0  -0.78928  0  2.199548  0  0  -0.424253  -0.756016  0  2.231051  0
O  O34  1  0.73283407  0.88142624  0.66916385  1  0  -0.817986  0  1.945495  0  0  -0.763167  0  2.197575  0  0  -0.782406  0  2.178334  0  0  -0.409232  -0.749513  0  2.210831  0
O  O35  1  0.26717264  0.11858628  0.33082763  1  0  -0.818015  0  1.945694  0  0  -0.763098  0  2.197706  0  0  -0.782336  0  2.178462  0  0  -0.409164  -0.749451  0  2.210972  0
O  O36  1  0.02675940  0.86290831  0.12502662  1  0  -0.724519  0  1.971867  0  0  -0.673172  0  2.20481  0  0  -0.695541  0  2.19401  0  0  -0.375768  -0.657492  0  2.211881  0
O  O37  1  0.97324430  0.13708496  0.87498123  1  0  -0.724652  0  1.97177  0  0  -0.673373  0  2.20468  0  0  -0.695746  0  2.193885  0  0  -0.375889  -0.657677  0  2.211731  0
O  O38  1  0.84338701  0.83115392  0.43662313  1  0  -0.870633  0  1.955444  0  0  -0.827669  0  2.224856  0  0  -0.84377  0  2.20214  0  0  -0.465264  -0.816221  0  2.240613  0
O  O39  1  0.15662135  0.16885177  0.56337341  1  0  -0.870668  0  1.955232  0  0  -0.82768  0  2.224568  0  0  -0.843777  0  2.201847  0  0  -0.465318  -0.816234  0  2.24033  0
O  O40  1  0.40421792  0.82721961  0.23070437  1  0  -0.777068  0  1.92465  0  0  -0.734803  0  2.161427  0  0  -0.75553  0  2.148009  0  0  -0.44567  -0.720499  0  2.170526  0
O  O41  1  0.59578567  0.17277226  0.76929881  1  0  -0.776965  0  1.924679  0  0  -0.734773  0  2.161406  0  0  -0.755501  0  2.148  0  0  -0.445706  -0.720468  0  2.170506  0
O  O42  1  0.72952276  0.61489610  0.65830151  1  0  -0.737873  0  1.924761  0  0  -0.673433  0  2.151973  0  0  -0.695213  0  2.134612  0  0  -0.333922  -0.658181  0  2.16412  0
O  O43  1  0.27048181  0.38511411  0.34169083  1  0  -0.737799  0  1.92498  0  0  -0.673415  0  2.152245  0  0  -0.695195  0  2.13488  0  0  -0.333894  -0.658156  0  2.164387  0
O  O44  1  0.79552067  0.53868556  0.29889770  1  0  -0.917476  0  1.767686  0  0  -0.877677  0  1.934244  0  0  -0.893018  0  1.904252  0  0  -0.663846  -0.866739  0  1.955475  0
O  O45  1  0.20447916  0.46131097  0.70110429  1  0  -0.917428  0  1.767746  0  0  -0.877627  0  1.934316  0  0  -0.892967  0  1.904325  0  0  -0.663819  -0.866681  0  1.955548  0
