# generated using pymatgen
data_CdH6C8Br2(N2Cl)2
_symmetry_space_group_name_H-M   'P 1'
_cell_length_a   3.85927141
_cell_length_b   10.48038970
_cell_length_c   16.43046730
_cell_angle_alpha   89.99986013
_cell_angle_beta   89.99995260
_cell_angle_gamma   94.79176677
_symmetry_Int_Tables_number   1
_chemical_formula_structural   CdH6C8Br2(N2Cl)2
_chemical_formula_sum   'Cd2 H12 C16 Br4 N8 Cl4'
_cell_volume   662.23494831
_cell_formula_units_Z   2
loop_
 _symmetry_equiv_pos_site_id
 _symmetry_equiv_pos_as_xyz
  1  'x, y, z'
loop_
 _atom_site_type_symbol
 _atom_site_label
 _atom_site_symmetry_multiplicity
 _atom_site_fract_x
 _atom_site_fract_y
 _atom_site_fract_z
 _atom_site_occupancy
 _atom_site_hle17_bader_spin_density
 _atom_site_hle17_ddec_charge
 _atom_site_hle17_ddec_spin_density
 _atom_site_hle17_ddec_sum_bond_order
 _atom_site_hle17_magmom
 _atom_site_hse06_10hf_bader_spin_density
 _atom_site_hse06_10hf_ddec_charge
 _atom_site_hse06_10hf_ddec_spin_density
 _atom_site_hse06_10hf_ddec_sum_bond_order
 _atom_site_hse06_10hf_magmom
 _atom_site_hse06_bader_spin_density
 _atom_site_hse06_ddec_charge
 _atom_site_hse06_ddec_spin_density
 _atom_site_hse06_ddec_sum_bond_order
 _atom_site_hse06_magmom
 _atom_site_pbe_bader_spin_density
 _atom_site_pbe_cm5_charge
 _atom_site_pbe_ddec_charge
 _atom_site_pbe_ddec_spin_density
 _atom_site_pbe_ddec_sum_bond_order
 _atom_site_pbe_magmom
Cd  Cd0  1  0.50000213  0.50000009  0.49999995  1  0  0.824382  0  2.060012  0  0  0.662811  0  2.510981  0  0  0.711379  0  2.473714  0  0  0.526443  0.630936  0  2.533076  0
Cd  Cd1  1  0.50000028  0.99999977  0.99999995  1  0  0.824383  0  2.059995  0  0  0.662806  0  2.510968  0  0  0.711376  0  2.473702  0  0  0.526443  0.630933  0  2.533065  0
H  H2  1  0.28662635  0.19173806  0.48472736  1  0  0.098081  0  0.972462  0  0  0.097463  0  1.051391  0  0  0.101696  0  1.047665  0  0  0.099138  0.094213  0  1.054447  0
H  H3  1  0.71336970  0.30825956  0.98472457  1  0  0.098051  0  0.972549  0  0  0.097464  0  1.051446  0  0  0.101672  0  1.047739  0  0  0.099147  0.094214  0  1.054502  0
H  H4  1  0.71337059  0.80826404  0.51527192  1  0  0.098114  0  0.972403  0  0  0.097495  0  1.051345  0  0  0.1017  0  1.04764  0  0  0.099138  0.094245  0  1.054401  0
H  H5  1  0.28662657  0.69173966  0.01527228  1  0  0.098096  0  0.972465  0  0  0.097488  0  1.051382  0  0  0.10172  0  1.047658  0  0  0.099144  0.094239  0  1.054439  0
H  H6  1  0.64558353  0.44908365  0.30430682  1  0  0.097677  0  0.974348  0  0  0.093016  0  1.058652  0  0  0.0972  0  1.054502  0  0  0.106087  0.089593  0  1.0622  0
H  H7  1  0.35442432  0.05091756  0.80430572  1  0  0.097614  0  0.974368  0  0  0.092966  0  1.058676  0  0  0.097147  0  1.054532  0  0  0.106079  0.089544  0  1.062224  0
H  H8  1  0.35441836  0.55091749  0.69569369  1  0  0.097661  0  0.974351  0  0  0.092997  0  1.058665  0  0  0.097179  0  1.05452  0  0  0.106079  0.089573  0  1.062214  0
H  H9  1  0.64557692  0.94908071  0.19569479  1  0  0.097681  0  0.974357  0  0  0.093015  0  1.058667  0  0  0.097196  0  1.054522  0  0  0.106084  0.089591  0  1.062216  0
H  H10  1  0.69209970  0.26353943  0.20637730  1  0  0.088279  0  0.964424  0  0  0.088905  0  1.038923  0  0  0.09257  0  1.036069  0  0  0.09966  0.086296  0  1.041035  0
H  H11  1  0.30791138  0.23646313  0.70637775  1  0  0.088308  0  0.964441  0  0  0.088933  0  1.038924  0  0  0.092601  0  1.036073  0  0  0.099665  0.086324  0  1.041035  0
H  H12  1  0.30790220  0.73646171  0.79362259  1  0  0.088299  0  0.96438  0  0  0.088921  0  1.038865  0  0  0.092585  0  1.036015  0  0  0.099662  0.086312  0  1.040978  0
H  H13  1  0.69209504  0.76353514  0.29362215  1  0  0.088263  0  0.964436  0  0  0.08889  0  1.038937  0  0  0.092553  0  1.03609  0  0  0.099664  0.08628  0  1.04105  0
C  C14  1  0.39187330  0.10826534  0.36595234  1  0  0.233199  0  3.81376  0  0  0.233492  0  4.090032  0  0  0.239598  0  4.107805  0  0  0.141168  0.228657  0  4.078694  0
C  C15  1  0.60813169  0.39173563  0.86595066  1  0  0.233116  0  3.813571  0  0  0.233383  0  4.089874  0  0  0.239487  0  4.107644  0  0  0.141141  0.228554  0  4.078527  0
C  C16  1  0.60812816  0.89173388  0.63404755  1  0  0.233166  0  3.81359  0  0  0.233468  0  4.089845  0  0  0.239573  0  4.107616  0  0  0.141173  0.228637  0  4.078506  0
C  C17  1  0.39186718  0.60826360  0.13404741  1  0  0.233089  0  3.81365  0  0  0.233418  0  4.089861  0  0  0.239523  0  4.107636  0  0  0.14112  0.228591  0  4.078515  0
C  C18  1  0.37485431  0.20787445  0.42224342  1  0  0.016688  0  3.683966  0  0  -0.021271  0  3.94025  0  0  -0.019582  0  3.958554  0  0  0.037091  -0.022336  0  3.928526  0
C  C19  1  0.62515541  0.29212533  0.92224554  1  0  0.016849  0  3.683682  0  0  -0.021148  0  3.940005  0  0  -0.019433  0  3.958321  0  0  0.037108  -0.022214  0  3.928279  0
C  C20  1  0.62514478  0.79212573  0.57775708  1  0  0.016664  0  3.683967  0  0  -0.021295  0  3.940242  0  0  -0.01958  0  3.958565  0  0  0.037089  -0.022359  0  3.928518  0
C  C21  1  0.37485426  0.70787580  0.07775740  1  0  0.0167  0  3.684034  0  0  -0.021271  0  3.940299  0  0  -0.019583  0  3.958607  0  0  0.0371  -0.022337  0  3.928576  0
C  C22  1  0.57732244  0.35006419  0.32251454  1  0  0.070874  0  3.651905  0  0  0.038595  0  3.908605  0  0  0.042018  0  3.92562  0  0  0.0435  0.036409  0  3.897271  0
C  C23  1  0.42268208  0.14993408  0.82251570  1  0  0.071124  0  3.651886  0  0  0.038818  0  3.908604  0  0  0.042243  0  3.925627  0  0  0.043586  0.036629  0  3.89727  0
C  C24  1  0.42267664  0.64993599  0.67748475  1  0  0.070977  0  3.65186  0  0  0.03871  0  3.908519  0  0  0.042138  0  3.925538  0  0  0.043554  0.036526  0  3.897187  0
C  C25  1  0.57731657  0.85006419  0.17748602  1  0  0.070893  0  3.651853  0  0  0.038643  0  3.908516  0  0  0.042069  0  3.925534  0  0  0.043534  0.036457  0  3.897185  0
C  C26  1  0.59874721  0.24820907  0.26856849  1  0  0.094568  0  3.670488  0  0  0.072793  0  3.930392  0  0  0.0741  0  3.947243  0  0  0.050728  0.071453  0  3.919823  0
C  C27  1  0.40125842  0.25179324  0.76856768  1  0  0.094437  0  3.670226  0  0  0.072649  0  3.930195  0  0  0.07396  0  3.947026  0  0  0.050671  0.071308  0  3.91963  0
C  C28  1  0.40125750  0.75179302  0.73143079  1  0  0.094512  0  3.670596  0  0  0.072734  0  3.930523  0  0  0.07405  0  3.947351  0  0  0.050724  0.071393  0  3.919965  0
C  C29  1  0.59874001  0.74820407  0.23143100  1  0  0.094604  0  3.670574  0  0  0.072785  0  3.930538  0  0  0.074099  0  3.947368  0  0  0.050702  0.071443  0  3.919985  0
Br  Br30  1  0.03100647  0.63052428  0.41287638  1  0  -0.484961  0  1.117384  0  0  -0.422864  0  1.439479  0  0  -0.443369  0  1.417881  0  0  -0.24999  -0.409039  0  1.452502  0
Br  Br31  1  0.96899631  0.86947592  0.91287649  1  0  -0.484939  0  1.117349  0  0  -0.422839  0  1.439437  0  0  -0.443347  0  1.41785  0  0  -0.24998  -0.409014  0  1.452463  0
Br  Br32  1  0.96899520  0.36947590  0.58712351  1  0  -0.484938  0  1.117365  0  0  -0.42285  0  1.439473  0  0  -0.443358  0  1.417883  0  0  -0.249983  -0.409026  0  1.452495  0
Br  Br33  1  0.03100515  0.13052330  0.08712341  1  0  -0.484944  0  1.117355  0  0  -0.422844  0  1.439442  0  0  -0.443348  0  1.417848  0  0  -0.24999  -0.40902  0  1.452464  0
N  N34  1  0.50807896  0.12668895  0.29053815  1  0  -0.282225  0  3.063654  0  0  -0.252934  0  3.325435  0  0  -0.260865  0  3.339869  0  0  -0.295003  -0.247335  0  3.316472  0
N  N35  1  0.49192658  0.37331328  0.79053834  1  0  -0.282155  0  3.063526  0  0  -0.252836  0  3.325289  0  0  -0.260768  0  3.339732  0  0  -0.294961  -0.247238  0  3.316322  0
N  N36  1  0.49191710  0.87330932  0.70946236  1  0  -0.282155  0  3.063779  0  0  -0.252871  0  3.325547  0  0  -0.260802  0  3.339986  0  0  -0.294992  -0.247273  0  3.316584  0
N  N37  1  0.50807835  0.62668978  0.20946216  1  0  -0.282177  0  3.063739  0  0  -0.252888  0  3.325505  0  0  -0.260818  0  3.339943  0  0  -0.294989  -0.247289  0  3.316539  0
N  N38  1  0.47006828  0.32825645  0.39946673  1  0  -0.250232  0  3.274008  0  0  -0.175434  0  3.526819  0  0  -0.192044  0  3.550249  0  0  -0.308291  -0.164497  0  3.509666  0
N  N39  1  0.52993051  0.17174055  0.89946419  1  0  -0.250436  0  3.274067  0  0  -0.175632  0  3.526933  0  0  -0.192243  0  3.550352  0  0  -0.308357  -0.164695  0  3.509783  0
N  N40  1  0.52993125  0.67174564  0.60053317  1  0  -0.250321  0  3.274071  0  0  -0.175541  0  3.526908  0  0  -0.192153  0  3.550329  0  0  -0.308337  -0.164605  0  3.509758  0
N  N41  1  0.47006489  0.82825484  0.10053327  1  0  -0.250284  0  3.274094  0  0  -0.175508  0  3.526925  0  0  -0.192119  0  3.550352  0  0  -0.308306  -0.164572  0  3.509777  0
Cl  Cl42  1  0.25729613  0.95294767  0.39457170  1  0  -0.094164  0  1.393559  0  0  -0.083171  0  1.64471  0  0  -0.087018  0  1.639536  0  0  0.012681  -0.078887  0  1.64739  0
Cl  Cl43  1  0.74270932  0.54705260  0.89457235  1  0  -0.094149  0  1.393489  0  0  -0.08315  0  1.644656  0  0  -0.086997  0  1.639486  0  0  0.01269  -0.078869  0  1.647332  0
Cl  Cl44  1  0.74270598  0.04705442  0.60542880  1  0  -0.094168  0  1.393432  0  0  -0.083184  0  1.644582  0  0  -0.08703  0  1.639411  0  0  0.012674  -0.078899  0  1.647258  0
Cl  Cl45  1  0.25729213  0.45294662  0.10542754  1  0  -0.094103  0  1.393504  0  0  -0.083129  0  1.64465  0  0  -0.086975  0  1.639477  0  0  0.012711  -0.078846  0  1.647325  0
