# generated using pymatgen
data_ZnH10C12(NO3)2
_symmetry_space_group_name_H-M   'P 1'
_cell_length_a   8.46240758
_cell_length_b   11.78577426
_cell_length_c   11.78582848
_cell_angle_alpha   120.00263286
_cell_angle_beta   90.02491094
_cell_angle_gamma   89.97529264
_symmetry_Int_Tables_number   1
_chemical_formula_structural   ZnH10C12(NO3)2
_chemical_formula_sum   'Zn3 H30 C36 N6 O18'
_cell_volume   1017.96120740
_cell_formula_units_Z   3
loop_
 _symmetry_equiv_pos_site_id
 _symmetry_equiv_pos_as_xyz
  1  'x, y, z'
loop_
 _atom_site_type_symbol
 _atom_site_label
 _atom_site_symmetry_multiplicity
 _atom_site_fract_x
 _atom_site_fract_y
 _atom_site_fract_z
 _atom_site_occupancy
 _atom_site_hle17_bader_spin_density
 _atom_site_hle17_ddec_charge
 _atom_site_hle17_ddec_spin_density
 _atom_site_hle17_ddec_sum_bond_order
 _atom_site_hle17_magmom
 _atom_site_hse06_10hf_bader_spin_density
 _atom_site_hse06_10hf_ddec_charge
 _atom_site_hse06_10hf_ddec_spin_density
 _atom_site_hse06_10hf_ddec_sum_bond_order
 _atom_site_hse06_10hf_magmom
 _atom_site_hse06_bader_spin_density
 _atom_site_hse06_ddec_charge
 _atom_site_hse06_ddec_spin_density
 _atom_site_hse06_ddec_sum_bond_order
 _atom_site_hse06_magmom
 _atom_site_pbe_bader_spin_density
 _atom_site_pbe_cm5_charge
 _atom_site_pbe_ddec_charge
 _atom_site_pbe_ddec_spin_density
 _atom_site_pbe_ddec_sum_bond_order
 _atom_site_pbe_magmom
Zn  Zn0  1  0.00000177  0.71566597  0.71566936  1  0  1.055607  0  1.827274  0  0  0.886472  0  2.273569  0  0  0.932428  0  2.219064  0  0  0.671111  0.854383  0  2.310952  0
Zn  Zn1  1  0.33350995  0.28431716  0.99992834  1  0  1.055368  0  1.827188  0  0  0.88626  0  2.273772  0  0  0.932257  0  2.219178  0  0  0.671317  0.854148  0  2.311221  0
Zn  Zn2  1  0.66649473  0.99992753  0.28431820  1  0  1.055404  0  1.827153  0  0  0.886285  0  2.273743  0  0  0.932281  0  2.219146  0  0  0.671306  0.854169  0  2.311195  0
H  H3  1  0.22572259  0.84902966  0.86007577  1  0  0.418784  0  0.888395  0  0  0.384998  0  0.955647  0  0  0.397364  0  0.937658  0  0  0.286153  0.376271  0  0.968325  0
H  H4  1  0.55927124  0.13985477  0.98889753  1  0  0.418415  0  0.888964  0  0  0.384665  0  0.956215  0  0  0.397051  0  0.938209  0  0  0.286132  0.37593  0  0.968895  0
H  H5  1  0.89236005  0.01126135  0.15122837  1  0  0.418201  0  0.889217  0  0  0.385221  0  0.955287  0  0  0.397584  0  0.937306  0  0  0.286144  0.376492  0  0.967964  0
H  H6  1  0.77428314  0.86007471  0.84903149  1  0  0.418743  0  0.888473  0  0  0.384947  0  0.955743  0  0  0.397314  0  0.93775  0  0  0.286119  0.37622  0  0.96842  0
H  H7  1  0.44073423  0.98889994  0.13985520  1  0  0.418386  0  0.888998  0  0  0.384636  0  0.956253  0  0  0.397021  0  0.938248  0  0  0.286103  0.375901  0  0.968933  0
H  H8  1  0.10764185  0.15122633  0.01126201  1  0  0.418177  0  0.889261  0  0  0.3852  0  0.955327  0  0  0.397564  0  0.937345  0  0  0.286106  0.37647  0  0.968005  0
H  H9  1  0.10306324  0.83259251  0.96165213  1  0  0.428277  0  0.873147  0  0  0.396238  0  0.937733  0  0  0.407683  0  0.921033  0  0  0.290754  0.388144  0  0.949531  0
H  H10  1  0.43652543  0.03831164  0.87084051  1  0  0.427511  0  0.874014  0  0  0.39603  0  0.937733  0  0  0.407418  0  0.921107  0  0  0.290824  0.38796  0  0.949519  0
H  H11  1  0.76964893  0.12935515  0.16781357  1  0  0.428445  0  0.872849  0  0  0.396347  0  0.937498  0  0  0.407761  0  0.920861  0  0  0.290842  0.388287  0  0.949231  0
H  H12  1  0.89694270  0.96165172  0.83259134  1  0  0.428258  0  0.873176  0  0  0.396227  0  0.93775  0  0  0.40767  0  0.921056  0  0  0.290726  0.388133  0  0.949549  0
H  H13  1  0.56347714  0.87084223  0.03831226  1  0  0.427572  0  0.873939  0  0  0.396104  0  0.937639  0  0  0.407491  0  0.921014  0  0  0.290867  0.388035  0  0.949422  0
H  H14  1  0.23035331  0.16781297  0.12935551  1  0  0.428374  0  0.872945  0  0  0.396336  0  0.937508  0  0  0.40775  0  0.92087  0  0  0.290837  0.388278  0  0.949239  0
H  H15  1  0.49520396  0.39736576  0.57781322  1  0  0.120027  0  0.936943  0  0  0.12851  0  0.995637  0  0  0.132616  0  0.993805  0  0  0.112435  0.125534  0  0.997112  0
H  H16  1  0.82853287  0.42219556  0.81968500  1  0  0.120213  0  0.936217  0  0  0.128295  0  0.995313  0  0  0.132341  0  0.993555  0  0  0.112221  0.12532  0  0.996783  0
H  H17  1  0.16165881  0.18007669  0.60261180  1  0  0.119624  0  0.937505  0  0  0.127922  0  0.996428  0  0  0.131933  0  0.994711  0  0  0.112211  0.125007  0  0.997828  0
H  H18  1  0.50479405  0.57781053  0.39736707  1  0  0.120035  0  0.936855  0  0  0.128451  0  0.995616  0  0  0.132555  0  0.993787  0  0  0.112402  0.125474  0  0.997091  0
H  H19  1  0.17146343  0.81968935  0.42219355  1  0  0.120253  0  0.936135  0  0  0.128309  0  0.995259  0  0  0.13237  0  0.993483  0  0  0.112225  0.125333  0  0.996729  0
H  H20  1  0.83834109  0.60260238  0.18006763  1  0  0.119643  0  0.93743  0  0  0.127949  0  0.996353  0  0  0.131959  0  0.994635  0  0  0.112201  0.125031  0  0.997749  0
H  H21  1  0.33249583  0.59759686  0.72935064  1  0  0.088632  0  0.943539  0  0  0.09548  0  1.00873  0  0  0.09781  0  1.007369  0  0  0.11778  0.093738  0  1.009812  0
H  H22  1  0.66592401  0.27084401  0.86856322  1  0  0.088892  0  0.943209  0  0  0.095844  0  1.008276  0  0  0.098204  0  1.006869  0  0  0.117885  0.094085  0  1.009367  0
H  H23  1  0.99905706  0.13124743  0.40233227  1  0  0.089222  0  0.942295  0  0  0.096088  0  1.007452  0  0  0.098435  0  1.006072  0  0  0.117958  0.09434  0  1.008551  0
H  H24  1  0.66749596  0.72935052  0.59760590  1  0  0.088727  0  0.943366  0  0  0.095586  0  1.008545  0  0  0.097912  0  1.007181  0  0  0.117833  0.093843  0  1.009627  0
H  H25  1  0.33406850  0.86857266  0.27084657  1  0  0.088864  0  0.943147  0  0  0.095811  0  1.008219  0  0  0.098173  0  1.006815  0  0  0.117872  0.094055  0  1.009311  0
H  H26  1  0.00093985  0.40232083  0.13123411  1  0  0.089203  0  0.942227  0  0  0.096062  0  1.007395  0  0  0.098409  0  1.006016  0  0  0.117944  0.094311  0  1.008495  0
H  H27  1  0.10925855  0.27272309  0.30526679  1  0  0.118899  0  0.980934  0  0  0.125808  0  1.048137  0  0  0.129874  0  1.044872  0  0  0.113847  0.122789  0  1.050709  0
H  H28  1  0.44251747  0.69470107  0.96712159  1  0  0.119808  0  0.980364  0  0  0.126123  0  1.048211  0  0  0.130281  0  1.044893  0  0  0.1139  0.123065  0  1.050803  0
H  H29  1  0.77570690  0.03282448  0.72764463  1  0  0.119915  0  0.980401  0  0  0.126146  0  1.048247  0  0  0.130305  0  1.044902  0  0  0.113903  0.123084  0  1.050881  0
H  H30  1  0.89074083  0.30527228  0.27272200  1  0  0.119041  0  0.980876  0  0  0.125928  0  1.048086  0  0  0.130001  0  1.044817  0  0  0.113878  0.122908  0  1.05066  0
H  H31  1  0.55747160  0.96713091  0.69470493  1  0  0.119738  0  0.980323  0  0  0.126115  0  1.04812  0  0  0.13028  0  1.044804  0  0  0.113918  0.123056  0  1.050712  0
H  H32  1  0.22429294  0.72764692  0.03282823  1  0  0.119952  0  0.980395  0  0  0.126198  0  1.048229  0  0  0.13036  0  1.044876  0  0  0.113908  0.123138  0  1.050864  0
C  C33  1  0.37701558  0.41221637  0.55092944  1  0  -0.118487  0  3.696815  0  0  -0.14285  0  3.948216  0  0  -0.147301  0  3.967748  0  0  -0.074305  -0.139919  0  3.935128  0
C  C34  1  0.71033589  0.44909005  0.86137564  1  0  -0.119033  0  3.697991  0  0  -0.143193  0  3.948965  0  0  -0.147652  0  3.968531  0  0  -0.074436  -0.140221  0  3.935875  0
C  C35  1  0.04348309  0.13840555  0.58778910  1  0  -0.117591  0  3.698538  0  0  -0.141797  0  3.950133  0  0  -0.146156  0  3.969718  0  0  -0.073997  -0.138922  0  3.937004  0
C  C36  1  0.62298594  0.55092823  0.41221823  1  0  -0.118475  0  3.696775  0  0  -0.142753  0  3.948195  0  0  -0.147201  0  3.967724  0  0  -0.074279  -0.139822  0  3.935105  0
C  C37  1  0.28966058  0.86138333  0.44908961  1  0  -0.119058  0  3.698189  0  0  -0.14321  0  3.949119  0  0  -0.147683  0  3.968679  0  0  -0.07448  -0.140239  0  3.936029  0
C  C38  1  0.95651666  0.58778044  0.13839863  1  0  -0.117738  0  3.698602  0  0  -0.141954  0  3.950219  0  0  -0.146311  0  3.969802  0  0  -0.074034  -0.139073  0  3.937083  0
C  C39  1  0.28804944  0.52245668  0.63425408  1  0  0.137553  0  3.684972  0  0  0.107951  0  3.939127  0  0  0.113484  0  3.956991  0  0  0.053283  0.104323  0  3.92696  0
C  C40  1  0.62137479  0.36586659  0.88836243  1  0  0.137197  0  3.687607  0  0  0.107394  0  3.94165  0  0  0.112908  0  3.959551  0  0  0.053342  0.103787  0  3.929434  0
C  C41  1  0.95453388  0.11140005  0.47750102  1  0  0.136239  0  3.686049  0  0  0.106619  0  3.940215  0  0  0.112151  0  3.958079  0  0  0.052759  0.102984  0  3.928044  0
C  C42  1  0.71195020  0.63425505  0.52246142  1  0  0.13736  0  3.684868  0  0  0.107752  0  3.939039  0  0  0.113297  0  3.956896  0  0  0.053164  0.104122  0  3.926869  0
C  C43  1  0.37861682  0.88837040  0.36587184  1  0  0.137274  0  3.687835  0  0  0.107477  0  3.941892  0  0  0.112986  0  3.9598  0  0  0.053372  0.103867  0  3.929681  0
C  C44  1  0.04546790  0.47749536  0.11139285  1  0  0.136424  0  3.686108  0  0  0.106822  0  3.940235  0  0  0.112352  0  3.958101  0  0  0.052859  0.103191  0  3.928062  0
C  C45  1  0.31177098  0.32024546  0.43032993  1  0  -0.001996  0  3.71831  0  0  0.015201  0  3.956742  0  0  0.01292  0  3.976715  0  0  0.004579  0.016657  0  3.943254  0
C  C46  1  0.64511131  0.56966888  0.88986911  1  0  -0.002616  0  3.720144  0  0  0.015905  0  3.956699  0  0  0.013756  0  3.976541  0  0  0.004633  0.017271  0  3.9433  0
C  C47  1  0.97824815  0.11002616  0.67988361  1  0  -0.002321  0  3.718621  0  0  0.015102  0  3.957281  0  0  0.012776  0  3.977303  0  0  0.004895  0.01659  0  3.943771  0
C  C48  1  0.68823001  0.43033311  0.32024462  1  0  -0.00203  0  3.718238  0  0  0.015099  0  3.95675  0  0  0.012817  0  3.976726  0  0  0.004565  0.016555  0  3.943258  0
C  C49  1  0.35488316  0.88987495  0.56967114  1  0  -0.00275  0  3.720344  0  0  0.015873  0  3.95675  0  0  0.013726  0  3.976592  0  0  0.004636  0.017237  0  3.943354  0
C  C50  1  0.02175530  0.67988271  0.11002875  1  0  -0.00228  0  3.718603  0  0  0.015135  0  3.957301  0  0  0.012805  0  3.977324  0  0  0.004918  0.016622  0  3.94379  0
C  C51  1  0.40089669  0.19791270  0.33516802  1  0  0.648252  0  3.889842  0  0  0.595256  0  4.188565  0  0  0.628692  0  4.181963  0  0  0.214142  0.572709  0  4.192129  0
C  C52  1  0.73434053  0.66476694  0.86270491  1  0  0.649658  0  3.889042  0  0  0.595623  0  4.188541  0  0  0.628995  0  4.181952  0  0  0.214253  0.573119  0  4.1921  0
C  C53  1  0.06765479  0.13710735  0.80210610  1  0  0.650079  0  3.887451  0  0  0.596034  0  4.187656  0  0  0.629473  0  4.181036  0  0  0.214218  0.573475  0  4.191239  0
C  C54  1  0.59910494  0.33516567  0.19790820  1  0  0.648407  0  3.889378  0  0  0.595407  0  4.18813  0  0  0.628844  0  4.181524  0  0  0.214206  0.572863  0  4.191692  0
C  C55  1  0.26566120  0.86270302  0.66476420  1  0  0.64967  0  3.889056  0  0  0.595636  0  4.188498  0  0  0.629008  0  4.181909  0  0  0.214253  0.573133  0  4.192055  0
C  C56  1  0.93235022  0.80210614  0.13711120  1  0  0.650176  0  3.887066  0  0  0.5961  0  4.187307  0  0  0.62954  0  4.180684  0  0  0.214169  0.573542  0  4.190891  0
C  C57  1  0.16090485  0.34291376  0.39875676  1  0  -0.133725  0  3.668695  0  0  -0.163861  0  3.913543  0  0  -0.168735  0  3.933266  0  0  -0.069053  -0.1606  0  3.900394  0
C  C58  1  0.49419789  0.60122669  0.94391800  1  0  -0.134446  0  3.669256  0  0  -0.164587  0  3.913309  0  0  -0.169616  0  3.933029  0  0  -0.069392  -0.161235  0  3.900205  0
C  C59  1  0.82735503  0.05593777  0.65733844  1  0  -0.13526  0  3.669077  0  0  -0.164647  0  3.914162  0  0  -0.169601  0  3.933864  0  0  -0.069319  -0.161369  0  3.901066  0
C  C60  1  0.83909730  0.39875763  0.34291038  1  0  -0.13386  0  3.668715  0  0  -0.163972  0  3.913558  0  0  -0.168854  0  3.933284  0  0  -0.069107  -0.160711  0  3.90041  0
C  C61  1  0.50579207  0.94392927  0.60122877  1  0  -0.134311  0  3.669351  0  0  -0.164591  0  3.91338  0  0  -0.169617  0  3.933121  0  0  -0.069428  -0.161257  0  3.900253  0
C  C62  1  0.17264824  0.65733963  0.05594210  1  0  -0.135367  0  3.669018  0  0  -0.164753  0  3.914104  0  0  -0.169704  0  3.933807  0  0  -0.06933  -0.161474  0  3.901009  0
C  C63  1  0.07952091  0.45631411  0.48658903  1  0  0.183073  0  3.751022  0  0  0.180014  0  3.990304  0  0  0.18575  0  4.010168  0  0  0.12645  0.176126  0  3.97686  0
C  C64  1  0.41288925  0.51348478  0.96960884  1  0  0.181923  0  3.753684  0  0  0.179636  0  3.992099  0  0  0.185336  0  4.012044  0  0  0.126674  0.175743  0  3.978645  0
C  C65  1  0.74602134  0.03020302  0.54384147  1  0  0.182472  0  3.751521  0  0  0.17894  0  3.990883  0  0  0.184692  0  4.010782  0  0  0.125796  0.175045  0  3.977415  0
C  C66  1  0.92047465  0.48659413  0.45631606  1  0  0.182922  0  3.751201  0  0  0.179928  0  3.990432  0  0  0.185666  0  4.010304  0  0  0.126372  0.176037  0  3.976987  0
C  C67  1  0.58710529  0.96961491  0.51348833  1  0  0.181897  0  3.753661  0  0  0.179678  0  3.99202  0  0  0.185331  0  4.012027  0  0  0.12667  0.175845  0  3.97848  0
C  C68  1  0.25398276  0.54383894  0.03020207  1  0  0.182582  0  3.751342  0  0  0.179019  0  3.990785  0  0  0.184758  0  4.010677  0  0  0.125804  0.175143  0  3.977332  0
N  N69  1  0.14297646  0.54381447  0.60288263  1  0  -0.32659  0  3.238613  0  0  -0.259081  0  3.497411  0  0  -0.274344  0  3.511771  0  0  -0.308429  -0.248681  0  3.487612  0
N  N70  1  0.47635647  0.39723663  0.94098030  1  0  -0.32549  0  3.240566  0  0  -0.258296  0  3.499189  0  0  -0.273548  0  3.513584  0  0  -0.308314  -0.247887  0  3.48937  0
N  N71  1  0.80952555  0.05871508  0.45617521  1  0  -0.325227  0  3.238456  0  0  -0.257579  0  3.497195  0  0  -0.272859  0  3.511582  0  0  -0.307878  -0.247164  0  3.487373  0
N  N72  1  0.85701961  0.60288098  0.54381768  1  0  -0.326441  0  3.238739  0  0  -0.258955  0  3.497522  0  0  -0.27423  0  3.5119  0  0  -0.30835  -0.24855  0  3.487714  0
N  N73  1  0.52364125  0.94098703  0.39723914  1  0  -0.325489  0  3.240605  0  0  -0.258348  0  3.499251  0  0  -0.273579  0  3.513651  0  0  -0.308301  -0.247959  0  3.489414  0
N  N74  1  0.19047486  0.45617173  0.05871175  1  0  -0.325339  0  3.23844  0  0  -0.257675  0  3.497181  0  0  -0.272957  0  3.511572  0  0  -0.307927  -0.247265  0  3.48736  0
O  O75  1  0.15738348  0.78801486  0.87513859  1  0  -0.843562  0  1.932428  0  0  -0.779328  0  2.140397  0  0  -0.801528  0  2.10335  0  0  -0.581322  -0.763678  0  2.166068  0
O  O76  1  0.49092554  0.12479701  0.91277210  1  0  -0.842487  0  1.93279  0  0  -0.778786  0  2.140224  0  0  -0.800867  0  2.103131  0  0  -0.581335  -0.76321  0  2.165925  0
O  O77  1  0.82394131  0.08729972  0.21233314  1  0  -0.843546  0  1.932207  0  0  -0.780148  0  2.140064  0  0  -0.802323  0  2.102987  0  0  -0.581615  -0.764506  0  2.16575  0
O  O78  1  0.84262214  0.87513492  0.78801292  1  0  -0.843551  0  1.932506  0  0  -0.779312  0  2.140474  0  0  -0.801512  0  2.10343  0  0  -0.581284  -0.76366  0  2.166143  0
O  O79  1  0.50907852  0.91277358  0.12479736  1  0  -0.842527  0  1.932722  0  0  -0.778822  0  2.140134  0  0  -0.800906  0  2.103049  0  0  -0.581339  -0.763244  0  2.165835  0
O  O80  1  0.17606093  0.21233157  0.08729871  1  0  -0.843485  0  1.932314  0  0  -0.780149  0  2.140123  0  0  -0.802323  0  2.103045  0  0  -0.581588  -0.764504  0  2.165801  0
O  O81  1  0.53163417  0.17871693  0.37525715  1  0  -0.617975  0  2.024282  0  0  -0.562525  0  2.279104  0  0  -0.589524  0  2.269213  0  0  -0.312205  -0.543637  0  2.285147  0
O  O82  1  0.86503142  0.62460782  0.80344591  1  0  -0.618823  0  2.023191  0  0  -0.563476  0  2.278654  0  0  -0.590404  0  2.268665  0  0  -0.312788  -0.544611  0  2.284709  0
O  O83  1  0.19840918  0.19624636  0.82113498  1  0  -0.619185  0  2.022656  0  0  -0.563651  0  2.278226  0  0  -0.590595  0  2.268193  0  0  -0.312993  -0.544789  0  2.284348  0
O  O84  1  0.46837106  0.37525621  0.17871244  1  0  -0.617952  0  2.024206  0  0  -0.562496  0  2.279039  0  0  -0.589498  0  2.269157  0  0  -0.312174  -0.543611  0  2.285083  0
O  O85  1  0.13497362  0.80343220  0.62460005  1  0  -0.618819  0  2.023023  0  0  -0.563498  0  2.278485  0  0  -0.590424  0  2.268495  0  0  -0.312793  -0.54463  0  2.284531  0
O  O86  1  0.80159721  0.82113685  0.19625797  1  0  -0.619298  0  2.022462  0  0  -0.56372  0  2.278003  0  0  -0.590663  0  2.267966  0  0  -0.312992  -0.544861  0  2.284136  0
O  O87  1  0.33748475  0.12346475  0.22377010  1  0  -0.628482  0  1.993874  0  0  -0.564301  0  2.205447  0  0  -0.590302  0  2.194112  0  0  -0.309357  -0.546205  0  2.212737  0
O  O88  1  0.67102742  0.77621938  0.89967554  1  0  -0.628735  0  1.992787  0  0  -0.564376  0  2.204561  0  0  -0.590336  0  2.193246  0  0  -0.309078  -0.546283  0  2.211847  0
O  O89  1  0.00439489  0.10026310  0.87666745  1  0  -0.628824  0  1.9927  0  0  -0.56438  0  2.204502  0  0  -0.590328  0  2.19309  0  0  -0.30901  -0.546294  0  2.211844  0
O  O90  1  0.66251760  0.22376617  0.12346053  1  0  -0.6286  0  1.993699  0  0  -0.564366  0  2.205259  0  0  -0.590369  0  2.193925  0  0  -0.309381  -0.546275  0  2.212551  0
O  O91  1  0.32897114  0.89967635  0.77621615  1  0  -0.628745  0  1.992796  0  0  -0.564371  0  2.204538  0  0  -0.590331  0  2.193224  0  0  -0.309077  -0.54628  0  2.211825  0
O  O92  1  0.99561022  0.87666797  0.10026928  1  0  -0.628856  0  1.992595  0  0  -0.564385  0  2.204392  0  0  -0.590334  0  2.192978  0  0  -0.308986  -0.546298  0  2.211735  0
