# generated using pymatgen
data_CdH10C12(N4O)2
_symmetry_space_group_name_H-M   'P 1'
_cell_length_a   11.48890398
_cell_length_b   13.50165506
_cell_length_c   13.50100753
_cell_angle_alpha   79.56911400
_cell_angle_beta   64.78747267
_cell_angle_gamma   64.82273451
_symmetry_Int_Tables_number   1
_chemical_formula_structural   CdH10C12(N4O)2
_chemical_formula_sum   'Cd4 H40 C48 N32 O8'
_cell_volume   1714.74396950
_cell_formula_units_Z   4
loop_
 _symmetry_equiv_pos_site_id
 _symmetry_equiv_pos_as_xyz
  1  'x, y, z'
loop_
 _atom_site_type_symbol
 _atom_site_label
 _atom_site_symmetry_multiplicity
 _atom_site_fract_x
 _atom_site_fract_y
 _atom_site_fract_z
 _atom_site_occupancy
 _atom_site_pbe_bader_charge
 _atom_site_pbe_bader_spin_density
 _atom_site_pbe_cm5_charge
 _atom_site_pbe_ddec_charge
 _atom_site_pbe_ddec_spin_density
 _atom_site_pbe_ddec_sum_bond_order
 _atom_site_pbe_magmom
Cd  Cd0  1  0.99999348  0.50000891  0.49999983  1  1.270956  0  0.808748  0.82245  0  2.297463  0
Cd  Cd1  1  0.00000519  0.00000164  0.00000457  1  1.26931  0  0.809675  0.825497  0  2.294911  0
Cd  Cd2  1  0.99998781  0.50000090  0.00000174  1  1.26727  0  0.809623  0.823191  0  2.298858  0
Cd  Cd3  1  0.49999512  0.00000236  0.50000351  1  1.270453  0  0.808878  0.823407  0  2.299022  0
H  H4  1  0.86545336  0.53092110  0.31482981  1  0.135763  0  0.139659  0.103781  0  0.982151  0
H  H5  1  0.49952321  0.38714166  0.95111291  1  0.088226  0  0.110628  0.154062  0  0.982739  0
H  H6  1  0.59590686  0.40596670  0.14741410  1  0.067048  0  0.097994  0.150176  0  0.997207  0
H  H7  1  0.65451172  0.30932720  0.04465313  1  0.032813  0  0.090796  0.132497  0  1.003116  0
H  H8  1  0.58620250  0.27651399  0.18676161  1  0.041222  0  0.096785  0.14849  0  0.994674  0
H  H9  1  0.71139761  0.96925074  0.18519502  1  0.123831  0  0.14014  0.103568  0  0.98401  0
H  H10  1  0.83775678  0.11281492  0.54881778  1  0.086397  0  0.111794  0.155377  0  0.98158  0
H  H11  1  0.14947066  0.09422045  0.35241749  1  0.068564  0  0.097316  0.149237  0  0.998411  0
H  H12  1  0.00855102  0.19085069  0.45519236  1  0.017399  0  0.090931  0.132211  0  1.003288  0
H  H13  1  0.04960926  0.22357406  0.31304977  1  0.085263  0  0.096497  0.147879  0  0.994931  0
H  H14  1  0.89670105  0.31479884  0.96909236  1  0.135832  0  0.139839  0.103676  0  0.984687  0
H  H15  1  0.38646680  0.95135014  0.11293682  1  0.089695  0  0.111193  0.154485  0  0.982769  0
H  H16  1  0.50199373  0.14753694  0.09400005  1  0.070447  0  0.096983  0.148487  0  0.997681  0
H  H17  1  0.46386097  0.04483506  0.19064683  1  0.043094  0  0.090893  0.131879  0  1.002766  0
H  H18  1  0.36284912  0.18691347  0.22349861  1  0.043425  0  0.096612  0.147557  0  0.995193  0
H  H19  1  0.18047160  0.18512475  0.53104852  1  0.128866  0  0.139359  0.103201  0  0.982065  0
H  H20  1  0.45088164  0.54862046  0.38682555  1  0.093851  0  0.111283  0.154839  0  0.982533  0
H  H21  1  0.74373697  0.35231475  0.40573721  1  0.073495  0  0.097274  0.149443  0  0.996861  0
H  H22  1  0.69969305  0.45497871  0.30900848  1  0.013721  0  0.090663  0.131904  0  1.003319  0
H  H23  1  0.77339509  0.31289477  0.27630944  1  0.05532  0  0.097  0.148182  0  0.995293  0
H  H24  1  0.13455162  0.46907037  0.68516167  1  0.135705  0  0.139676  0.10377  0  0.982174  0
H  H25  1  0.50048836  0.61285308  0.04888092  1  0.088375  0  0.110611  0.154083  0  0.982704  0
H  H26  1  0.40409625  0.59403459  0.85258491  1  0.067084  0  0.097995  0.150202  0  0.997144  0
H  H27  1  0.34549783  0.69067082  0.95534396  1  0.032061  0  0.090836  0.132529  0  1.003163  0
H  H28  1  0.41380278  0.72348566  0.81323701  1  0.041222  0  0.096774  0.148494  0  0.994671  0
H  H29  1  0.28859461  0.03074891  0.81480897  1  0.123768  0  0.140168  0.103582  0  0.984022  0
H  H30  1  0.16223542  0.88718801  0.45118363  1  0.086416  0  0.1118  0.155401  0  0.981604  0
H  H31  1  0.85052606  0.90577511  0.64758789  1  0.068587  0  0.097315  0.149248  0  0.998408  0
H  H32  1  0.99144225  0.80914487  0.54481454  1  0.016918  0  0.090972  0.132223  0  1.00334  0
H  H33  1  0.95038656  0.77642477  0.68695487  1  0.085155  0  0.096552  0.147897  0  0.994902  0
H  H34  1  0.10331225  0.68520572  0.03090059  1  0.135762  0  0.139836  0.103637  0  0.984642  0
H  H35  1  0.61353193  0.04865688  0.88706947  1  0.089625  0  0.111176  0.154442  0  0.982774  0
H  H36  1  0.49800868  0.85246844  0.90599858  1  0.070522  0  0.096996  0.148516  0  0.997686  0
H  H37  1  0.53614336  0.95517114  0.80935428  1  0.043166  0  0.090855  0.131836  0  1.002763  0
H  H38  1  0.63715624  0.81309191  0.77650284  1  0.043447  0  0.096629  0.147571  0  0.995232  0
H  H39  1  0.81953044  0.81487081  0.46895058  1  0.128904  0  0.139386  0.10322  0  0.982088  0
H  H40  1  0.54910946  0.45138001  0.61317338  1  0.09405  0  0.111281  0.154804  0  0.982536  0
H  H41  1  0.25625865  0.64768409  0.59425802  1  0.073373  0  0.097289  0.14943  0  0.996888  0
H  H42  1  0.30030426  0.54502094  0.69098562  1  0.013732  0  0.090657  0.131883  0  1.003373  0
H  H43  1  0.22660007  0.68710324  0.72368762  1  0.055393  0  0.096984  0.148165  0  0.995233  0
C  C44  1  0.97709428  0.50591827  0.26817921  1  1.112387  0  0.157734  0.179627  0  4.019211  0
C  C45  1  0.43069139  0.38758561  0.12741253  1  0.495869  0  0.122917  0.360946  0  4.01176  0
C  C46  1  0.41061968  0.40650119  0.02944293  1  -0.028265  0  -0.120007  -0.399234  0  3.929032  0
C  C47  1  0.27576719  0.44728996  0.02802820  1  1.189495  0  0.2097  0.444544  0  4.2147  0
C  C48  1  0.57552441  0.34190260  0.12564436  1  -0.028408  0  -0.238428  -0.451571  0  3.920548  0
C  C49  1  0.19791825  0.44727046  0.22833969  1  1.458616  0  0.338639  0.439035  0  4.085915  0
C  C50  1  0.75142728  0.99416786  0.23180103  1  1.017813  0  0.157856  0.181706  0  4.022625  0
C  C51  1  0.94596452  0.11234604  0.37249777  1  0.502763  0  0.122464  0.357316  0  4.015388  0
C  C52  1  0.84671448  0.09340889  0.47047766  1  -0.015466  0  -0.12185  -0.40015  0  3.930003  0
C  C53  1  0.75116861  0.05266145  0.47191297  1  1.189279  0  0.210201  0.446242  0  4.211491  0
C  C54  1  0.04320326  0.15822435  0.37422697  1  -0.065077  0  -0.236948  -0.447658  0  3.918976  0
C  C55  1  0.87387753  0.05267954  0.27157415  1  1.458697  0  0.337892  0.440684  0  4.082463  0
C  C56  1  0.98338382  0.26817559  0.99397431  1  1.087241  0  0.156881  0.178502  0  4.022931  0
C  C57  1  0.31844081  0.12757133  0.11231489  1  0.497649  0  0.122899  0.357309  0  4.015565  0
C  C58  1  0.31711487  0.02964053  0.09346684  1  0.001348  0  -0.121177  -0.399377  0  3.930848  0
C  C59  1  0.22324649  0.02820876  0.05249524  1  1.164043  0  0.211323  0.446721  0  4.21031  0
C  C60  1  0.41750736  0.12578496  0.15809186  1  -0.046579  0  -0.237673  -0.447062  0  3.918815  0
C  C61  1  0.14556316  0.22844919  0.05248512  1  1.45733  0  0.335841  0.433487  0  4.089554  0
C  C62  1  0.24544648  0.23176785  0.50595526  1  0.997074  0  0.15933  0.182552  0  4.021737  0
C  C63  1  0.55843006  0.37237579  0.38745094  1  0.486234  0  0.124204  0.36128  0  4.012356  0
C  C64  1  0.44033569  0.47031282  0.40620546  1  0.007156  0  -0.121055  -0.400451  0  3.93095  0
C  C65  1  0.30404025  0.47174908  0.44696138  1  1.166924  0  0.209251  0.443692  0  4.215389  0
C  C66  1  0.70160529  0.37406544  0.34168158  1  -0.025624  0  -0.238201  -0.449705  0  3.920303  0
C  C67  1  0.42653718  0.27151380  0.44718339  1  1.490124  0  0.337604  0.439133  0  4.08205  0
C  C68  1  0.02291105  0.49407565  0.73181549  1  1.112684  0  0.157732  0.179657  0  4.019195  0
C  C69  1  0.56931225  0.61240995  0.87258400  1  0.495814  0  0.122957  0.360927  0  4.011801  0
C  C70  1  0.58938675  0.59349028  0.97055285  1  -0.028937  0  -0.120034  -0.399353  0  3.929063  0
C  C71  1  0.72423975  0.55270150  0.97196323  1  1.190524  0  0.209763  0.444763  0  4.21428  0
C  C72  1  0.42448141  0.65809623  0.87435317  1  -0.027655  0  -0.238412  -0.451564  0  3.920596  0
C  C73  1  0.80208622  0.55272101  0.77165614  1  1.458445  0  0.3386  0.438942  0  4.085892  0
C  C74  1  0.24856851  0.00583425  0.76820104  1  1.017878  0  0.15786  0.181725  0  4.022553  0
C  C75  1  0.05402363  0.88765607  0.62750809  1  0.50335  0  0.12244  0.357248  0  4.015446  0
C  C76  1  0.15327536  0.90659158  0.52952637  1  -0.016175  0  -0.121814  -0.400087  0  3.9298  0
C  C77  1  0.24882018  0.94734311  0.52808814  1  1.189421  0  0.21005  0.44605  0  4.211382  0
C  C78  1  0.95679129  0.84177285  0.62577880  1  -0.0645  0  -0.237036  -0.447686  0  3.919161  0
C  C79  1  0.12611313  0.94732175  0.72843058  1  1.459131  0  0.337899  0.440781  0  4.082292  0
C  C80  1  0.01662910  0.73182898  0.00602191  1  0.963784  0  0.156896  0.178613  0  4.022706  0
C  C81  1  0.68156069  0.87243487  0.88768809  1  0.497919  0  0.12282  0.357256  0  4.015593  0
C  C82  1  0.68288469  0.97036240  0.90653875  1  0.000421  0  -0.121114  -0.399276  0  3.930965  0
C  C83  1  0.77675630  0.97179826  0.94750987  1  1.164931  0  0.211284  0.446619  0  4.210431  0
C  C84  1  0.58249480  0.87422042  0.84190894  1  -0.046899  0  -0.237654  -0.447029  0  3.918822  0
C  C85  1  0.85444624  0.77155456  0.94751119  1  1.457535  0  0.335925  0.43373  0  4.089416  0
C  C86  1  0.75455215  0.76823180  0.49404423  1  0.997085  0  0.159272  0.182421  0  4.021821  0
C  C87  1  0.44156839  0.62762305  0.61254241  1  0.486005  0  0.124139  0.361252  0  4.012395  0
C  C88  1  0.55966287  0.52968601  0.59379260  1  0.007079  0  -0.121023  -0.400418  0  3.930883  0
C  C89  1  0.69595626  0.52825058  0.55304505  1  1.166903  0  0.209302  0.443767  0  4.215161  0
C  C90  1  0.29839399  0.62593421  0.65831246  1  -0.025708  0  -0.238181  -0.449644  0  3.920413  0
C  C91  1  0.57346105  0.72848667  0.55281611  1  1.48998  0  0.33768  0.439277  0  4.081807  0
N  N92  1  0.03196814  0.50477737  0.15934844  1  -0.809505  0  -0.253755  -0.256128  0  3.357559  0
N  N93  1  0.07112836  0.47334471  0.31449326  1  -1.195265  0  -0.355512  -0.416886  0  3.399549  0
N  N94  1  0.32508933  0.40741840  0.22820259  1  -1.213378  0  -0.339953  -0.447819  0  3.246107  0
N  N95  1  0.17185457  0.46859493  0.13427862  1  -0.824951  0  -0.133656  -0.038385  0  3.755607  0
N  N96  1  0.69624656  0.99527177  0.34062204  1  -0.731237  0  -0.254016  -0.256341  0  3.360571  0
N  N97  1  0.85930643  0.02666586  0.18545018  1  -1.190647  0  -0.357288  -0.420606  0  3.402931  0
N  N98  1  0.96109432  0.09250707  0.27169983  1  -1.210986  0  -0.337289  -0.445438  0  3.245533  0
N  N99  1  0.77497086  0.03133991  0.36566657  1  -0.812322  0  -0.133741  -0.039729  0  3.760234  0
N  N100  1  0.03706201  0.15939199  0.99506942  1  -0.819373  0  -0.254137  -0.257687  0  3.356471  0
N  N101  1  0.04487681  0.31453167  0.02645932  1  -1.177261  0  -0.354776  -0.414693  0  3.401187  0
N  N102  1  0.23285136  0.22831915  0.09236421  1  -1.209447  0  -0.335786  -0.441948  0  3.245099  0
N  N103  1  0.14080272  0.13439319  0.03114390  1  -0.812816  0  -0.133491  -0.035819  0  3.754731  0
N  N104  1  0.19146534  0.34056027  0.50467742  1  -0.721059  0  -0.253499  -0.256743  0  3.358343  0
N  N105  1  0.38583249  0.18544281  0.47343084  1  -1.178747  0  -0.356192  -0.419107  0  3.40358  0
N  N106  1  0.55361033  0.27162097  0.40737818  1  -1.22534  0  -0.339885  -0.447852  0  3.245393  0
N  N107  1  0.30635589  0.36556608  0.46843606  1  -0.837711  0  -0.133273  -0.037643  0  3.752922  0
N  N108  1  0.96803633  0.49521410  0.84064740  1  -0.809607  0  -0.253769  -0.256198  0  3.357624  0
N  N109  1  0.92887496  0.52664757  0.68550331  1  -1.195487  0  -0.355505  -0.416892  0  3.399666  0
N  N110  1  0.67491636  0.59257552  0.77179464  1  -1.213347  0  -0.339962  -0.447808  0  3.246207  0
N  N111  1  0.82815179  0.53139572  0.86571573  1  -0.824951  0  -0.133651  -0.038246  0  3.755632  0
N  N112  1  0.30374998  0.00472788  0.65937859  1  -0.731222  0  -0.254013  -0.256344  0  3.360626  0
N  N113  1  0.14068707  0.97334035  0.81455407  1  -1.190666  0  -0.357279  -0.420576  0  3.40291  0
N  N114  1  0.03889744  0.90749422  0.72830669  1  -1.211562  0  -0.33734  -0.445537  0  3.24549  0
N  N115  1  0.22502143  0.96866056  0.63433885  1  -0.812317  0  -0.133722  -0.039796  0  3.760234  0
N  N116  1  0.96294659  0.84061258  0.00493016  1  -0.696328  0  -0.254078  -0.257599  0  3.356198  0
N  N117  1  0.95513130  0.68547290  0.97353882  1  -1.177103  0  -0.354804  -0.414916  0  3.4011  0
N  N118  1  0.76715489  0.77168542  0.90763868  1  -1.209505  0  -0.335732  -0.441983  0  3.245245  0
N  N119  1  0.85920292  0.86561137  0.96885864  1  -0.812478  0  -0.133574  -0.03592  0  3.754443  0
N  N120  1  0.80853396  0.65943857  0.49531989  1  -0.721313  0  -0.253491  -0.256623  0  3.358314  0
N  N121  1  0.61416609  0.81455520  0.52657048  1  -1.178755  0  -0.356147  -0.419014  0  3.403566  0
N  N122  1  0.44638675  0.72837787  0.59262136  1  -1.225135  0  -0.339881  -0.447904  0  3.245312  0
N  N123  1  0.69364254  0.63443275  0.53156308  1  -0.837164  0  -0.133327  -0.037787  0  3.752825  0
O  O124  1  0.24096517  0.46633122  0.94717488  1  -1.155656  0  -0.328236  -0.514964  0  2.187461  0
O  O125  1  0.65442145  0.03363644  0.55277776  1  -1.15931  0  -0.328383  -0.516106  0  2.18694  0
O  O126  1  0.20747814  0.94736832  0.03336778  1  -1.157987  0  -0.330218  -0.51762  0  2.185369  0
O  O127  1  0.18835285  0.55261741  0.46590505  1  -1.160959  0  -0.328446  -0.514295  0  2.186863  0
O  O128  1  0.75904173  0.53365861  0.05281838  1  -1.155832  0  -0.32827  -0.515112  0  2.187308  0
O  O129  1  0.34556824  0.96636976  0.44722548  1  -1.159281  0  -0.328254  -0.515927  0  2.186991  0
O  O130  1  0.79252075  0.05264115  0.96663233  1  -1.158214  0  -0.330259  -0.517614  0  2.185327  0
O  O131  1  0.81164576  0.44738224  0.53410023  1  -1.160936  0  -0.328512  -0.514341  0  2.186696  0
