# generated using pymatgen
data_UH18C32(N2O3)2
_symmetry_space_group_name_H-M   'P 1'
_cell_length_a   9.03065588
_cell_length_b   9.49871544
_cell_length_c   17.35860000
_cell_angle_alpha   104.55147279
_cell_angle_beta   91.59005601
_cell_angle_gamma   107.80140616
_symmetry_Int_Tables_number   1
_chemical_formula_structural   UH18C32(N2O3)2
_chemical_formula_sum   'U2 H36 C64 N8 O12'
_cell_volume   1363.38508527
_cell_formula_units_Z   2
loop_
 _symmetry_equiv_pos_site_id
 _symmetry_equiv_pos_as_xyz
  1  'x, y, z'
loop_
 _atom_site_type_symbol
 _atom_site_label
 _atom_site_symmetry_multiplicity
 _atom_site_fract_x
 _atom_site_fract_y
 _atom_site_fract_z
 _atom_site_occupancy
 _atom_site_hle17_bader_spin_density
 _atom_site_hle17_ddec_charge
 _atom_site_hle17_ddec_spin_density
 _atom_site_hle17_ddec_sum_bond_order
 _atom_site_hle17_magmom
 _atom_site_hse06_10hf_bader_spin_density
 _atom_site_hse06_10hf_ddec_charge
 _atom_site_hse06_10hf_ddec_spin_density
 _atom_site_hse06_10hf_ddec_sum_bond_order
 _atom_site_hse06_10hf_magmom
 _atom_site_hse06_bader_spin_density
 _atom_site_hse06_ddec_charge
 _atom_site_hse06_ddec_spin_density
 _atom_site_hse06_ddec_sum_bond_order
 _atom_site_hse06_magmom
 _atom_site_pbe_bader_charge
 _atom_site_pbe_bader_spin_density
 _atom_site_pbe_cm5_charge
 _atom_site_pbe_ddec_charge
 _atom_site_pbe_ddec_spin_density
 _atom_site_pbe_ddec_sum_bond_order
 _atom_site_pbe_magmom
U  U0  1  0.50582263  0.15907888  0.25949504  1  0  2.302219  0  4.192888  0  0  2.333557  0  4.865749  0  0  2.442301  0  4.834666  0  2.84391  0  2.152401  2.259533  0  4.886009  0
U  U1  1  0.49417794  0.84092202  0.74050411  1  0  2.302244  0  4.192825  0  0  2.333638  0  4.865657  0  0  2.442402  0  4.834551  0  2.844019  0  2.152445  2.259598  0  4.885946  0
H  H2  1  0.85744063  0.53106019  0.56217679  1  0  0.105505  0  0.940629  0  0  0.120252  0  0.991694  0  0  0.123247  0  0.991228  0  0.103116  0  0.111386  0.117983  0  0.992412  0
H  H3  1  0.14255146  0.46894186  0.43782297  1  0  0.105516  0  0.940595  0  0  0.120239  0  0.991697  0  0  0.123233  0  0.991233  0  0.10305  0  0.111392  0.117983  0  0.992402  0
H  H4  1  0.22591149  0.52670304  0.14424392  1  0  0.10703  0  0.988117  0  0  0.11105  0  1.057474  0  0  0.11429  0  1.056844  0  0.120585  0  0.105096  0.108743  0  1.058217  0
H  H5  1  0.77409125  0.47329096  0.85574971  1  0  0.106898  0  0.988217  0  0  0.110996  0  1.057491  0  0  0.114236  0  1.056861  0  0.120696  0  0.105089  0.108688  0  1.058238  0
H  H6  1  0.02147115  0.10758044  0.13877711  1  0  0.110568  0  0.967024  0  0  0.121609  0  1.024128  0  0  0.125735  0  1.02151  0  0.114033  0  0.104235  0.118803  0  1.026144  0
H  H7  1  0.97852978  0.89241816  0.86122058  1  0  0.110582  0  0.966967  0  0  0.121628  0  1.024073  0  0  0.125755  0  1.021458  0  0.113936  0  0.10425  0.11882  0  1.026092  0
H  H8  1  0.23077935  0.68200979  0.07318098  1  0  0.124578  0  0.95845  0  0  0.130634  0  1.023645  0  0  0.135813  0  1.019042  0  0.148301  0  0.113597  0.126476  0  1.027996  0
H  H9  1  0.76922379  0.31798881  0.92682020  1  0  0.124519  0  0.958488  0  0  0.130635  0  1.023637  0  0  0.135815  0  1.019031  0  0.14829  0  0.113591  0.126477  0  1.02799  0
H  H10  1  0.29472299  0.75831327  0.26544045  1  0  0.111583  0  0.928405  0  0  0.122004  0  0.986622  0  0  0.124854  0  0.984421  0  0.123422  0  0.121342  0.120077  0  0.988101  0
H  H11  1  0.70527459  0.24168188  0.73455383  1  0  0.111547  0  0.928442  0  0  0.121993  0  0.986641  0  0  0.124842  0  0.984441  0  0.123481  0  0.121317  0.120066  0  0.988118  0
H  H12  1  0.75988504  0.75752942  0.57772839  1  0  0.113127  0  0.925834  0  0  0.127269  0  0.98011  0  0  0.130035  0  0.977881  0  0.112082  0  0.120095  0.125308  0  0.981642  0
H  H13  1  0.24010778  0.24247148  0.42227065  1  0  0.113139  0  0.925833  0  0  0.127256  0  0.980135  0  0  0.130021  0  0.977908  0  0.112063  0  0.120116  0.125294  0  0.981669  0
H  H14  1  0.59740714  0.88211893  0.52000108  1  0  0.113083  0  0.951158  0  0  0.127563  0  1.00527  0  0  0.130364  0  1.003884  0  0.110429  0  0.109705  0.125443  0  1.006561  0
H  H15  1  0.40258641  0.11788082  0.47999493  1  0  0.113055  0  0.95122  0  0  0.127535  0  1.005326  0  0  0.130353  0  1.00392  0  0.110367  0  0.109692  0.125417  0  1.006612  0
H  H16  1  0.76319338  0.12730885  0.10182577  1  0  0.10102  0  0.967625  0  0  0.114169  0  1.024969  0  0  0.117202  0  1.023063  0  0.088186  0  0.106882  0.112906  0  1.024202  0
H  H17  1  0.23680752  0.87268630  0.89817317  1  0  0.100974  0  0.967638  0  0  0.114126  0  1.02498  0  0  0.117159  0  1.023073  0  0.088142  0  0.106854  0.112863  0  1.024215  0
H  H18  1  0.91304899  0.41424826  0.21251825  1  0  0.095998  0  0.934844  0  0  0.111181  0  0.985872  0  0  0.113752  0  0.984893  0  0.068466  0  0.109101  0.109111  0  0.986828  0
H  H19  1  0.08695161  0.58575609  0.78748541  1  0  0.095932  0  0.934896  0  0  0.111135  0  0.985907  0  0  0.113706  0  0.984926  0  0.068183  0  0.10908  0.10906  0  0.986862  0
H  H20  1  0.88184213  0.14166064  0.44340359  1  0  0.113685  0  0.966864  0  0  0.117921  0  1.038802  0  0  0.122997  0  1.034274  0  0.135756  0  0.107551  0.114259  0  1.042198  0
H  H21  1  0.11816328  0.85834485  0.55660029  1  0  0.113692  0  0.966878  0  0  0.117922  0  1.038817  0  0  0.122996  0  1.034293  0  0.135836  0  0.107559  0.11426  0  1.042213  0
H  H22  1  0.42616975  0.88351882  0.40430405  1  0  0.110804  0  0.947449  0  0  0.124133  0  1.00364  0  0  0.126924  0  1.002298  0  0.09844  0  0.111896  0.121849  0  1.0052  0
H  H23  1  0.57382228  0.11647633  0.59569073  1  0  0.110722  0  0.947542  0  0  0.124065  0  1.003722  0  0  0.126855  0  1.002378  0  0.098573  0  0.111896  0.121782  0  1.005277  0
H  H24  1  0.76537705  0.31369602  0.43772149  1  0  0.084134  0  0.965887  0  0  0.093402  0  1.027998  0  0  0.096463  0  1.024126  0  0.139541  0  0.121446  0.090971  0  1.031096  0
H  H25  1  0.23461909  0.68630487  0.56227933  1  0  0.084119  0  0.965905  0  0  0.093387  0  1.028022  0  0  0.096449  0  1.02415  0  0.139509  0  0.121411  0.090947  0  1.031131  0
H  H26  1  0.03398257  0.57514424  0.35018063  1  0  0.097086  0  0.952769  0  0  0.106621  0  1.016547  0  0  0.109908  0  1.014756  0  0.066124  0  0.10169  0.104297  0  1.017811  0
H  H27  1  0.96602100  0.42486240  0.64982282  1  0  0.09713  0  0.952729  0  0  0.106631  0  1.016545  0  0  0.109917  0  1.014756  0  0.066156  0  0.101696  0.104307  0  1.017806  0
H  H28  1  0.30661694  0.30385538  0.15137448  1  0  0.079722  0  0.968951  0  0  0.085695  0  1.037512  0  0  0.088031  0  1.035196  0  0.137434  0  0.122716  0.083952  0  1.039116  0
H  H29  1  0.69338396  0.69613977  0.84862273  1  0  0.079645  0  0.968991  0  0  0.085641  0  1.03753  0  0  0.087949  0  1.035247  0  0.137514  0  0.122671  0.083906  0  1.039122  0
H  H30  1  0.59613850  0.64569987  0.97488952  1  0  0.105386  0  0.940155  0  0  0.116609  0  0.99784  0  0  0.120024  0  0.99599  0  0.071357  0  0.108756  0.114216  0  0.99884  0
H  H31  1  0.40386277  0.35429643  0.02511074  1  0  0.105426  0  0.940178  0  0  0.116657  0  0.997848  0  0  0.120073  0  0.995998  0  0.071388  0  0.108753  0.114264  0  0.998849  0
H  H32  1  0.54847139  0.89747525  0.02313590  1  0  0.099932  0  0.931956  0  0  0.113047  0  0.985215  0  0  0.115958  0  0.983675  0  0.078763  0  0.111454  0.11117  0  0.986221  0
H  H33  1  0.45152840  0.10251990  0.97686476  1  0  0.099875  0  0.93195  0  0  0.112979  0  0.985226  0  0  0.115889  0  0.983688  0  0.078749  0  0.111429  0.111103  0  0.986232  0
H  H34  1  0.74522324  0.50269335  0.13246998  1  0  0.097307  0  0.936514  0  0  0.110885  0  0.98945  0  0  0.113436  0  0.98861  0  0.130211  0  0.105204  0.10877  0  0.990549  0
H  H35  1  0.25477366  0.49730985  0.86753462  1  0  0.097283  0  0.936511  0  0  0.110941  0  0.989368  0  0  0.113494  0  0.988522  0  0.130097  0  0.105205  0.108825  0  0.990468  0
H  H36  1  0.70193167  0.75243555  0.18646879  1  0  0.11208  0  0.967585  0  0  0.122533  0  1.027106  0  0  0.125724  0  1.026329  0  0.113656  0  0.105749  0.119959  0  1.028059  0
H  H37  1  0.29806931  0.24756995  0.81353561  1  0  0.11203  0  0.967603  0  0  0.122531  0  1.027067  0  0  0.125724  0  1.026287  0  0.113593  0  0.105732  0.11996  0  1.028016  0
C  C38  1  0.95953480  0.86628448  0.07638257  1  0  0.01557  0  3.738478  0  0  0.025106  0  3.965727  0  0  0.023911  0  3.991292  0  0.011429  0  0.002353  0.025306  0  3.950863  0
C  C39  1  0.04046761  0.13371526  0.92361530  1  0  0.015668  0  3.738438  0  0  0.025164  0  3.965693  0  0  0.023967  0  3.99126  0  0.01109  0  0.002437  0.025363  0  3.950831  0
C  C40  1  0.77624525  0.53558169  0.51597402  1  0  -0.118233  0  3.733183  0  0  -0.132501  0  3.9899  0  0  -0.139989  0  4.009862  0  0.008324  0  -0.081134  -0.127812  0  3.976354  0
C  C41  1  0.22374979  0.46441921  0.48402621  1  0  -0.118222  0  3.733186  0  0  -0.132467  0  3.98991  0  0  -0.139953  0  4.009872  0  0.00862  0  -0.081137  -0.127787  0  3.976357  0
C  C42  1  0.29185168  0.53233825  0.19900307  1  0  -0.11838  0  3.713081  0  0  -0.12679  0  3.957429  0  0  -0.135125  0  3.977317  0  -0.020593  0  -0.078736  -0.121565  0  3.944408  0
C  C43  1  0.70814773  0.46765575  0.80099224  1  0  -0.118218  0  3.713321  0  0  -0.126693  0  3.957651  0  0  -0.135025  0  3.977532  0  -0.02034  0  -0.078656  -0.121468  0  3.944632  0
C  C44  1  0.92942729  0.00782355  0.10201116  1  0  -0.105728  0  3.719635  0  0  -0.127755  0  3.974247  0  0  -0.13073  0  3.995221  0  -0.063253  0  -0.090002  -0.126944  0  3.960977  0
C  C45  1  0.07057474  0.99217505  0.89798770  1  0  -0.105768  0  3.71963  0  0  -0.127819  0  3.974283  0  0  -0.130798  0  3.995261  0  -0.06278  0  -0.090022  -0.127009  0  3.961012  0
C  C46  1  0.11999658  0.70026245  0.06197273  1  0  -0.128967  0  3.675031  0  0  -0.161434  0  3.922739  0  0  -0.163644  0  3.93962  0  0.009214  0  -0.073714  -0.162928  0  3.914465  0
C  C47  1  0.88000583  0.29973730  0.93802802  1  0  -0.128915  0  3.675033  0  0  -0.161466  0  3.922783  0  0  -0.163677  0  3.939665  0  0.009287  0  -0.073743  -0.16296  0  3.914507  0
C  C48  1  0.99212861  0.57742453  0.01548244  1  0  0.179813  0  3.784923  0  0  0.179323  0  4.037053  0  0  0.184773  0  4.055404  0  0.498696  0  0.122756  0.174925  0  4.025241  0
C  C49  1  0.00787415  0.42257292  0.98451857  1  0  0.179827  0  3.78489  0  0  0.179326  0  4.037059  0  0  0.184777  0  4.055406  0  0.53425  0  0.122717  0.174928  0  4.025247  0
C  C50  1  0.33014069  0.65841156  0.26513713  1  0  -0.0097  0  3.652352  0  0  -0.034441  0  3.898886  0  0  -0.029107  0  3.913826  0  -0.049599  0  -0.046205  -0.037722  0  3.888602  0
C  C51  1  0.66985872  0.34158244  0.73485817  1  0  -0.009687  0  3.652547  0  0  -0.034477  0  3.899124  0  0  -0.029145  0  3.914065  0  -0.049464  0  -0.046232  -0.037759  0  3.888838  0
C  C52  1  0.72334483  0.65987352  0.52445238  1  0  -0.023904  0  3.658258  0  0  -0.053589  0  3.913795  0  0  -0.049455  0  3.929873  0  -0.051584  0  -0.052576  -0.055836  0  3.902422  0
C  C53  1  0.27664872  0.34012623  0.47554593  1  0  -0.023947  0  3.658191  0  0  -0.053597  0  3.913703  0  0  -0.049464  0  3.92978  0  -0.051757  0  -0.052606  -0.055846  0  3.902339  0
C  C54  1  0.10400170  0.84260120  0.09417120  1  0  -0.047904  0  3.70477  0  0  -0.02979  0  3.931279  0  0  -0.034296  0  3.950995  0  -0.090829  0  0.00546  -0.028351  0  3.920745  0
C  C55  1  0.89599923  0.15739740  0.90582822  1  0  -0.047975  0  3.704772  0  0  -0.029852  0  3.931303  0  0  -0.034356  0  3.95102  0  -0.090811  0  0.005417  -0.028412  0  3.920769  0
C  C56  1  0.42064716  0.65908737  0.33287833  1  0  0.027881  0  3.779648  0  0  0.041806  0  4.013327  0  0  0.038935  0  4.036795  0  -0.060777  0  0.00304  0.043474  0  3.997484  0
C  C57  1  0.57935155  0.34091123  0.66711875  1  0  0.027952  0  3.779581  0  0  0.041908  0  4.013233  0  0  0.039039  0  4.036699  0  -0.060829  0  0.00311  0.043575  0  3.997394  0
C  C58  1  0.56185904  0.78642380  0.46590116  1  0  -0.099116  0  3.736585  0  0  -0.122513  0  3.991189  0  0  -0.126182  0  4.015607  0  -0.051412  0  -0.080579  -0.119795  0  3.97452  0
C  C59  1  0.43813524  0.21357479  0.53409528  1  0  -0.099154  0  3.736729  0  0  -0.122532  0  3.991323  0  0  -0.126216  0  4.015741  0  -0.04903  0  -0.080604  -0.119813  0  3.974652  0
C  C60  1  0.78530649  0.01826875  0.08132652  1  0  -0.054077  0  3.745239  0  0  -0.076989  0  4.009053  0  0  -0.079409  0  4.031098  0  0.026173  0  -0.079104  -0.071736  0  3.989707  0
C  C61  1  0.21469478  0.98172755  0.91867259  1  0  -0.053998  0  3.745118  0  0  -0.076895  0  4.008897  0  0  -0.079311  0  4.030936  0  0.026106  0  -0.079045  -0.071642  0  3.98955  0
C  C62  1  0.83678323  0.73432196  0.02760936  1  0  0.192967  0  3.794337  0  0  0.193678  0  4.042961  0  0  0.197689  0  4.065644  0  0.471089  0  0.111326  0.19031  0  4.026992  0
C  C63  1  0.16321805  0.26567434  0.97239147  1  0  0.193091  0  3.794393  0  0  0.193906  0  4.042888  0  0  0.197917  0  4.065577  0  0.471206  0  0.111369  0.190538  0  4.026919  0
C  C64  1  0.89549933  0.52457907  0.23725424  1  0  -0.045451  0  3.760484  0  0  -0.06482  0  4.020485  0  0  -0.06557  0  4.04188  0  -0.00217  0  -0.078295  -0.063698  0  4.005212  0
C  C65  1  0.10450165  0.47542643  0.76274901  1  0  -0.045388  0  3.760556  0  0  -0.064768  0  4.020575  0  0  -0.065518  0  4.041972  0  -0.002304  0  -0.078289  -0.063638  0  4.005293  0
C  C66  1  0.97216795  0.96243820  0.45695711  1  0  0.178285  0  3.792732  0  0  0.179121  0  4.043193  0  0  0.184568  0  4.061718  0  0.531131  0  0.121138  0.17552  0  4.03026  0
C  C67  1  0.02783822  0.03756960  0.54304768  1  0  0.178421  0  3.792673  0  0  0.179245  0  4.043136  0  0  0.184695  0  4.061659  0  0.565693  0  0.12124  0.175643  0  4.030204  0
C  C68  1  0.89373870  0.03121490  0.41341194  1  0  -0.136927  0  3.693256  0  0  -0.171516  0  3.944492  0  0  -0.174664  0  3.961865  0  -0.069402  0  -0.076198  -0.169371  0  3.932839  0
C  C69  1  0.10626522  0.96878944  0.58659177  1  0  -0.136943  0  3.69325  0  0  -0.171532  0  3.944477  0  0  -0.174682  0  3.96185  0  -0.069439  0  -0.0762  -0.169392  0  3.932821  0
C  C70  1  0.46702426  0.78627554  0.40322514  1  0  -0.097206  0  3.730797  0  0  -0.120124  0  3.986334  0  0  -0.123376  0  4.00977  0  0.020456  0  -0.07966  -0.117854  0  3.970496  0
C  C71  1  0.53297113  0.21372306  0.59677074  1  0  -0.097172  0  3.730888  0  0  -0.120118  0  3.986411  0  0  -0.123371  0  4.009852  0  0.020237  0  -0.079734  -0.117847  0  3.970574  0
C  C72  1  0.72433474  0.41236449  0.44632889  1  0  0.152731  0  3.699375  0  0  0.125326  0  3.962925  0  0  0.136018  0  3.977562  0  0.48291  0  0.062299  0.11854  0  3.952774  0
C  C73  1  0.27566178  0.58763756  0.55367036  1  0  0.152659  0  3.699269  0  0  0.125242  0  3.962838  0  0  0.135932  0  3.977474  0  0.482849  0  0.062287  0.118462  0  3.952691  0
C  C74  1  0.93662109  0.75426415  0.34684310  1  0  0.193997  0  3.789875  0  0  0.196847  0  4.034184  0  0  0.200999  0  4.056298  0  0.508057  0  0.107657  0.193954  0  4.019191  0
C  C75  1  0.06338432  0.24574135  0.65316021  1  0  0.194025  0  3.790001  0  0  0.196889  0  4.034267  0  0  0.201043  0  4.056379  0  0.508216  0  0.107691  0.193994  0  4.019276  0
C  C76  1  0.96232357  0.61242420  0.31321439  1  0  -0.140313  0  3.735657  0  0  -0.162994  0  3.992711  0  0  -0.167394  0  4.014008  0  -0.087599  0  -0.088034  -0.15996  0  3.977769  0
C  C77  1  0.03767963  0.38758129  0.68678889  1  0  -0.140316  0  3.735648  0  0  -0.162972  0  3.992696  0  0  -0.167375  0  4.013995  0  -0.087576  0  -0.08802  -0.159939  0  3.97776  0
C  C78  1  0.33904798  0.40609369  0.20196632  1  0  0.163128  0  3.686802  0  0  0.137775  0  3.940393  0  0  0.148983  0  3.954916  0  0.506875  0  0.067542  0.130327  0  3.930667  0
C  C79  1  0.66095403  0.59390145  0.79802976  1  0  0.163143  0  3.686828  0  0  0.137782  0  3.940413  0  0  0.149011  0  3.954943  0  0.506529  0  0.067576  0.130332  0  3.930679  0
C  C80  1  0.61933493  0.66044704  0.46240507  1  0  0.030362  0  3.768832  0  0  0.045695  0  4.001124  0  0  0.042746  0  4.025638  0  -0.002681  0  0.001401  0.047464  0  3.98456  0
C  C81  1  0.38066156  0.33955156  0.53759256  1  0  0.030481  0  3.768743  0  0  0.045794  0  4.001009  0  0  0.042843  0  4.025525  0  -0.005103  0  0.00147  0.047562  0  3.984448  0
C  C82  1  0.46882912  0.52859141  0.32935262  1  0  0.13549  0  3.763242  0  0  0.133607  0  4.007042  0  0  0.139114  0  4.028579  0  0.530878  0  0.125175  0.129917  0  3.9923  0
C  C83  1  0.53116958  0.47140719  0.67064446  1  0  0.135551  0  3.763369  0  0  0.133642  0  4.007171  0  0  0.139148  0  4.02871  0  0.531251  0  0.125254  0.129952  0  3.99243  0
C  C84  1  0.24122685  0.95968323  0.14868933  1  0  0.627814  0  3.866443  0  0  0.589458  0  4.163419  0  0  0.62574  0  4.156554  0  1.523599  0  0.208524  0.565031  0  4.167732  0
C  C85  1  0.75877518  0.04031537  0.85130837  1  0  0.627623  0  3.866545  0  0  0.589289  0  4.163498  0  0  0.625571  0  4.15664  0  1.523701  0  0.208411  0.564862  0  4.167805  0
C  C86  1  0.68844507  0.74850596  0.00947424  1  0  -0.149401  0  3.724434  0  0  -0.16901  0  3.975787  0  0  -0.173531  0  3.996163  0  -0.07326  0  -0.084048  -0.163318  0  3.959371  0
C  C87  1  0.31155659  0.25149149  0.99052503  1  0  -0.14967  0  3.724601  0  0  -0.169323  0  3.975947  0  0  -0.173846  0  3.996324  0  -0.073351  0  -0.084105  -0.16363  0  3.959532  0
C  C88  1  0.66318898  0.88776103  0.03594240  1  0  -0.030027  0  3.736159  0  0  -0.047696  0  3.993449  0  0  -0.047563  0  4.013322  0  -0.017345  0  -0.074629  -0.048019  0  3.977808  0
C  C89  1  0.33681230  0.11223526  0.96405786  1  0  -0.02982  0  3.735973  0  0  -0.04748  0  3.993249  0  0  -0.047344  0  4.01312  0  -0.017383  0  -0.074579  -0.047804  0  3.977607  0
C  C90  1  0.80039128  0.57521435  0.19173392  1  0  -0.043995  0  3.733978  0  0  -0.062636  0  3.994793  0  0  -0.065284  0  4.017325  0  -0.039193  0  -0.081058  -0.06079  0  3.979538  0
C  C91  1  0.19960859  0.42479114  0.80827104  1  0  -0.04397  0  3.733998  0  0  -0.062706  0  3.994869  0  0  -0.065354  0  4.017403  0  -0.039008  0  -0.081012  -0.060859  0  3.979612  0
C  C92  1  0.73099941  0.02610379  0.29726503  1  0  0.629432  0  3.874258  0  0  0.589604  0  4.173693  0  0  0.625681  0  4.166551  0  1.517792  0  0.206872  0.565402  0  4.177043  0
C  C93  1  0.26899822  0.97389826  0.70273942  1  0  0.629493  0  3.874135  0  0  0.589694  0  4.17352  0  0  0.625771  0  4.166378  0  1.517958  0  0.206953  0.565488  0  4.176869  0
C  C94  1  0.84361239  0.80810379  0.29946338  1  0  0.017371  0  3.72048  0  0  0.027251  0  3.945459  0  0  0.026166  0  3.969319  0  -0.002812  0  0.002168  0.028015  0  3.929349  0
C  C95  1  0.15638932  0.19190056  0.70054029  1  0  0.017485  0  3.7205  0  0  0.027364  0  3.945457  0  0  0.026278  0  3.969315  0  -0.002757  0  0.002246  0.028122  0  3.929346  0
C  C96  1  0.82773403  0.95473762  0.33571054  1  0  -0.043934  0  3.708053  0  0  -0.024821  0  3.933593  0  0  -0.027944  0  3.951649  0  -0.009954  0  0.004203  -0.022892  0  3.921332  0
C  C97  1  0.17226767  0.04526672  0.66429256  1  0  -0.044077  0  3.70817  0  0  -0.024938  0  3.933661  0  0  -0.028058  0  3.951715  0  -0.010125  0  0.004121  -0.022993  0  3.921377  0
C  C98  1  0.77571849  0.71431312  0.22161499  1  0  -0.109641  0  3.71721  0  0  -0.132863  0  3.972518  0  0  -0.135686  0  3.994727  0  -0.078526  0  -0.089591  -0.130905  0  3.957723  0
C  C99  1  0.22428249  0.28569238  0.77838884  1  0  -0.109684  0  3.717228  0  0  -0.132946  0  3.972583  0  0  -0.13577  0  3.994793  0  -0.078464  0  -0.089689  -0.130987  0  3.95779  0
C  C100  1  0.57289932  0.53065792  0.39406292  1  0  0.131933  0  3.762938  0  0  0.130215  0  4.007099  0  0  0.135625  0  4.028525  0  0.436411  0  0.124977  0.126589  0  3.992546  0
C  C101  1  0.42709755  0.46934183  0.60593430  1  0  0.131754  0  3.76303  0  0  0.13006  0  4.007192  0  0  0.135477  0  4.028605  0  0.436452  0  0.124905  0.126438  0  3.992627  0
N  N102  1  0.99724175  0.83056187  0.42411309  1  0  -0.363831  0  3.041371  0  0  -0.340385  0  3.306214  0  0  -0.349932  0  3.320298  0  -1.199921  0  -0.307688  -0.333511  0  3.296289  0
N  N103  1  0.00276033  0.16944362  0.57589075  1  0  -0.36385  0  3.041509  0  0  -0.34041  0  3.306356  0  0  -0.349959  0  3.320438  0  -1.199813  0  -0.307706  -0.333534  0  3.296429  0
N  N104  1  0.85452168  0.59389801  0.99897435  1  0  -0.371031  0  3.059016  0  0  -0.344518  0  3.324812  0  0  -0.354473  0  3.338306  0  -1.182889  0  -0.304295  -0.334731  0  3.313587  0
N  N105  1  0.14548070  0.40609829  0.00102477  1  0  -0.37112  0  3.059058  0  0  -0.344617  0  3.324811  0  0  -0.354573  0  3.338304  0  -1.182938  0  -0.304318  -0.334831  0  3.313587  0
N  N106  1  0.42290005  0.40198021  0.26541239  1  0  -0.3972  0  3.248095  0  0  -0.369938  0  3.535289  0  0  -0.393198  0  3.559958  0  -1.255126  0  -0.360651  -0.353814  0  3.517928  0
N  N107  1  0.57710012  0.59801609  0.73458440  1  0  -0.39721  0  3.248149  0  0  -0.36996  0  3.535353  0  0  -0.393219  0  3.560013  0  -1.255549  0  -0.360723  -0.353835  0  3.517993  0
N  N108  1  0.62586789  0.40864293  0.38649481  1  0  -0.390698  0  3.210957  0  0  -0.366137  0  3.503865  0  0  -0.388501  0  3.528802  0  -1.245567  0  -0.339405  -0.350762  0  3.486219  0
N  N109  1  0.37413120  0.59135682  0.61350416  1  0  -0.390509  0  3.210789  0  0  -0.365937  0  3.50367  0  0  -0.38831  0  3.52862  0  -1.245522  0  -0.339316  -0.350559  0  3.486017  0
O  O110  1  0.61205681  0.94418439  0.24679605  1  0  -0.582924  0  2.007987  0  0  -0.560322  0  2.26213  0  0  -0.591726  0  2.260852  0  -1.12232  0  -0.324207  -0.537803  0  2.261576  0
O  O111  1  0.38794079  0.05581421  0.75320965  1  0  -0.583017  0  2.007899  0  0  -0.56044  0  2.262045  0  0  -0.591852  0  2.260781  0  -1.12243  0  -0.324317  -0.537918  0  2.261494  0
O  O112  1  0.36685538  0.92584324  0.15565992  1  0  -0.60019  0  2.000997  0  0  -0.578394  0  2.25306  0  0  -0.610745  0  2.250832  0  -1.127537  0  -0.344655  -0.55601  0  2.253817  0
O  O113  1  0.63314703  0.07415651  0.84434025  1  0  -0.600055  0  2.000991  0  0  -0.57829  0  2.253075  0  0  -0.610638  0  2.250839  0  -1.127531  0  -0.34461  -0.555906  0  2.253832  0
O  O114  1  0.76036293  0.17250086  0.32002907  1  0  -0.630604  0  1.99103  0  0  -0.610256  0  2.241042  0  0  -0.643051  0  2.238268  0  -1.126774  0  -0.351742  -0.586933  0  2.241915  0
O  O115  1  0.23963469  0.82750118  0.67997423  1  0  -0.630542  0  1.991007  0  0  -0.610225  0  2.241015  0  0  -0.643019  0  2.23824  0  -1.126727  0  -0.351712  -0.586899  0  2.241889  0
O  O116  1  0.23700475  0.08962547  0.19085901  1  0  -0.616633  0  2.00779  0  0  -0.594987  0  2.255103  0  0  -0.626864  0  2.251761  0  -1.142857  0  -0.335145  -0.572839  0  2.256552  0
O  O117  1  0.76299766  0.91037428  0.80913656  1  0  -0.616541  0  2.007783  0  0  -0.594896  0  2.255079  0  0  -0.626773  0  2.251737  0  -1.142976  0  -0.335063  -0.572746  0  2.256526  0
O  O118  1  0.60436858  0.22714734  0.18023996  1  0  -0.688835  0  1.625437  0  0  -0.69336  0  1.924322  0  0  -0.715222  0  1.913912  0  -0.861405  0  -0.757905  -0.681029  0  1.932258  0
O  O119  1  0.39563307  0.77285011  0.81976046  1  0  -0.688885  0  1.62532  0  0  -0.693436  0  1.924202  0  0  -0.715306  0  1.913796  0  -0.861436  0  -0.757918  -0.6811  0  1.932141  0
O  O120  1  0.40225448  0.09040587  0.33797406  1  0  -0.716801  0  1.590862  0  0  -0.724391  0  1.887072  0  0  -0.745374  0  1.874779  0  -0.886506  0  -0.767963  -0.711704  0  1.89588  0
O  O121  1  0.59774134  0.90960078  0.66202523  1  0  -0.716816  0  1.590858  0  0  -0.724419  0  1.88707  0  0  -0.745403  0  1.874769  0  -0.886596  0  -0.768004  -0.711738  0  1.895901  0
