# generated using pymatgen
data_HgH14C11S(ClO)2
_symmetry_space_group_name_H-M   'P 1'
_cell_length_a   10.06335109
_cell_length_b   12.23454495
_cell_length_c   15.17139409
_cell_angle_alpha   110.05564654
_cell_angle_beta   99.36751175
_cell_angle_gamma   90.35924091
_symmetry_Int_Tables_number   1
_chemical_formula_structural   HgH14C11S(ClO)2
_chemical_formula_sum   'Hg4 H56 C44 S4 Cl8 O8'
_cell_volume   1727.35220385
_cell_formula_units_Z   4
loop_
 _symmetry_equiv_pos_site_id
 _symmetry_equiv_pos_as_xyz
  1  'x, y, z'
loop_
 _atom_site_type_symbol
 _atom_site_label
 _atom_site_symmetry_multiplicity
 _atom_site_fract_x
 _atom_site_fract_y
 _atom_site_fract_z
 _atom_site_occupancy
 _atom_site_pbe_bader_charge
 _atom_site_pbe_bader_spin_density
 _atom_site_pbe_cm5_charge
 _atom_site_pbe_ddec_charge
 _atom_site_pbe_ddec_spin_density
 _atom_site_pbe_ddec_sum_bond_order
 _atom_site_pbe_magmom
Hg  Hg0  1  0.06736181  0.54291019  0.40150457  1  0.707175  0  0.446474  0.534719  0  2.58938  0
Hg  Hg1  1  0.93263314  0.45709257  0.59849322  1  0.707182  0  0.446457  0.534703  0  2.589399  0
Hg  Hg2  1  0.57003234  0.87326936  0.40375717  1  0.709527  0  0.447253  0.540541  0  2.568967  0
Hg  Hg3  1  0.42997459  0.12673173  0.59624192  1  0.709587  0  0.447289  0.540563  0  2.568927  0
H  H4  1  0.16892242  0.76532411  0.45516620  1  0.178806  0  0.094687  0.160906  0  1.05069  0
H  H5  1  0.83107783  0.23467954  0.54483826  1  0.178751  0  0.094686  0.160897  0  1.050643  0
H  H6  1  0.17651622  0.67795883  0.29892726  1  0.113341  0  0.096683  0.103599  0  1.043816  0
H  H7  1  0.82348914  0.32204834  0.70107405  1  0.113366  0  0.096671  0.103593  0  1.043808  0
H  H8  1  0.19322719  0.63797413  0.13194822  1  0.06504  0  0.104731  0.120421  0  1.019743  0
H  H9  1  0.80678339  0.36203569  0.86805431  1  0.065113  0  0.104733  0.120409  0  1.01979  0
H  H10  1  0.80719292  0.78077710  0.08735244  1  0.067881  0  0.104953  0.116856  0  1.015295  0
H  H11  1  0.19280898  0.21922220  0.91264898  1  0.06786  0  0.10499  0.116948  0  1.015279  0
H  H12  1  0.78588998  0.81498054  0.25587934  1  0.123886  0  0.090183  0.096492  0  1.061788  0
H  H13  1  0.21411407  0.18502315  0.74411889  1  0.123862  0  0.0902  0.096485  0  1.061807  0
H  H14  1  0.07653053  0.61265938  0.88534308  1  0.114668  0  0.093331  0.112804  0  1.03342  0
H  H15  1  0.92347573  0.38734518  0.11465955  1  0.114657  0  0.093325  0.112757  0  1.033466  0
H  H16  1  0.11679095  0.54067479  0.97095790  1  0.046959  0  0.093943  0.091971  0  1.015474  0
H  H17  1  0.88320642  0.45933146  0.02904570  1  0.046963  0  0.093961  0.091979  0  1.015525  0
H  H18  1  0.19833602  0.68030244  0.99235748  1  0.059098  0  0.099  0.103815  0  1.008731  0
H  H19  1  0.80167309  0.31970127  0.00764189  1  0.059235  0  0.098959  0.103811  0  1.008688  0
H  H20  1  0.11773013  0.97536625  0.58310439  1  0.123323  0  0.09912  0.169078  0  1.010377  0
H  H21  1  0.88227480  0.02463307  0.41689798  1  0.123244  0  0.099149  0.169138  0  1.010349  0
H  H22  1  0.03189835  0.98092397  0.67987645  1  0.078613  0  0.110076  0.174165  0  0.96239  0
H  H23  1  0.96810389  0.01907882  0.32012861  1  0.078698  0  0.110091  0.174176  0  0.962437  0
H  H24  1  0.93392558  0.96721464  0.56639077  1  0.134542  0  0.096384  0.16907  0  1.026969  0
H  H25  1  0.06607984  0.03279166  0.43361359  1  0.134445  0  0.09637  0.169063  0  1.027027  0
H  H26  1  0.25868581  0.83110982  0.63335686  1  0.130913  0  0.092488  0.152235  0  1.04069  0
H  H27  1  0.74132031  0.16889300  0.36664461  1  0.131018  0  0.092493  0.152263  0  1.040732  0
H  H28  1  0.19850284  0.68422069  0.62026061  1  0.146929  0  0.087161  0.165162  0  1.050919  0
H  H29  1  0.80150231  0.31578212  0.37974209  1  0.146876  0  0.087162  0.165125  0  1.050952  0
H  H30  1  0.16037736  0.80701827  0.71587383  1  0.09648  0  0.106342  0.171831  0  0.9673  0
H  H31  1  0.83963076  0.19298280  0.28413064  1  0.096683  0  0.106338  0.17181  0  0.967373  0
H  H32  1  0.66805885  0.69780508  0.45989133  1  0.172433  0  0.095055  0.156725  0  1.053841  0
H  H33  1  0.33193863  0.30219072  0.54010475  1  0.172415  0  0.095072  0.15674  0  1.053804  0
H  H34  1  0.69646952  0.63682201  0.31826730  1  0.106143  0  0.095576  0.105511  0  1.047558  0
H  H35  1  0.30352272  0.36317027  0.68172863  1  0.106205  0  0.095552  0.105487  0  1.047586  0
H  H36  1  0.73698068  0.51866307  0.15904102  1  0.08258  0  0.106834  0.123083  0  1.010124  0
H  H37  1  0.26301929  0.48132315  0.84095657  1  0.082478  0  0.106855  0.12308  0  1.010185  0
H  H38  1  0.32396044  0.37240847  0.08396555  1  0.073202  0  0.103893  0.117868  0  1.028339  0
H  H39  1  0.67603681  0.62758209  0.91603300  1  0.073245  0  0.103863  0.117836  0  1.028389  0
H  H40  1  0.28572812  0.48743013  0.24487832  1  0.137296  0  0.094224  0.097952  0  1.046927  0
H  H41  1  0.71426133  0.51256650  0.75511659  1  0.137533  0  0.094223  0.097956  0  1.046965  0
H  H42  1  0.50987365  0.26564048  0.88861201  1  0.102687  0  0.099971  0.118769  0  1.003415  0
H  H43  1  0.49012280  0.73435532  0.11138331  1  0.102735  0  0.099972  0.118738  0  1.003442  0
H  H44  1  0.43041255  0.23215288  0.97447798  1  0.074779  0  0.097772  0.098051  0  0.987578  0
H  H45  1  0.56957988  0.76784202  0.02551870  1  0.074663  0  0.097758  0.098024  0  0.987575  0
H  H46  1  0.37775961  0.35162666  0.93631891  1  0.072318  0  0.09514  0.093176  0  1.039147  0
H  H47  1  0.62223940  0.64837436  0.06368339  1  0.072332  0  0.095093  0.093113  0  1.0392  0
H  H48  1  0.75605504  0.78385912  0.63632451  1  0.122595  0  0.094522  0.15591  0  1.032179  0
H  H49  1  0.24394356  0.21613668  0.36367497  1  0.122614  0  0.094515  0.155928  0  1.032212  0
H  H50  1  0.69756560  0.91990898  0.62405714  1  0.15138  0  0.08787  0.167228  0  1.049095  0
H  H51  1  0.30243415  0.08008857  0.37594359  1  0.151362  0  0.087839  0.1672  0  1.049103  0
H  H52  1  0.65790812  0.87720185  0.71884776  1  0.112234  0  0.107094  0.172891  0  0.965281  0
H  H53  1  0.34208945  0.12279395  0.28115096  1  0.112628  0  0.107118  0.172907  0  0.965244  0
H  H54  1  0.42964234  0.58868551  0.56524239  1  0.151383  0  0.095434  0.168468  0  1.029848  0
H  H55  1  0.57035768  0.41131641  0.43475827  1  0.151357  0  0.095433  0.168495  0  1.029857  0
H  H56  1  0.61374972  0.59738961  0.58651445  1  0.136016  0  0.100528  0.170838  0  1.006392  0
H  H57  1  0.38624950  0.40261491  0.41348753  1  0.135922  0  0.100529  0.170865  0  1.006404  0
H  H58  1  0.52262692  0.67164102  0.68056852  1  0.11875  0  0.110286  0.174368  0  0.961959  0
H  H59  1  0.47737314  0.32836089  0.31943346  1  0.066229  0  0.110293  0.174367  0  0.961954  0
C  C60  1  0.06540623  0.73506219  0.45388653  1  -0.331863  0  -0.170124  -0.424171  0  3.811977  0
C  C61  1  0.93459490  0.26494059  0.54611580  1  -0.331771  0  -0.170158  -0.424202  0  3.812123  0
C  C62  1  0.95817223  0.76321013  0.38720883  1  0.886934  0  0.127988  0.396238  0  4.041851  0
C  C63  1  0.04182798  0.23679439  0.61279323  1  0.886859  0  0.127908  0.396193  0  4.042045  0
C  C64  1  0.97763297  0.74569664  0.28909302  1  -0.04284  0  -0.042423  -0.058344  0  4.008635  0
C  C65  1  0.02237078  0.25430006  0.71090851  1  -0.042898  0  -0.042403  -0.058305  0  4.008654  0
C  C66  1  0.09311226  0.69888851  0.25303181  1  -0.00582  0  -0.083729  -0.065736  0  3.978448  0
C  C67  1  0.90689053  0.30110993  0.74696814  1  -0.005826  0  -0.083801  -0.065818  0  3.978491  0
C  C68  1  0.10376623  0.67666429  0.15821413  1  -0.022322  0  -0.110338  -0.219964  0  3.971308  0
C  C69  1  0.89623205  0.32332627  0.84178517  1  -0.021863  0  -0.110287  -0.219914  0  3.97127  0
C  C70  1  0.99776533  0.70354143  0.09778477  1  0.445119  0  0.093017  0.271494  0  4.06205  0
C  C71  1  0.00223624  0.29645351  0.90221474  1  0.444428  0  0.093003  0.271565  0  4.062177  0
C  C72  1  0.88520577  0.75651626  0.13463748  1  0.009544  0  -0.108348  -0.219309  0  4.009357  0
C  C73  1  0.11479815  0.24348393  0.86536306  1  0.009622  0  -0.108403  -0.219499  0  4.009559  0
C  C74  1  0.87446625  0.77572738  0.22833723  1  -0.090399  0  -0.085298  -0.067719  0  3.990095  0
C  C75  1  0.12553560  0.22427105  0.77166460  1  -0.090281  0  -0.085247  -0.067608  0  3.990058  0
C  C76  1  0.10394787  0.62533701  0.96121688  1  0.351598  0  -0.144656  -0.182008  0  3.904464  0
C  C77  1  0.89605855  0.37467016  0.03878584  1  0.351093  0  -0.144673  -0.182054  0  3.904527  0
C  C78  1  0.02767852  0.94503478  0.60245507  1  -0.221315  0  -0.22226  -0.455031  0  3.734564  0
C  C79  1  0.97232549  0.05496540  0.39754811  1  -0.22121  0  -0.222317  -0.455127  0  3.734679  0
C  C80  1  0.17812287  0.77700679  0.64218506  1  -0.249283  0  -0.226933  -0.462191  0  3.774258  0
C  C81  1  0.82188245  0.22299863  0.35781773  1  -0.249567  0  -0.226947  -0.462153  0  3.774419  0
C  C82  1  0.56483017  0.72645352  0.45679366  1  -0.316428  0  -0.170046  -0.42301  0  3.814625  0
C  C83  1  0.43516893  0.27355013  0.54320674  1  -0.316475  0  -0.170086  -0.423087  0  3.81451  0
C  C84  1  0.45838068  0.64102059  0.38817801  1  0.897671  0  0.127631  0.394993  0  4.046729  0
C  C85  1  0.54161340  0.35898566  0.61181804  1  0.897585  0  0.127719  0.395245  0  4.04656  0
C  C86  1  0.48665961  0.57218081  0.29298579  1  -0.011889  0  -0.041772  -0.058585  0  4.01355  0
C  C87  1  0.51333018  0.42782193  0.70700822  1  -0.011912  0  -0.041868  -0.058745  0  4.013813  0
C  C88  1  0.61432470  0.57925741  0.26764992  1  -0.12035  0  -0.08754  -0.073281  0  3.991515  0
C  C89  1  0.38567168  0.42073577  0.73234796  1  -0.120435  0  -0.087506  -0.073181  0  3.991468  0
C  C90  1  0.63819989  0.51290867  0.17828053  1  0.042878  0  -0.103098  -0.203514  0  3.982675  0
C  C91  1  0.36179631  0.48708014  0.82171940  1  0.042901  0  -0.103142  -0.203609  0  3.98277  0
C  C92  1  0.53411217  0.43830412  0.11071654  1  0.452451  0  0.093687  0.276263  0  4.042468  0
C  C93  1  0.46588159  0.56169514  0.88928214  1  0.452654  0  0.093696  0.276209  0  4.042387  0
C  C94  1  0.40619284  0.42963780  0.13480849  1  0.015883  0  -0.112129  -0.232888  0  3.99106  0
C  C95  1  0.59380272  0.57035799  0.86519004  1  0.015848  0  -0.112114  -0.23281  0  3.990982  0
C  C96  1  0.38407624  0.49586005  0.22553057  1  -0.119857  0  -0.08027  -0.055524  0  3.971427  0
C  C97  1  0.61591622  0.50413572  0.77446569  1  -0.12014  0  -0.080259  -0.055539  0  3.971469  0
C  C98  1  0.46413107  0.30287743  0.95220907  1  0.320536  0  -0.141684  -0.181661  0  3.907329  0
C  C99  1  0.53586656  0.69711924  0.04778990  1  0.320698  0  -0.141568  -0.181452  0  3.907232  0
C  C100  1  0.67603745  0.84520390  0.64525161  1  -0.258663  0  -0.224763  -0.462036  0  3.769536  0
C  C101  1  0.32396129  0.15479452  0.35474729  1  -0.259032  0  -0.224764  -0.462052  0  3.769559  0
C  C102  1  0.52253402  0.64269350  0.60363587  1  -0.280802  0  -0.2213  -0.455598  0  3.735273  0
C  C103  1  0.47746413  0.35731102  0.39636468  1  -0.228196  0  -0.22134  -0.455682  0  3.735233  0
S  S104  1  0.02243362  0.78863993  0.57054245  1  0.442821  0  0.218603  0.567319  0  3.534412  0
S  S105  1  0.97756968  0.21136373  0.42946295  1  0.442834  0  0.21865  0.567379  0  3.534454  0
S  S106  1  0.52009794  0.77253914  0.57278754  1  0.435925  0  0.220723  0.569161  0  3.535371  0
S  S107  1  0.47989791  0.22746188  0.42721050  1  0.435948  0  0.220736  0.569175  0  3.535325  0
Cl  Cl108  1  0.19450940  0.47499457  0.54298277  1  -0.620342  0  -0.302124  -0.495236  0  1.295946  0
Cl  Cl109  1  0.80548496  0.52499947  0.45701319  1  -0.620356  0  -0.302115  -0.495182  0  1.29589  0
Cl  Cl110  1  0.06871340  0.35937019  0.27338261  1  -0.539249  0  -0.301674  -0.430213  0  1.16487  0
Cl  Cl111  1  0.93128870  0.64062997  0.72662302  1  -0.539307  0  -0.301691  -0.430239  0  1.164867  0
Cl  Cl112  1  0.69489668  0.06338359  0.54681049  1  -0.619216  0  -0.306635  -0.493795  0  1.262717  0
Cl  Cl113  1  0.30510307  0.93661834  0.45318290  1  -0.619259  0  -0.306633  -0.493798  0  1.262669  0
Cl  Cl114  1  0.57050161  0.94733718  0.27491975  1  -0.544836  0  -0.307323  -0.441682  0  1.163721  0
Cl  Cl115  1  0.42950128  0.05266476  0.72507722  1  -0.544863  0  -0.307315  -0.441653  0  1.163747  0
O  O116  1  0.85070592  0.79899020  0.41529752  1  -1.130938  0  -0.283833  -0.451398  0  2.239911  0
O  O117  1  0.14929545  0.20101607  0.58470581  1  -1.130901  0  -0.283745  -0.451365  0  2.240001  0
O  O118  1  0.99312750  0.68113030  0.00345120  1  -1.070114  0  -0.185136  -0.157535  0  2.560134  0
O  O119  1  0.00688133  0.31888387  0.99655106  1  -1.069699  0  -0.185094  -0.157485  0  2.560244  0
O  O120  1  0.34697035  0.63060648  0.41200022  1  -1.133998  0  -0.284982  -0.45144  0  2.237699  0
O  O121  1  0.65302271  0.36940064  0.58799400  1  -1.133949  0  -0.284993  -0.451506  0  2.237515  0
O  O122  1  0.56691160  0.37905741  0.02432472  1  -1.081751  0  -0.180226  -0.158121  0  2.58034  0
O  O123  1  0.43308281  0.62093399  0.97567710  1  -1.081854  0  -0.180245  -0.158137  0  2.580206  0
