# generated using pymatgen
data_CdH16C16N4O7
_symmetry_space_group_name_H-M   'P 1'
_cell_length_a   7.91937416
_cell_length_b   8.32847277
_cell_length_c   16.45318694
_cell_angle_alpha   99.03005087
_cell_angle_beta   90.14252252
_cell_angle_gamma   120.88739955
_symmetry_Int_Tables_number   1
_chemical_formula_structural   CdH16C16N4O7
_chemical_formula_sum   'Cd2 H32 C32 N8 O14'
_cell_volume   915.31749158
_cell_formula_units_Z   2
loop_
 _symmetry_equiv_pos_site_id
 _symmetry_equiv_pos_as_xyz
  1  'x, y, z'
loop_
 _atom_site_type_symbol
 _atom_site_label
 _atom_site_symmetry_multiplicity
 _atom_site_fract_x
 _atom_site_fract_y
 _atom_site_fract_z
 _atom_site_occupancy
 _atom_site_hle17_bader_spin_density
 _atom_site_hle17_ddec_charge
 _atom_site_hle17_ddec_spin_density
 _atom_site_hle17_ddec_sum_bond_order
 _atom_site_hle17_magmom
 _atom_site_hse06_10hf_bader_spin_density
 _atom_site_hse06_10hf_ddec_charge
 _atom_site_hse06_10hf_ddec_spin_density
 _atom_site_hse06_10hf_ddec_sum_bond_order
 _atom_site_hse06_10hf_magmom
 _atom_site_hse06_bader_spin_density
 _atom_site_hse06_ddec_charge
 _atom_site_hse06_ddec_spin_density
 _atom_site_hse06_ddec_sum_bond_order
 _atom_site_hse06_magmom
 _atom_site_pbe_bader_spin_density
 _atom_site_pbe_cm5_charge
 _atom_site_pbe_ddec_charge
 _atom_site_pbe_ddec_spin_density
 _atom_site_pbe_ddec_sum_bond_order
 _atom_site_pbe_magmom
Cd  Cd0  1  0.38081897  0.97284600  0.26432636  1  0  1.071154  0  1.637116  0  0  0.871096  0  2.065099  0  0  0.93073  0  2.017347  0  0  0.780483  0.829032  0  2.097487  0
Cd  Cd1  1  0.61916812  0.02715270  0.73567258  1  0  1.071177  0  1.63707  0  0  0.871125  0  2.065046  0  0  0.93076  0  2.017292  0  0  0.780476  0.829058  0  2.097429  0
H  H2  1  0.78956357  0.93962328  0.22141221  1  0  0.4126  0  0.886883  0  0  0.38594  0  0.945465  0  0  0.395613  0  0.931048  0  0  0.286649  0.379076  0  0.955682  0
H  H3  1  0.21043658  0.06038414  0.77858960  1  0  0.412575  0  0.886852  0  0  0.38591  0  0.94548  0  0  0.395582  0  0.931067  0  0  0.286645  0.379049  0  0.955693  0
H  H4  1  0.87730911  0.15254979  0.25346120  1  0  0.425974  0  0.869614  0  0  0.398812  0  0.927394  0  0  0.4094  0  0.911723  0  0  0.289838  0.39126  0  0.938571  0
H  H5  1  0.12268747  0.84745500  0.74653726  1  0  0.425952  0  0.869626  0  0  0.398779  0  0.927431  0  0  0.409364  0  0.911764  0  0  0.289818  0.391225  0  0.938609  0
H  H6  1  0.04964696  0.20130440  0.14820794  1  0  0.288897  0  0.945708  0  0  0.272906  0  1.007482  0  0  0.280236  0  1.002503  0  0  0.297365  0.267718  0  1.011  0
H  H7  1  0.95036742  0.79869291  0.85178903  1  0  0.288882  0  0.945714  0  0  0.272907  0  1.007454  0  0  0.28024  0  1.002473  0  0  0.297355  0.26772  0  1.010977  0
H  H8  1  0.70851243  0.74769629  0.31675893  1  0  0.286465  0  0.93607  0  0  0.269117  0  1.003342  0  0  0.276553  0  0.99812  0  0  0.301296  0.263818  0  1.007138  0
H  H9  1  0.29148911  0.25231125  0.68324231  1  0  0.28629  0  0.936174  0  0  0.26899  0  1.003422  0  0  0.276419  0  0.998199  0  0  0.301234  0.263688  0  1.007217  0
H  H10  1  0.41905456  0.76269992  0.86754155  1  0  0.078388  0  0.936018  0  0  0.089723  0  0.995164  0  0  0.091778  0  0.993468  0  0  0.119777  0.088174  0  0.996433  0
H  H11  1  0.58095122  0.23731342  0.13245968  1  0  0.078328  0  0.936026  0  0  0.089695  0  0.995163  0  0  0.09175  0  0.993468  0  0  0.119748  0.088139  0  0.99643  0
H  H12  1  0.48167195  0.72877276  0.01020274  1  0  0.128645  0  0.957408  0  0  0.135638  0  1.018803  0  0  0.139898  0  1.016648  0  0  0.111233  0.13254  0  1.020605  0
H  H13  1  0.51832696  0.27121585  0.98979009  1  0  0.128595  0  0.957394  0  0  0.135587  0  1.018798  0  0  0.139844  0  1.01665  0  0  0.111237  0.132486  0  1.020601  0
H  H14  1  0.79668665  0.98477212  0.09509349  1  0  0.092896  0  0.979433  0  0  0.105407  0  1.039475  0  0  0.108639  0  1.036483  0  0  0.109978  0.102982  0  1.041703  0
H  H15  1  0.20332043  0.01520106  0.90490304  1  0  0.092845  0  0.979448  0  0  0.105347  0  1.039527  0  0  0.108573  0  1.03653  0  0  0.109943  0.102922  0  1.041761  0
H  H16  1  0.94975371  0.27962997  0.88903351  1  0  0.094665  0  0.944804  0  0  0.100652  0  1.011186  0  0  0.104725  0  1.006348  0  0  0.119582  0.097621  0  1.014725  0
H  H17  1  0.05025927  0.72037885  0.11097418  1  0  0.094699  0  0.944703  0  0  0.100665  0  1.011121  0  0  0.104738  0  1.006282  0  0  0.119575  0.097631  0  1.014669  0
H  H18  1  0.45056786  0.48798125  0.11772084  1  0  0.102354  0  0.921985  0  0  0.114647  0  0.985069  0  0  0.116641  0  0.983434  0  0  0.116239  0.11326  0  0.986262  0
H  H19  1  0.54944949  0.51201825  0.88228369  1  0  0.102398  0  0.92206  0  0  0.114653  0  0.985158  0  0  0.11665  0  0.98352  0  0  0.116241  0.113262  0  0.986364  0
H  H20  1  0.37186714  0.38510214  0.20767992  1  0  0.118624  0  0.964238  0  0  0.131793  0  1.023801  0  0  0.13439  0  1.022383  0  0  0.116958  0.129866  0  1.025007  0
H  H21  1  0.62813287  0.61489802  0.79232429  1  0  0.118632  0  0.964169  0  0  0.13182  0  1.023731  0  0  0.134421  0  1.022308  0  0  0.116963  0.129893  0  1.024939  0
H  H22  1  0.71339176  0.28946156  0.60341183  1  0  0.086223  0  0.918172  0  0  0.098918  0  0.973473  0  0  0.101274  0  0.971447  0  0  0.123585  0.097093  0  0.975085  0
H  H23  1  0.28659341  0.71054021  0.39658368  1  0  0.086285  0  0.918152  0  0  0.09896  0  0.973469  0  0  0.101327  0  0.97143  0  0  0.123602  0.097133  0  0.975081  0
H  H24  1  0.78219800  0.29900833  0.45606041  1  0  0.125391  0  0.936939  0  0  0.133819  0  0.994899  0  0  0.137462  0  0.993461  0  0  0.114775  0.131152  0  0.996157  0
H  H25  1  0.21778611  0.70098371  0.54393362  1  0  0.125352  0  0.936836  0  0  0.13378  0  0.99481  0  0  0.137423  0  0.993374  0  0  0.114794  0.131115  0  0.996061  0
H  H26  1  0.80877106  0.03433470  0.37384643  1  0  0.099542  0  0.964428  0  0  0.108188  0  1.031774  0  0  0.111575  0  1.028315  0  0  0.111591  0.105612  0  1.034385  0
H  H27  1  0.19122880  0.96565463  0.62615380  1  0  0.099522  0  0.964401  0  0  0.10817  0  1.031752  0  0  0.111558  0  1.028291  0  0  0.111601  0.105593  0  1.03436  0
H  H28  1  0.69081471  0.77638904  0.59127967  1  0  0.107444  0  0.945233  0  0  0.113396  0  1.009105  0  0  0.1175  0  1.004388  0  0  0.123615  0.110322  0  1.012581  0
H  H29  1  0.30918344  0.22361690  0.40872197  1  0  0.107437  0  0.945293  0  0  0.113386  0  1.00916  0  0  0.117488  0  1.004448  0  0  0.123591  0.110315  0  1.012634  0
H  H30  1  0.95291226  0.58215432  0.34209687  1  0  0.098542  0  0.943016  0  0  0.108998  0  1.010458  0  0  0.110691  0  1.009036  0  0  0.114428  0.107779  0  1.011512  0
H  H31  1  0.04708053  0.41784589  0.65790354  1  0  0.09854  0  0.943001  0  0  0.108973  0  1.010468  0  0  0.110698  0  1.009015  0  0  0.114427  0.107757  0  1.011515  0
H  H32  1  0.86515669  0.59851122  0.24736597  1  0  0.10972  0  0.900276  0  0  0.130585  0  0.949223  0  0  0.132147  0  0.947726  0  0  0.122397  0.129387  0  0.95052  0
H  H33  1  0.13483567  0.40149315  0.75263480  1  0  0.109751  0  0.900246  0  0  0.130621  0  0.9492  0  0  0.132181  0  0.947707  0  0  0.122402  0.129423  0  0.950493  0
C  C34  1  0.55468514  0.87038532  0.90597881  1  0  0.138569  0  3.703333  0  0  0.103345  0  3.961116  0  0  0.112234  0  3.979227  0  0  0.051259  0.097673  0  3.948716  0
C  C35  1  0.44531726  0.12961838  0.09401908  1  0  0.138484  0  3.703194  0  0  0.103187  0  3.961019  0  0  0.112077  0  3.979129  0  0  0.051249  0.097531  0  3.948598  0
C  C36  1  0.59038954  0.85340936  0.98600608  1  0  -0.110695  0  3.705163  0  0  -0.12264  0  3.96108  0  0  -0.130743  0  3.981793  0  0  -0.079573  -0.117615  0  3.947309  0
C  C37  1  0.40961455  0.14658485  0.01398918  1  0  -0.110485  0  3.704976  0  0  -0.12238  0  3.960846  0  0  -0.13048  0  3.981552  0  0  -0.07951  -0.117356  0  3.94707  0
C  C38  1  0.76559890  0.99645075  0.03241599  1  0  -0.02031  0  3.690447  0  0  -0.052343  0  3.941389  0  0  -0.047212  0  3.958823  0  0  -0.061716  -0.055231  0  3.929484  0
C  C39  1  0.23440873  0.00353624  0.96758298  1  0  -0.020236  0  3.690378  0  0  -0.052283  0  3.94135  0  0  -0.047141  0  3.958776  0  0  -0.061713  -0.055181  0  3.929461  0
C  C40  1  0.89930037  0.15353069  0.99811640  1  0  -0.099017  0  3.730494  0  0  -0.071828  0  3.967179  0  0  -0.083624  0  3.991243  0  0  -0.005259  -0.064559  0  3.951242  0
C  C41  1  0.10071098  0.84646172  0.00188617  1  0  -0.099012  0  3.730716  0  0  -0.071863  0  3.967389  0  0  -0.083661  0  3.991454  0  0  -0.005214  -0.064589  0  3.951453  0
C  C42  1  0.85072195  0.15853673  0.91722836  1  0  0.134808  0  3.660899  0  0  0.091804  0  3.908377  0  0  0.101405  0  3.925072  0  0  0.057409  0.085701  0  3.896997  0
C  C43  1  0.14928420  0.84146526  0.08277432  1  0  0.134821  0  3.660917  0  0  0.09182  0  3.908396  0  0  0.101421  0  3.925092  0  0  0.057416  0.085713  0  3.89702  0
C  C44  1  0.09578228  0.31518556  0.04038008  1  0  0.532192  0  3.876491  0  0  0.482344  0  4.168909  0  0  0.512024  0  4.16966  0  0  0.234506  0.462473  0  4.167726  0
C  C45  1  0.90423721  0.68482176  0.95961726  1  0  0.532101  0  3.87658  0  0  0.482353  0  4.168824  0  0  0.512033  0  4.169575  0  0  0.234484  0.46248  0  4.167646  0
C  C46  1  0.33607191  0.44721553  0.16099857  1  0  -0.113648  0  3.68476  0  0  -0.171306  0  3.938512  0  0  -0.171377  0  3.945339  0  0  -0.06624  -0.171335  0  3.934009  0
C  C47  1  0.66393934  0.55278395  0.83900340  1  0  -0.113697  0  3.684775  0  0  -0.171389  0  3.938594  0  0  -0.171467  0  3.94543  0  0  -0.066217  -0.171409  0  3.934089  0
C  C48  1  0.35278427  0.62862309  0.20697685  1  0  0.683015  0  3.835665  0  0  0.636449  0  4.13212  0  0  0.669829  0  4.125604  0  0  0.202672  0.613805  0  4.135648  0
C  C49  1  0.64722512  0.37138218  0.79302254  1  0  0.683006  0  3.835752  0  0  0.636442  0  4.132216  0  0  0.669823  0  4.1257  0  0  0.202619  0.613785  0  4.135759  0
C  C50  1  0.72358283  0.17559498  0.56534869  1  0  0.127612  0  3.701558  0  0  0.090818  0  3.960082  0  0  0.099388  0  3.978266  0  0  0.049871  0.085342  0  3.947666  0
C  C51  1  0.27640785  0.82440726  0.43464454  1  0  0.127629  0  3.701533  0  0  0.090851  0  3.960045  0  0  0.099422  0  3.978231  0  0  0.049939  0.085375  0  3.947628  0
C  C52  1  0.76029035  0.17906260  0.48300002  1  0  -0.087766  0  3.691885  0  0  -0.100028  0  3.947874  0  0  -0.106929  0  3.967307  0  0  -0.07261  -0.095815  0  3.934992  0
C  C53  1  0.23970150  0.82093781  0.51699795  1  0  -0.087706  0  3.691539  0  0  -0.099986  0  3.947546  0  0  -0.10689  0  3.966983  0  0  -0.072632  -0.09577  0  3.934657  0
C  C54  1  0.77256083  0.02988650  0.43760875  1  0  -0.010451  0  3.66472  0  0  -0.043982  0  3.920283  0  0  -0.038039  0  3.93656  0  0  -0.057136  -0.047438  0  3.909226  0
C  C55  1  0.22743700  0.97010848  0.56239010  1  0  -0.010333  0  3.664641  0  0  -0.043872  0  3.92019  0  0  -0.037929  0  3.936468  0  0  -0.057105  -0.04733  0  3.909146  0
C  C56  1  0.74560898  0.88039437  0.47569039  1  0  -0.106864  0  3.738693  0  0  -0.080476  0  3.974951  0  0  -0.092924  0  3.999605  0  0  -0.006697  -0.072737  0  3.958609  0
C  C57  1  0.25439207  0.11961459  0.52431036  1  0  -0.10716  0  3.738949  0  0  -0.080697  0  3.975179  0  0  -0.093149  0  3.999834  0  0  -0.006757  -0.072963  0  3.958844  0
C  C58  1  0.71100827  0.88887436  0.55910161  1  0  0.131695  0  3.652864  0  0  0.087974  0  3.900408  0  0  0.097535  0  3.917517  0  0  0.058315  0.081906  0  3.88877  0
C  C59  1  0.28898838  0.11113406  0.44090265  1  0  0.131654  0  3.652961  0  0  0.087924  0  3.900494  0  0  0.097485  0  3.917606  0  0  0.05826  0.081857  0  3.888864  0
C  C60  1  0.76673344  0.71807124  0.43460669  1  0  0.538539  0  3.852875  0  0  0.492331  0  4.138592  0  0  0.522123  0  4.139076  0  0  0.236466  0.472337  0  4.137612  0
C  C61  1  0.23325826  0.28192639  0.56539104  1  0  0.538953  0  3.852603  0  0  0.492609  0  4.138488  0  0  0.522393  0  4.138965  0  0  0.236566  0.472611  0  4.137513  0
C  C62  1  0.82321133  0.56528696  0.30891454  1  0  -0.08962  0  3.690982  0  0  -0.151277  0  3.955665  0  0  -0.14936  0  3.960566  0  0  -0.059602  -0.152574  0  3.952289  0
C  C63  1  0.17678006  0.43471580  0.69108789  1  0  -0.089588  0  3.690845  0  0  -0.151263  0  3.955607  0  0  -0.149385  0  3.960498  0  0  -0.059619  -0.152564  0  3.952231  0
C  C64  1  0.66012345  0.35694422  0.29706098  1  0  0.661322  0  3.865055  0  0  0.610479  0  4.170914  0  0  0.643481  0  4.16495  0  0  0.200394  0.588096  0  4.174088  0
C  C65  1  0.33986925  0.64305594  0.70294003  1  0  0.661228  0  3.865016  0  0  0.610405  0  4.170877  0  0  0.643402  0  4.164922  0  0  0.200341  0.588021  0  4.174055  0
N  N66  1  0.68327866  0.01919162  0.87181472  1  0  -0.340756  0  3.270723  0  0  -0.25705  0  3.538505  0  0  -0.279227  0  3.557612  0  0  -0.33164  -0.242067  0  3.525112  0
N  N67  1  0.31672370  0.98081028  0.12818726  1  0  -0.340761  0  3.270661  0  0  -0.257015  0  3.538441  0  0  -0.279193  0  3.557549  0  0  -0.331663  -0.242038  0  3.525049  0
N  N68  1  0.14536526  0.30665804  0.11753471  1  0  -0.405477  0  3.367052  0  0  -0.34701  0  3.612403  0  0  -0.369885  0  3.624779  0  0  -0.422247  -0.331234  0  3.603485  0
N  N69  1  0.85464674  0.69334020  0.88246594  1  0  -0.405422  0  3.367238  0  0  -0.346959  0  3.612493  0  0  -0.369831  0  3.624871  0  0  -0.422237  -0.331189  0  3.603584  0
N  N70  1  0.70099697  0.03362160  0.60287455  1  0  -0.349213  0  3.303446  0  0  -0.262118  0  3.574022  0  0  -0.285358  0  3.594398  0  0  -0.335677  -0.246456  0  3.559792  0
N  N71  1  0.29899858  0.96637886  0.39712473  1  0  -0.349195  0  3.303533  0  0  -0.262092  0  3.574087  0  0  -0.285335  0  3.594468  0  0  -0.335655  -0.246434  0  3.559869  0
N  N72  1  0.77287343  0.69793387  0.35131092  1  0  -0.417508  0  3.349352  0  0  -0.365185  0  3.603604  0  0  -0.387583  0  3.613076  0  0  -0.42888  -0.349738  0  3.596667  0
N  N73  1  0.22712111  0.30206764  0.64869147  1  0  -0.417539  0  3.349035  0  0  -0.365213  0  3.603293  0  0  -0.387584  0  3.612757  0  0  -0.428906  -0.349759  0  3.596348  0
O  O74  1  0.20754511  0.44539827  0.00331699  1  0  -0.561274  0  1.891701  0  0  -0.522714  0  2.109769  0  0  -0.543267  0  2.103465  0  0  -0.311055  -0.508482  0  2.113619  0
O  O75  1  0.79246458  0.55459292  0.99668300  1  0  -0.561338  0  1.891496  0  0  -0.52278  0  2.109471  0  0  -0.543335  0  2.103162  0  0  -0.31108  -0.508539  0  2.113316  0
O  O76  1  0.91712490  0.06115851  0.23035802  1  0  -0.812959  0  1.751891  0  0  -0.76931  0  1.888075  0  0  -0.78653  0  1.859384  0  0  -0.599537  -0.757017  0  1.908212  0
O  O77  1  0.08287445  0.93884743  0.76964425  1  0  -0.812894  0  1.75189  0  0  -0.769228  0  1.888132  0  0  -0.786443  0  1.859435  0  0  -0.599492  -0.756934  0  1.908265  0
O  O78  1  0.19946925  0.63835797  0.21626547  1  0  -0.623566  0  1.963414  0  0  -0.564006  0  2.205039  0  0  -0.593396  0  2.196847  0  0  -0.322549  -0.543458  0  2.209803  0
O  O79  1  0.80053180  0.36163848  0.78373418  1  0  -0.623543  0  1.963377  0  0  -0.564001  0  2.205023  0  0  -0.593388  0  2.196828  0  0  -0.322555  -0.543449  0  2.209788  0
O  O80  1  0.52691230  0.76771819  0.23627851  1  0  -0.69626  0  1.965069  0  0  -0.627464  0  2.200848  0  0  -0.656477  0  2.189376  0  0  -0.339574  -0.607022  0  2.207969  0
O  O81  1  0.47309829  0.23228706  0.76372151  1  0  -0.696228  0  1.965167  0  0  -0.627416  0  2.20093  0  0  -0.65643  0  2.189458  0  0  -0.339535  -0.606969  0  2.208055  0
O  O82  1  0.71124435  0.23249936  0.28227348  1  0  -0.672623  0  1.997779  0  0  -0.602202  0  2.241236  0  0  -0.632691  0  2.230277  0  0  -0.333159  -0.580786  0  2.247967  0
O  O83  1  0.28874420  0.76749953  0.71772429  1  0  -0.672626  0  1.997735  0  0  -0.602172  0  2.241159  0  0  -0.632661  0  2.230202  0  0  -0.333111  -0.580756  0  2.247892  0
O  O84  1  0.48159272  0.31154852  0.29866805  1  0  -0.615202  0  1.976542  0  0  -0.552642  0  2.207146  0  0  -0.58024  0  2.198568  0  0  -0.316673  -0.533329  0  2.2123  0
O  O85  1  0.51840074  0.68845131  0.70133660  1  0  -0.615135  0  1.976577  0  0  -0.552586  0  2.207186  0  0  -0.580184  0  2.198608  0  0  -0.316628  -0.533272  0  2.212342  0
O  O86  1  0.79002484  0.61683820  0.47595517  1  0  -0.542096  0  1.876598  0  0  -0.501653  0  2.08494  0  0  -0.522471  0  2.08011  0  0  -0.30087  -0.487178  0  2.087787  0
O  O87  1  0.20995533  0.38315006  0.52404698  1  0  -0.54221  0  1.876659  0  0  -0.501704  0  2.085033  0  0  -0.522522  0  2.080204  0  0  -0.30088  -0.487231  0  2.087883  0
