# generated using pymatgen
data_ZnH10C12Br2(NO)2
_symmetry_space_group_name_H-M   'P 1'
_cell_length_a   8.10398999
_cell_length_b   11.45278253
_cell_length_c   10.61989560
_cell_angle_alpha   122.63832210
_cell_angle_beta   88.39289458
_cell_angle_gamma   89.99511910
_symmetry_Int_Tables_number   1
_chemical_formula_structural   ZnH10C12Br2(NO)2
_chemical_formula_sum   'Zn2 H20 C24 Br4 N4 O4'
_cell_volume   829.56006549
_cell_formula_units_Z   2
loop_
 _symmetry_equiv_pos_site_id
 _symmetry_equiv_pos_as_xyz
  1  'x, y, z'
loop_
 _atom_site_type_symbol
 _atom_site_label
 _atom_site_symmetry_multiplicity
 _atom_site_fract_x
 _atom_site_fract_y
 _atom_site_fract_z
 _atom_site_occupancy
 _atom_site_hle17_bader_spin_density
 _atom_site_hle17_ddec_charge
 _atom_site_hle17_ddec_spin_density
 _atom_site_hle17_ddec_sum_bond_order
 _atom_site_hle17_magmom
 _atom_site_hse06_10hf_bader_spin_density
 _atom_site_hse06_10hf_ddec_charge
 _atom_site_hse06_10hf_ddec_spin_density
 _atom_site_hse06_10hf_ddec_sum_bond_order
 _atom_site_hse06_10hf_magmom
 _atom_site_hse06_bader_spin_density
 _atom_site_hse06_ddec_charge
 _atom_site_hse06_ddec_spin_density
 _atom_site_hse06_ddec_sum_bond_order
 _atom_site_hse06_magmom
 _atom_site_pbe_bader_spin_density
 _atom_site_pbe_cm5_charge
 _atom_site_pbe_ddec_charge
 _atom_site_pbe_ddec_spin_density
 _atom_site_pbe_ddec_sum_bond_order
 _atom_site_pbe_magmom
Zn  Zn0  1  0.98165499  0.46795057  0.52540459  1  0  0.851234  0  2.068401  0  0  0.683517  0  2.55911  0  0  0.730002  0  2.507058  0  0  0.494925  0.651419  0  2.594318  0
Zn  Zn1  1  0.48173069  0.05685259  0.52491259  1  0  0.851572  0  2.066848  0  0  0.683651  0  2.558027  0  0  0.730163  0  2.505947  0  0  0.494701  0.651558  0  2.593254  0
H  H2  1  0.82638813  0.37761979  0.22735441  1  0  0.084104  0  0.958411  0  0  0.090942  0  1.02201  0  0  0.094235  0  1.019034  0  0  0.10653  0.088053  0  1.025173  0
H  H3  1  0.32572774  0.84967563  0.22709917  1  0  0.084598  0  0.957891  0  0  0.091547  0  1.02118  0  0  0.094833  0  1.018214  0  0  0.107008  0.088652  0  1.024359  0
H  H4  1  0.70244487  0.16618780  0.01583562  1  0  0.130539  0  0.942429  0  0  0.141819  0  0.996995  0  0  0.145611  0  0.995012  0  0  0.117603  0.139148  0  0.998241  0
H  H5  1  0.20192934  0.84996299  0.01578101  1  0  0.129966  0  0.94226  0  0  0.141299  0  0.997015  0  0  0.1451  0  0.995014  0  0  0.11723  0.138635  0  0.998231  0
H  H6  1  0.97063692  0.16920846  0.42613219  1  0  0.083812  0  0.949235  0  0  0.092786  0  1.01336  0  0  0.095082  0  1.011237  0  0  0.114676  0.091213  0  1.014621  0
H  H7  1  0.47056491  0.25674217  0.42633045  1  0  0.083986  0  0.949915  0  0  0.093243  0  1.01366  0  0  0.09553  0  1.011585  0  0  0.115067  0.091677  0  1.014892  0
H  H8  1  0.85552475  0.94869305  0.22596951  1  0  0.118751  0  0.934583  0  0  0.131381  0  0.987551  0  0  0.134978  0  0.985733  0  0  0.116194  0.128509  0  0.989707  0
H  H9  1  0.35556162  0.27753692  0.22638043  1  0  0.118165  0  0.934024  0  0  0.130488  0  0.987505  0  0  0.134083  0  0.985682  0  0  0.115704  0.127609  0  0.989675  0
H  H10  1  0.68580777  0.79434208  0.09072597  1  0  0.125639  0  0.924576  0  0  0.139915  0  0.972791  0  0  0.143284  0  0.971937  0  0  0.123185  0.136884  0  0.974762  0
H  H11  1  0.18585323  0.29657211  0.09049110  1  0  0.125428  0  0.923542  0  0  0.139424  0  0.972097  0  0  0.14281  0  0.971212  0  0  0.123039  0.136391  0  0.974067  0
H  H12  1  0.56477982  0.58371059  0.87383325  1  0  0.118658  0  0.915087  0  0  0.127832  0  0.970989  0  0  0.131199  0  0.967422  0  0  0.132115  0.124827  0  0.974502  0
H  H13  1  0.06489108  0.29005524  0.87346141  1  0  0.117851  0  0.914962  0  0  0.127331  0  0.970996  0  0  0.130579  0  0.967582  0  0  0.131862  0.124401  0  0.974424  0
H  H14  1  0.67449526  0.98169687  0.82661658  1  0  0.14145  0  0.997541  0  0  0.147237  0  1.059612  0  0  0.1518  0  1.057213  0  0  0.114223  0.144  0  1.061275  0
H  H15  1  0.17485400  0.84508059  0.82663961  1  0  0.141157  0  0.997053  0  0  0.146934  0  1.059285  0  0  0.151569  0  1.056795  0  0  0.114241  0.143664  0  1.060993  0
H  H16  1  0.54962916  0.76827255  0.62715989  1  0  0.10814  0  0.967022  0  0  0.11355  0  1.033461  0  0  0.116964  0  1.029785  0  0  0.111802  0.110742  0  1.036652  0
H  H17  1  0.05021887  0.85878856  0.62704386  1  0  0.108402  0  0.967187  0  0  0.114038  0  1.033447  0  0  0.117453  0  1.029775  0  0  0.11184  0.111218  0  1.036656  0
H  H18  1  0.52322562  0.45640491  0.62608693  1  0  0.115608  0  0.956209  0  0  0.122015  0  1.032715  0  0  0.125288  0  1.029864  0  0  0.108581  0.11945  0  1.035131  0
H  H19  1  0.02329347  0.16949025  0.62575493  1  0  0.115319  0  0.956079  0  0  0.121369  0  1.032864  0  0  0.124641  0  1.029974  0  0  0.108169  0.118796  0  1.0353  0
H  H20  1  0.53273953  0.53231966  0.51614609  1  0  0.120456  0  0.914469  0  0  0.132536  0  0.975172  0  0  0.135167  0  0.973218  0  0  0.11819  0.130441  0  0.977156  0
H  H21  1  0.03313794  0.98361922  0.51582903  1  0  0.120771  0  0.914161  0  0  0.132577  0  0.974844  0  0  0.135223  0  0.972839  0  0  0.118226  0.130469  0  0.976847  0
C  C22  1  0.83048771  0.27892026  0.22030879  1  0  0.121006  0  3.71415  0  0  0.092135  0  3.961772  0  0  0.097801  0  3.981204  0  0  0.04296  0.087979  0  3.948367  0
C  C23  1  0.33003753  0.94137836  0.22017281  1  0  0.122014  0  3.711898  0  0  0.093591  0  3.959362  0  0  0.099249  0  3.978795  0  0  0.04306  0.089443  0  3.945969  0
C  C24  1  0.76073623  0.16032987  0.10351713  1  0  -0.15292  0  3.690218  0  0  -0.173716  0  3.940669  0  0  -0.180648  0  3.961916  0  0  -0.077433  -0.16832  0  3.925117  0
C  C25  1  0.26037661  0.94339665  0.10350045  1  0  -0.153999  0  3.68952  0  0  -0.175289  0  3.940508  0  0  -0.182244  0  3.961795  0  0  -0.077813  -0.169863  0  3.924924  0
C  C26  1  0.91195788  0.16283256  0.33178717  1  0  0.147462  0  3.686515  0  0  0.114351  0  3.939682  0  0  0.122004  0  3.957119  0  0  0.052039  0.108938  0  3.928194  0
C  C27  1  0.41186352  0.16889160  0.33188031  1  0  0.14715  0  3.686991  0  0  0.114077  0  3.939882  0  0  0.121696  0  3.957312  0  0  0.051721  0.108678  0  3.928405  0
C  C28  1  0.84573019  0.03964721  0.21881756  1  0  -0.135845  0  3.677698  0  0  -0.159004  0  3.932312  0  0  -0.165185  0  3.951453  0  0  -0.075127  -0.155223  0  3.919825  0
C  C29  1  0.34572040  0.17934226  0.21903888  1  0  -0.134815  0  3.676381  0  0  -0.157646  0  3.930719  0  0  -0.163795  0  3.949861  0  0  -0.074049  -0.15389  0  3.918225  0
C  C30  1  0.76720942  0.03627191  0.10096533  1  0  0.084135  0  3.748956  0  0  0.096275  0  3.985488  0  0  0.098759  0  4.007415  0  0  0.012587  0.094857  0  3.970596  0
C  C31  1  0.26718331  0.06494824  0.10107423  1  0  0.084772  0  3.749088  0  0  0.097213  0  3.985213  0  0  0.099669  0  4.007172  0  0  0.012614  0.095828  0  3.97027  0
C  C32  1  0.69306911  0.90839441  0.97891409  1  0  0.116294  0  3.721675  0  0  0.121853  0  3.960595  0  0  0.129192  0  3.979758  0  0  0.02295  0.116724  0  3.947984  0
C  C33  1  0.19328629  0.07073121  0.97891745  1  0  0.116078  0  3.722866  0  0  0.121579  0  3.961749  0  0  0.128942  0  3.980917  0  0  0.022958  0.116418  0  3.949143  0
C  C34  1  0.66047794  0.79365152  0.99020382  1  0  -0.141693  0  3.678623  0  0  -0.164008  0  3.934713  0  0  -0.172104  0  3.953026  0  0  -0.068655  -0.158804  0  3.923355  0
C  C35  1  0.16062355  0.19666566  0.99001626  1  0  -0.14283  0  3.679332  0  0  -0.164295  0  3.935346  0  0  -0.172402  0  3.953612  0  0  -0.069202  -0.15907  0  3.924011  0
C  C36  1  0.59290836  0.67560865  0.87192597  1  0  0.120338  0  3.58894  0  0  0.077956  0  3.842919  0  0  0.088482  0  3.854902  0  0  0.071702  0.070817  0  3.835321  0
C  C37  1  0.09311569  0.19630931  0.87164315  1  0  0.12332  0  3.587693  0  0  0.079912  0  3.842431  0  0  0.090516  0  3.854434  0  0  0.072781  0.072713  0  3.834822  0
C  C38  1  0.65158884  0.89887781  0.84635056  1  0  -0.149493  0  3.657278  0  0  -0.16884  0  3.907398  0  0  -0.177912  0  3.926129  0  0  -0.073479  -0.163477  0  3.895501  0
C  C39  1  0.15198113  0.94761393  0.84629502  1  0  -0.149468  0  3.656709  0  0  -0.169106  0  3.907434  0  0  -0.178253  0  3.92612  0  0  -0.074433  -0.163709  0  3.895584  0
C  C40  1  0.58469061  0.77895286  0.73120277  1  0  0.123512  0  3.588273  0  0  0.082124  0  3.838878  0  0  0.092045  0  3.852132  0  0  0.06704  0.075128  0  3.830579  0
C  C41  1  0.08520070  0.95224500  0.73103859  1  0  0.12302  0  3.587168  0  0  0.081541  0  3.837935  0  0  0.091441  0  3.851215  0  0  0.067325  0.074551  0  3.82963  0
C  C42  1  0.48437022  0.54557461  0.62072809  1  0  -0.182977  0  3.596496  0  0  -0.246509  0  3.84887  0  0  -0.248319  0  3.855467  0  0  -0.057599  -0.24532  0  3.845233  0
C  C43  1  0.98463081  0.07492531  0.62040521  1  0  -0.183353  0  3.596681  0  0  -0.245486  0  3.846905  0  0  -0.247207  0  3.85329  0  0  -0.057394  -0.244297  0  3.843306  0
C  C44  1  0.29438923  0.55577330  0.62990430  1  0  0.677599  0  3.884279  0  0  0.631828  0  4.184508  0  0  0.664515  0  4.178991  0  0  0.200773  0.609284  0  4.188035  0
C  C45  1  0.79463880  0.07367625  0.62959292  1  0  0.677607  0  3.882983  0  0  0.631978  0  4.182425  0  0  0.664629  0  4.176975  0  0  0.201812  0.609436  0  4.185941  0
Br  Br46  1  0.88069495  0.43554287  0.71798824  1  0  -0.55005  0  0.939769  0  0  -0.497792  0  1.21819  0  0  -0.517848  0  1.19423  0  0  -0.297096  -0.481356  0  1.235881  0
Br  Br47  1  0.38046387  0.28187186  0.71735579  1  0  -0.550219  0  0.940417  0  0  -0.497957  0  1.219064  0  0  -0.517983  0  1.195044  0  0  -0.296905  -0.481535  0  1.236792  0
Br  Br48  1  0.87804119  0.63345487  0.47303570  1  0  -0.548394  0  0.936201  0  0  -0.495924  0  1.203607  0  0  -0.514857  0  1.178401  0  0  -0.289699  -0.481436  0  1.222478  0
Br  Br49  1  0.37778516  0.83878480  0.47169690  1  0  -0.548328  0  0.935145  0  0  -0.495765  0  1.202441  0  0  -0.51468  0  1.177205  0  0  -0.289522  -0.481321  0  1.221349  0
N  N50  1  0.90501271  0.28085069  0.33333403  1  0  -0.310104  0  3.293169  0  0  -0.226507  0  3.557427  0  0  -0.24543  0  3.574784  0  0  -0.323646  -0.213245  0  3.545972  0
N  N51  1  0.40480559  0.05231384  0.33319653  1  0  -0.310995  0  3.293723  0  0  -0.228063  0  3.558632  0  0  -0.246966  0  3.575969  0  0  -0.324629  -0.214815  0  3.547205  0
N  N52  1  0.55724565  0.66983564  0.74490954  1  0  0.018244  0  3.593357  0  0  0.111773  0  3.800376  0  0  0.098795  0  3.826126  0  0  -0.20971  0.120176  0  3.783211  0
N  N53  1  0.05760976  0.07500050  0.74462739  1  0  0.017555  0  3.592548  0  0  0.111021  0  3.799554  0  0  0.098022  0  3.82531  0  0  -0.210132  0.119425  0  3.782386  0
O  O54  1  0.22829922  0.46088413  0.50829975  1  0  -0.627527  0  2.055889  0  0  -0.554481  0  2.320731  0  0  -0.585017  0  2.309154  0  0  -0.334046  -0.532527  0  2.32779  0
O  O55  1  0.72841592  0.04705659  0.50808447  1  0  -0.627968  0  2.054414  0  0  -0.555029  0  2.319192  0  0  -0.585584  0  2.30765  0  0  -0.334836  -0.533092  0  2.326277  0
O  O56  1  0.22215620  0.64775836  0.74699649  1  0  -0.607689  0  1.953819  0  0  -0.564737  0  2.176128  0  0  -0.58762  0  2.1681  0  0  -0.32108  -0.548551  0  2.181086  0
O  O57  1  0.72253964  0.09858920  0.74665480  1  0  -0.607043  0  1.95472  0  0  -0.564484  0  2.17715  0  0  -0.587297  0  2.16904  0  0  -0.320946  -0.548299  0  2.182103  0
