# generated using pymatgen
data_CdH12C8(N2Cl)2
_symmetry_space_group_name_H-M   'P 1'
_cell_length_a   3.96181091
_cell_length_b   9.79805962
_cell_length_c   14.55194129
_cell_angle_alpha   89.99998022
_cell_angle_beta   90.00016724
_cell_angle_gamma   93.76786109
_symmetry_Int_Tables_number   1
_chemical_formula_structural   CdH12C8(N2Cl)2
_chemical_formula_sum   'Cd2 H24 C16 N8 Cl4'
_cell_volume   563.65713123
_cell_formula_units_Z   2
loop_
 _symmetry_equiv_pos_site_id
 _symmetry_equiv_pos_as_xyz
  1  'x, y, z'
loop_
 _atom_site_type_symbol
 _atom_site_label
 _atom_site_symmetry_multiplicity
 _atom_site_fract_x
 _atom_site_fract_y
 _atom_site_fract_z
 _atom_site_occupancy
 _atom_site_hle17_bader_spin_density
 _atom_site_hle17_ddec_charge
 _atom_site_hle17_ddec_spin_density
 _atom_site_hle17_ddec_sum_bond_order
 _atom_site_hle17_magmom
 _atom_site_hse06_10hf_bader_spin_density
 _atom_site_hse06_10hf_ddec_charge
 _atom_site_hse06_10hf_ddec_spin_density
 _atom_site_hse06_10hf_ddec_sum_bond_order
 _atom_site_hse06_10hf_magmom
 _atom_site_hse06_bader_spin_density
 _atom_site_hse06_ddec_charge
 _atom_site_hse06_ddec_spin_density
 _atom_site_hse06_ddec_sum_bond_order
 _atom_site_hse06_magmom
 _atom_site_pbe_bader_spin_density
 _atom_site_pbe_cm5_charge
 _atom_site_pbe_ddec_charge
 _atom_site_pbe_ddec_spin_density
 _atom_site_pbe_ddec_sum_bond_order
 _atom_site_pbe_magmom
Cd  Cd0  1  0.49999888  0.49999926  0.49999941  1  0  0.976753  0  1.903781  0  0  0.811305  0  2.349817  0  0  0.856463  0  2.311812  0  0  0.620662  0.779636  0  2.375112  0
Cd  Cd1  1  0.50000068  0.00000047  0.00000020  1  0  0.976803  0  1.903702  0  0  0.811356  0  2.349734  0  0  0.856512  0  2.311729  0  0  0.620691  0.77969  0  2.375029  0
H  H2  1  0.20978967  0.71360905  0.33525905  1  0  0.097067  0  0.978945  0  0  0.105643  0  1.04411  0  0  0.108122  0  1.042859  0  0  0.105471  0.103818  0  1.045217  0
H  H3  1  0.79020998  0.78639139  0.83525923  1  0  0.097057  0  0.978954  0  0  0.105633  0  1.044116  0  0  0.108113  0  1.042865  0  0  0.105466  0.103809  0  1.045222  0
H  H4  1  0.79020809  0.28638947  0.66474046  1  0  0.097078  0  0.978912  0  0  0.105632  0  1.044103  0  0  0.108112  0  1.042851  0  0  0.105496  0.103811  0  1.045201  0
H  H5  1  0.20978804  0.21360917  0.16474028  1  0  0.097099  0  0.978901  0  0  0.105653  0  1.044081  0  0  0.108133  0  1.04283  0  0  0.10551  0.103831  0  1.045184  0
H  H6  1  0.33369459  0.68390300  0.14672137  1  0  0.119014  0  0.978409  0  0  0.125531  0  1.046399  0  0  0.128594  0  1.044506  0  0  0.1089  0.123154  0  1.048128  0
H  H7  1  0.66630798  0.81609649  0.64672145  1  0  0.11899  0  0.978449  0  0  0.125513  0  1.046431  0  0  0.128576  0  1.044539  0  0  0.108887  0.123134  0  1.048157  0
H  H8  1  0.66630582  0.31609655  0.85327951  1  0  0.119019  0  0.978399  0  0  0.125507  0  1.046413  0  0  0.12857  0  1.044521  0  0  0.108893  0.123131  0  1.048142  0
H  H9  1  0.33369005  0.18390408  0.35327875  1  0  0.11898  0  0.978479  0  0  0.125542  0  1.046416  0  0  0.128604  0  1.044525  0  0  0.108895  0.123164  0  1.048145  0
H  H10  1  0.79424829  0.37534776  0.29729875  1  0  0.095141  0  0.958886  0  0  0.102042  0  1.02739  0  0  0.104308  0  1.025206  0  0  0.124639  0.099999  0  1.029887  0
H  H11  1  0.20575191  0.12465189  0.79729919  1  0  0.095157  0  0.958865  0  0  0.102056  0  1.027376  0  0  0.104324  0  1.025191  0  0  0.12464  0.100013  0  1.029875  0
H  H12  1  0.20574947  0.62465076  0.70270007  1  0  0.095159  0  0.958918  0  0  0.102062  0  1.027416  0  0  0.10433  0  1.02523  0  0  0.124637  0.100012  0  1.029929  0
H  H13  1  0.79425117  0.87534870  0.20270101  1  0  0.095157  0  0.958857  0  0  0.102053  0  1.02737  0  0  0.104322  0  1.025183  0  0  0.124645  0.100003  0  1.02989  0
H  H14  1  0.90822473  0.38458654  0.12640888  1  0  0.105466  0  0.957221  0  0  0.124085  0  1.023919  0  0  0.125268  0  1.023316  0  0  0.102761  0.12321  0  1.024286  0
H  H15  1  0.09177618  0.11541316  0.62640923  1  0  0.105459  0  0.957234  0  0  0.124079  0  1.023934  0  0  0.125262  0  1.023329  0  0  0.102756  0.123203  0  1.0243  0
H  H16  1  0.09177316  0.61541300  0.87358994  1  0  0.105446  0  0.957254  0  0  0.12405  0  1.023985  0  0  0.125233  0  1.023383  0  0  0.10276  0.123176  0  1.02435  0
H  H17  1  0.90822424  0.88458639  0.37359097  1  0  0.105465  0  0.957214  0  0  0.124085  0  1.023918  0  0  0.125268  0  1.023314  0  0  0.102762  0.12321  0  1.024283  0
H  H18  1  0.82682752  0.54083141  0.06911545  1  0  0.108579  0  0.957415  0  0  0.127557  0  1.023049  0  0  0.128698  0  1.022605  0  0  0.098644  0.12665  0  1.023263  0
H  H19  1  0.17317183  0.95916910  0.56911647  1  0  0.108607  0  0.957397  0  0  0.127587  0  1.023028  0  0  0.128729  0  1.022583  0  0  0.09866  0.126679  0  1.02324  0
H  H20  1  0.17317051  0.45916915  0.93088406  1  0  0.108598  0  0.9574  0  0  0.127582  0  1.02302  0  0  0.128724  0  1.022575  0  0  0.098661  0.126675  0  1.023234  0
H  H21  1  0.82682871  0.04083147  0.43088442  1  0  0.108529  0  0.957463  0  0  0.127539  0  1.023066  0  0  0.128681  0  1.02262  0  0  0.098636  0.126631  0  1.023277  0
H  H22  1  0.51050648  0.40090027  0.07364875  1  0  0.101825  0  0.953487  0  0  0.119507  0  1.023455  0  0  0.120168  0  1.023441  0  0  0.098185  0.118874  0  1.023622  0
H  H23  1  0.48949400  0.09910047  0.57364873  1  0  0.101861  0  0.953443  0  0  0.119549  0  1.023399  0  0  0.120209  0  1.023385  0  0  0.09821  0.118915  0  1.023564  0
H  H24  1  0.48949407  0.59910031  0.92635007  1  0  0.101837  0  0.953491  0  0  0.119524  0  1.023452  0  0  0.120184  0  1.023439  0  0  0.098198  0.11889  0  1.02362  0
H  H25  1  0.51050655  0.90090011  0.42635078  1  0  0.101833  0  0.953466  0  0  0.119518  0  1.023436  0  0  0.120178  0  1.023421  0  0  0.098188  0.118884  0  1.023601  0
C  C26  1  0.35161787  0.64016055  0.29851075  1  0  -0.002264  0  3.764549  0  0  -0.038491  0  4.03671  0  0  -0.036332  0  4.057034  0  0  -0.012297  -0.039621  0  4.022982  0
C  C27  1  0.64838378  0.85983889  0.79851080  1  0  -0.002251  0  3.764552  0  0  -0.038475  0  4.036715  0  0  -0.036315  0  4.057038  0  0  -0.012301  -0.039608  0  4.022986  0
C  C28  1  0.64838254  0.35983901  0.70149013  1  0  -0.002283  0  3.76456  0  0  -0.038493  0  4.036724  0  0  -0.036334  0  4.057045  0  0  -0.012368  -0.039627  0  4.022995  0
C  C29  1  0.35161677  0.14016168  0.20148939  1  0  -0.002293  0  3.764494  0  0  -0.038495  0  4.036678  0  0  -0.036332  0  4.056992  0  0  -0.01235  -0.03963  0  4.022957  0
C  C30  1  0.40884693  0.62576612  0.20593825  1  0  -0.075101  0  3.663636  0  0  -0.11256  0  3.92011  0  0  -0.111252  0  3.938388  0  0  -0.005785  -0.112809  0  3.907815  0
C  C31  1  0.59115893  0.87423440  0.70593756  1  0  -0.075089  0  3.663625  0  0  -0.112554  0  3.920098  0  0  -0.111248  0  3.938377  0  0  -0.005786  -0.112802  0  3.907798  0
C  C32  1  0.59115628  0.37423549  0.79406057  1  0  -0.075103  0  3.663636  0  0  -0.112525  0  3.920107  0  0  -0.111217  0  3.938383  0  0  -0.005772  -0.112781  0  3.907816  0
C  C33  1  0.40884402  0.12576517  0.29406263  1  0  -0.075151  0  3.663731  0  0  -0.112659  0  3.920207  0  0  -0.11135  0  3.938485  0  0  -0.005839  -0.112908  0  3.907913  0
C  C34  1  0.64883681  0.46263550  0.28257556  1  0  0.150696  0  3.681373  0  0  0.091697  0  3.942338  0  0  0.105022  0  3.957301  0  0  0.133934  0.082404  0  3.933678  0
C  C35  1  0.35116575  0.03736416  0.78257545  1  0  0.15065  0  3.681449  0  0  0.091632  0  3.94244  0  0  0.104958  0  3.9574  0  0  0.133901  0.082339  0  3.933775  0
C  C36  1  0.35115868  0.53736505  0.71742395  1  0  0.150683  0  3.681297  0  0  0.091684  0  3.942266  0  0  0.10501  0  3.957223  0  0  0.133911  0.082391  0  3.933595  0
C  C37  1  0.64883480  0.96263642  0.21742406  1  0  0.150718  0  3.681423  0  0  0.091718  0  3.942398  0  0  0.105044  0  3.957357  0  0  0.133936  0.082423  0  3.933733  0
C  C38  1  0.71627758  0.45659762  0.11141286  1  0  -0.176645  0  3.639578  0  0  -0.280161  0  3.886316  0  0  -0.276921  0  3.895121  0  0  -0.134083  -0.281955  0  3.880251  0
C  C39  1  0.28372077  0.04340309  0.61141338  1  0  -0.176698  0  3.639551  0  0  -0.280214  0  3.886277  0  0  -0.276974  0  3.895079  0  0  -0.134106  -0.282008  0  3.880207  0
C  C40  1  0.28371805  0.54340395  0.88858665  1  0  -0.176671  0  3.639664  0  0  -0.280169  0  3.886372  0  0  -0.276929  0  3.895174  0  0  -0.134109  -0.281962  0  3.880304  0
C  C41  1  0.71627725  0.95659747  0.38858682  1  0  -0.176593  0  3.639561  0  0  -0.28013  0  3.886286  0  0  -0.27689  0  3.895089  0  0  -0.134065  -0.281923  0  3.880214  0
N  N42  1  0.50283749  0.53807917  0.34534375  1  0  -0.385397  0  3.317235  0  0  -0.306708  0  3.594552  0  0  -0.32914  0  3.615732  0  0  -0.365421  -0.291236  0  3.579599  0
N  N43  1  0.49716467  0.96192026  0.84534366  1  0  -0.385396  0  3.317268  0  0  -0.3067  0  3.59458  0  0  -0.329132  0  3.615762  0  0  -0.365398  -0.291228  0  3.579624  0
N  N44  1  0.49716027  0.46191935  0.65465576  1  0  -0.385457  0  3.317243  0  0  -0.306766  0  3.594554  0  0  -0.3292  0  3.615738  0  0  -0.365399  -0.291291  0  3.57959  0
N  N45  1  0.50283828  0.03807930  0.15465654  1  0  -0.385425  0  3.317295  0  0  -0.306741  0  3.594613  0  0  -0.329174  0  3.615795  0  0  -0.365422  -0.291269  0  3.579659  0
N  N46  1  0.59488318  0.51192980  0.19708591  1  0  -0.027432  0  3.609664  0  0  0.075681  0  3.820977  0  0  0.060753  0  3.849114  0  0  -0.249892  0.085456  0  3.80208  0
N  N47  1  0.40511487  0.98806965  0.69708642  1  0  -0.027417  0  3.609643  0  0  0.075703  0  3.820972  0  0  0.060774  0  3.849108  0  0  -0.249888  0.085477  0  3.802067  0
N  N48  1  0.40511471  0.48806974  0.80291497  1  0  -0.027381  0  3.609554  0  0  0.075722  0  3.820862  0  0  0.060793  0  3.848997  0  0  -0.249858  0.085495  0  3.80196  0
N  N49  1  0.59488554  0.01192990  0.30291377  1  0  -0.027398  0  3.609613  0  0  0.075725  0  3.820935  0  0  0.060794  0  3.849073  0  0  -0.249847  0.0855  0  3.802034  0
Cl  Cl50  1  0.04040446  0.69013356  0.52224503  1  0  -0.599309  0  0.897741  0  0  -0.539466  0  1.171219  0  0  -0.555513  0  1.151082  0  0  -0.315383  -0.527747  0  1.184822  0
Cl  Cl51  1  0.95959173  0.80986593  0.02224612  1  0  -0.59933  0  0.897743  0  0  -0.539482  0  1.171218  0  0  -0.55553  0  1.151082  0  0  -0.315391  -0.527761  0  1.18482  0
Cl  Cl52  1  0.95959343  0.30986598  0.47775447  1  0  -0.599307  0  0.897751  0  0  -0.539477  0  1.17124  0  0  -0.555524  0  1.151104  0  0  -0.315388  -0.527759  0  1.184842  0
Cl  Cl53  1  0.04040882  0.19013464  0.97775408  1  0  -0.599334  0  0.89776  0  0  -0.539481  0  1.171217  0  0  -0.555527  0  1.15108  0  0  -0.315392  -0.527762  0  1.18482  0
