# generated using pymatgen
data_H8WC10N2O3
_symmetry_space_group_name_H-M   'P 1'
_cell_length_a   7.36529241
_cell_length_b   8.53290271
_cell_length_c   8.53290221
_cell_angle_alpha   67.29538991
_cell_angle_beta   79.89863159
_cell_angle_gamma   79.89853158
_symmetry_Int_Tables_number   1
_chemical_formula_structural   H8WC10N2O3
_chemical_formula_sum   'H16 W2 C20 N4 O6'
_cell_volume   483.60804681
_cell_formula_units_Z   2
loop_
 _symmetry_equiv_pos_site_id
 _symmetry_equiv_pos_as_xyz
  1  'x, y, z'
loop_
 _atom_site_type_symbol
 _atom_site_label
 _atom_site_symmetry_multiplicity
 _atom_site_fract_x
 _atom_site_fract_y
 _atom_site_fract_z
 _atom_site_occupancy
 _atom_site_pbe_bader_spin_density
 _atom_site_pbe_cm5_charge
 _atom_site_pbe_ddec_charge
 _atom_site_pbe_ddec_spin_density
 _atom_site_pbe_ddec_sum_bond_order
 _atom_site_pbe_magmom
H  H0  1  0.37667720  0.55358815  0.94633129  1  0  0.11757  0.083701  0  1.03144  0
H  H1  1  0.87667212  0.94633988  0.55358657  1  0  0.117548  0.083769  0  1.03133  0
H  H2  1  0.39386593  0.70176776  0.62553617  1  0  0.107567  0.117172  0  1.021062  0
H  H3  1  0.89386203  0.62554530  0.70176792  1  0  0.107569  0.117176  0  1.021111  0
H  H4  1  0.47957470  0.51637355  0.44532324  1  0  0.109789  0.116477  0  1.025008  0
H  H5  1  0.97957789  0.44532392  0.51638449  1  0  0.109742  0.116452  0  1.024985  0
H  H6  1  0.56554692  0.20818409  0.58575118  1  0  0.11234  0.125556  0  1.035825  0
H  H7  1  0.06555334  0.58575112  0.20819309  1  0  0.11235  0.125539  0  1.035844  0
H  H8  1  0.60139838  0.95168777  0.71799504  1  0  0.110049  0.131873  0  1.027423  0
H  H9  1  0.10140166  0.71799078  0.95169003  1  0  0.110025  0.131856  0  1.027395  0
H  H10  1  0.68787867  0.64384615  0.89791878  1  0  0.109045  0.1048  0  1.016227  0
H  H11  1  0.18788048  0.89791426  0.64384698  1  0  0.109056  0.104771  0  1.016267  0
H  H12  1  0.67337189  0.55767739  0.21240736  1  0  0.113864  0.119299  0  1.02808  0
H  H13  1  0.17337572  0.21240559  0.55767929  1  0  0.113838  0.119293  0  1.028109  0
H  H14  1  0.57634666  0.78758224  0.34014900  1  0  0.116352  0.085509  0  1.029205  0
H  H15  1  0.07634909  0.34014523  0.78758585  1  0  0.116384  0.085542  0  1.029207  0
W  W16  1  0.46695718  0.18870867  0.23632772  1  0  1.620909  2.164528  0  5.028274  0
W  W17  1  0.96695672  0.23633143  0.18870410  1  0  1.62094  2.164702  0  5.027923  0
C  C18  1  0.41835744  0.48340041  0.86057832  1  0  0.051664  0.1058  0  3.950659  0
C  C19  1  0.91835502  0.86058623  0.48339837  1  0  0.051545  0.105617  0  3.950635  0
C  C20  1  0.42619924  0.56343273  0.68341089  1  0  -0.082713  -0.134387  0  3.954325  0
C  C21  1  0.92619638  0.68341858  0.56343581  1  0  -0.082671  -0.134382  0  3.954366  0
C  C22  1  0.47827029  0.46286585  0.58356290  1  0  -0.062906  -0.013709  0  3.923214  0
C  C23  1  0.97827456  0.58356597  0.46286692  1  0  -0.06286  -0.013677  0  3.92321  0
C  C24  1  0.52468616  0.28748492  0.66286758  1  0  -0.068855  -0.12999  0  3.89192  0
C  C25  1  0.02468905  0.66286692  0.28749036  1  0  -0.068881  -0.12994  0  3.892006  0
C  C26  1  0.51473083  0.21601951  0.84121365  1  0  0.121879  0.171747  0  3.970182  0
C  C27  1  0.01472728  0.84121410  0.21601828  1  0  0.121903  0.171723  0  3.970296  0
C  C28  1  0.55661628  0.03114102  0.93582439  1  0  0.12185  0.181938  0  3.964848  0
C  C29  1  0.05661854  0.93581821  0.03114400  1  0  0.121798  0.181854  0  3.964958  0
C  C30  1  0.60262625  0.91143185  0.85568637  1  0  -0.076765  -0.15723  0  3.902328  0
C  C31  1  0.10262699  0.85568183  0.91143699  1  0  -0.07665  -0.157126  0  3.902525  0
C  C32  1  0.64678949  0.74015105  0.95564992  1  0  -0.063194  -0.016551  0  3.945384  0
C  C33  1  0.14679152  0.95564225  0.74015722  1  0  -0.063333  -0.016617  0  3.945665  0
C  C34  1  0.63872377  0.69069698  0.13223634  1  0  -0.073013  -0.099461  0  3.932759  0
C  C35  1  0.13872765  0.13223145  0.69069757  1  0  -0.072957  -0.099455  0  3.932675  0
C  C36  1  0.58584228  0.81605737  0.20322672  1  0  0.048698  0.093981  0  3.937171  0
C  C37  1  0.08584326  0.20322332  0.81605851  1  0  0.048658  0.093933  0  3.937212  0
N  N38  1  0.46217290  0.31423372  0.93748240  1  0  -0.334915  -0.293365  0  3.524985  0
N  N39  1  0.96217269  0.93748652  0.31422972  1  0  -0.334842  -0.293287  0  3.524964  0
N  N40  1  0.54738866  0.98186924  0.10753480  1  0  -0.33621  -0.290895  0  3.516389  0
N  N41  1  0.04738555  0.10753564  0.98187171  1  0  -0.336157  -0.290823  0  3.516447  0
O  O42  1  0.22451913  0.14727795  0.22093073  1  0  -0.628264  -0.943132  0  2.294529  0
O  O43  1  0.72451594  0.22093538  0.14727431  1  0  -0.628295  -0.943162  0  2.294525  0
O  O44  1  0.50280376  0.03028882  0.43929600  1  0  -0.571849  -0.773601  0  1.762389  0
O  O45  1  0.00280667  0.43929933  0.03028258  1  0  -0.57186  -0.77361  0  1.762234  0
O  O46  1  0.40128107  0.38367012  0.26792110  1  0  -0.562898  -0.750092  0  1.762607  0
O  O47  1  0.90128279  0.26792829  0.38366369  1  0  -0.562847  -0.750117  0  1.762597  0
