# generated using pymatgen
data_CdPH14C20NO6
_symmetry_space_group_name_H-M   'P 1'
_cell_length_a   9.87535513
_cell_length_b   10.09587562
_cell_length_c   10.31642007
_cell_angle_alpha   101.14902241
_cell_angle_beta   107.05751660
_cell_angle_gamma   97.27489630
_symmetry_Int_Tables_number   1
_chemical_formula_structural   CdPH14C20NO6
_chemical_formula_sum   'Cd2 P2 H28 C40 N2 O12'
_cell_volume   946.13707364
_cell_formula_units_Z   2
loop_
 _symmetry_equiv_pos_site_id
 _symmetry_equiv_pos_as_xyz
  1  'x, y, z'
loop_
 _atom_site_type_symbol
 _atom_site_label
 _atom_site_symmetry_multiplicity
 _atom_site_fract_x
 _atom_site_fract_y
 _atom_site_fract_z
 _atom_site_occupancy
 _atom_site_hle17_bader_spin_density
 _atom_site_hle17_ddec_charge
 _atom_site_hle17_ddec_spin_density
 _atom_site_hle17_ddec_sum_bond_order
 _atom_site_hle17_magmom
 _atom_site_hse06_10hf_bader_spin_density
 _atom_site_hse06_10hf_ddec_charge
 _atom_site_hse06_10hf_ddec_spin_density
 _atom_site_hse06_10hf_ddec_sum_bond_order
 _atom_site_hse06_10hf_magmom
 _atom_site_hse06_bader_spin_density
 _atom_site_hse06_ddec_charge
 _atom_site_hse06_ddec_spin_density
 _atom_site_hse06_ddec_sum_bond_order
 _atom_site_hse06_magmom
 _atom_site_pbe_bader_spin_density
 _atom_site_pbe_cm5_charge
 _atom_site_pbe_ddec_charge
 _atom_site_pbe_ddec_spin_density
 _atom_site_pbe_ddec_sum_bond_order
 _atom_site_pbe_magmom
Cd  Cd0  1  0.73218811  0.06850530  0.02981562  1  0  1.269685  0  1.633462  0  0  1.092472  0  2.094169  0  0  1.146373  0  2.035782  0  0  0.807471  1.053222  0  2.135535  0
Cd  Cd1  1  0.26781107  0.93149364  0.97018420  1  0  1.269694  0  1.633444  0  0  1.092485  0  2.094143  0  0  1.146389  0  2.035756  0  0  0.807474  1.053241  0  2.135513  0
P  P2  1  0.09599350  0.11047880  0.22443654  1  0  1.199708  0  4.708292  0  0  1.063717  0  5.172853  0  0  1.106676  0  5.148531  0  0  0.299584  1.033657  0  5.189136  0
P  P3  1  0.90400695  0.88952118  0.77556383  1  0  1.199707  0  4.708271  0  0  1.063714  0  5.172849  0  0  1.106672  0  5.148524  0  0  0.29959  1.033655  0  5.18913  0
H  H4  1  0.15731328  0.87601646  0.18958557  1  0  0.403657  0  0.884033  0  0  0.374277  0  0.958564  0  0  0.386424  0  0.945882  0  0  0.303269  0.36453  0  0.968841  0
H  H5  1  0.84268696  0.12398249  0.81041455  1  0  0.403637  0  0.88405  0  0  0.374258  0  0.958578  0  0  0.386404  0  0.945898  0  0  0.303262  0.364509  0  0.968858  0
H  H6  1  0.39566455  0.11074945  0.36458058  1  0  0.102211  0  0.954921  0  0  0.110937  0  1.018647  0  0  0.114135  0  1.017463  0  0  0.103354  0.108103  0  1.020566  0
H  H7  1  0.60433543  0.88925361  0.63542024  1  0  0.102264  0  0.954982  0  0  0.111  0  1.018682  0  0  0.114199  0  1.017497  0  0  0.103376  0.108161  0  1.020603  0
H  H8  1  0.53327296  0.11622155  0.61161477  1  0  0.097397  0  0.967688  0  0  0.105304  0  1.034871  0  0  0.108652  0  1.032981  0  0  0.100044  0.10267  0  1.036592  0
H  H9  1  0.46672682  0.88378048  0.38838580  1  0  0.09742  0  0.967678  0  0  0.105329  0  1.034855  0  0  0.108681  0  1.032962  0  0  0.100056  0.102693  0  1.036587  0
H  H10  1  0.15418117  0.15405945  0.72794496  1  0  0.114343  0  0.946584  0  0  0.122347  0  1.008312  0  0  0.126386  0  1.005374  0  0  0.10489  0.119195  0  1.011016  0
H  H11  1  0.84581781  0.84593847  0.27205460  1  0  0.114309  0  0.946581  0  0  0.122324  0  1.008306  0  0  0.126364  0  1.005368  0  0  0.10488  0.11917  0  1.011015  0
H  H12  1  0.01527979  0.15029114  0.48177249  1  0  0.087953  0  0.96284  0  0  0.099313  0  1.024489  0  0  0.102031  0  1.02354  0  0  0.099943  0.096686  0  1.026746  0
H  H13  1  0.98471939  0.84970780  0.51822636  1  0  0.087946  0  0.96286  0  0  0.099312  0  1.024498  0  0  0.102032  0  1.023547  0  0  0.099942  0.096682  0  1.026762  0
H  H14  1  0.22963748  0.23431106  0.03605130  1  0  0.113277  0  0.964033  0  0  0.121493  0  1.028398  0  0  0.125  0  1.026139  0  0  0.105608  0.118218  0  1.03161  0
H  H15  1  0.77036190  0.76568891  0.96394779  1  0  0.11328  0  0.964039  0  0  0.121498  0  1.0284  0  0  0.125004  0  1.026142  0  0  0.105611  0.118225  0  1.031612  0
H  H16  1  0.24681268  0.46967138  0.99500311  1  0  0.100487  0  0.939656  0  0  0.111603  0  0.997578  0  0  0.11525  0  0.995415  0  0  0.10622  0.108803  0  0.999496  0
H  H17  1  0.75318690  0.53032962  0.00499721  1  0  0.100487  0  0.939702  0  0  0.111607  0  0.997622  0  0  0.115253  0  0.99546  0  0  0.106224  0.108806  0  0.999541  0
H  H18  1  0.04371489  0.59346927  0.30278563  1  0  0.10027  0  0.939602  0  0  0.112723  0  0.995685  0  0  0.115783  0  0.994206  0  0  0.107798  0.109872  0  0.997975  0
H  H19  1  0.95628641  0.40652969  0.69721576  1  0  0.100306  0  0.939575  0  0  0.112748  0  0.995667  0  0  0.115808  0  0.994188  0  0  0.107817  0.109898  0  0.997956  0
H  H20  1  0.02026070  0.35754670  0.34157887  1  0  0.089387  0  0.94251  0  0  0.101372  0  1.00044  0  0  0.10383  0  1.000037  0  0  0.104634  0.099265  0  1.001366  0
H  H21  1  0.97973953  0.64245225  0.65842222  1  0  0.089401  0  0.942515  0  0  0.1014  0  1.000424  0  0  0.103858  0  1.00002  0  0  0.10464  0.099294  0  1.001351  0
H  H22  1  0.58787749  0.33448323  0.06636824  1  0  0.083063  0  0.935149  0  0  0.092868  0  0.994518  0  0  0.095216  0  0.992133  0  0  0.117358  0.090858  0  0.996665  0
H  H23  1  0.41212528  0.66551780  0.93363201  1  0  0.083051  0  0.935061  0  0  0.092856  0  0.994435  0  0  0.095204  0  0.99205  0  0  0.117344  0.09085  0  0.996577  0
H  H24  1  0.51323275  0.48759055  0.24135933  1  0  0.103546  0  0.955715  0  0  0.114669  0  1.013559  0  0  0.117298  0  1.013975  0  0  0.106442  0.113455  0  1.011941  0
H  H25  1  0.48676664  0.51240942  0.75863976  1  0  0.103514  0  0.955737  0  0  0.114644  0  1.013572  0  0  0.117275  0  1.013985  0  0  0.106446  0.113433  0  1.01195  0
H  H26  1  0.71189635  0.26501026  0.54217931  1  0  0.110121  0  0.96252  0  0  0.117922  0  1.028135  0  0  0.120988  0  1.027551  0  0  0.106707  0.115716  0  1.028774  0
H  H27  1  0.28810430  0.73499075  0.45782034  1  0  0.110118  0  0.962527  0  0  0.11792  0  1.028137  0  0  0.120986  0  1.027554  0  0  0.106721  0.115715  0  1.02878  0
H  H28  1  0.78223980  0.12504568  0.35394756  1  0  0.080254  0  0.964693  0  0  0.088832  0  1.029671  0  0  0.090389  0  1.029007  0  0  0.115005  0.087611  0  1.030228  0
H  H29  1  0.21776191  0.87495534  0.64605240  1  0  0.080261  0  0.9647  0  0  0.088842  0  1.029668  0  0  0.090396  0  1.029012  0  0  0.115017  0.087622  0  1.030233  0
H  H30  1  0.60388275  0.45463628  0.61973868  1  0  0.089108  0  0.96846  0  0  0.09925  0  1.033487  0  0  0.100961  0  1.03445  0  0  0.101662  0.098266  0  1.032294  0
H  H31  1  0.39611663  0.54536369  0.38026042  1  0  0.089136  0  0.968455  0  0  0.099282  0  1.033481  0  0  0.100993  0  1.034444  0  0  0.101659  0.098295  0  1.032293  0
C  C32  1  0.19652508  0.13078431  0.40740272  1  0  -0.206985  0  3.758397  0  0  -0.169631  0  3.999113  0  0  -0.177747  0  4.02283  0  0  -0.028038  -0.164576  0  3.983063  0
C  C33  1  0.80347430  0.86921566  0.59259735  1  0  -0.206973  0  3.758366  0  0  -0.169625  0  3.999092  0  0  -0.177741  0  4.02281  0  0  -0.028047  -0.164566  0  3.983029  0
C  C34  1  0.34369116  0.12403437  0.44484201  1  0  -0.056339  0  3.751038  0  0  -0.076602  0  3.997753  0  0  -0.077995  0  4.019572  0  0  -0.085973  -0.074917  0  3.982323  0
C  C35  1  0.65630863  0.87596767  0.55515953  1  0  -0.056413  0  3.751062  0  0  -0.076678  0  3.997771  0  0  -0.078071  0  4.019592  0  0  -0.085989  -0.074988  0  3.982329  0
C  C36  1  0.42067242  0.12697014  0.58225305  1  0  -0.073819  0  3.730093  0  0  -0.097479  0  3.978449  0  0  -0.098205  0  3.999101  0  0  -0.087769  -0.096173  0  3.962683  0
C  C37  1  0.57932717  0.87303086  0.41774630  1  0  -0.073881  0  3.730021  0  0  -0.097554  0  3.978375  0  0  -0.098283  0  3.999028  0  0  -0.087796  -0.096245  0  3.962602  0
C  C38  1  0.35227362  0.13605647  0.68428965  1  0  -0.072465  0  3.756698  0  0  -0.046409  0  3.98578  0  0  -0.053776  0  4.008863  0  0  -0.02146  -0.040728  0  3.967425  0
C  C39  1  0.64772577  0.86394350  0.31570945  1  0  -0.072468  0  3.756646  0  0  -0.046382  0  3.985705  0  0  -0.05375  0  4.00879  0  0  -0.02147  -0.040703  0  3.967351  0
C  C40  1  0.20720528  0.14964800  0.64869304  1  0  -0.072923  0  3.715616  0  0  -0.095106  0  3.962021  0  0  -0.095652  0  3.981477  0  0  -0.085815  -0.094395  0  3.948042  0
C  C41  1  0.79279390  0.85035095  0.35130677  1  0  -0.072827  0  3.715549  0  0  -0.095027  0  3.961941  0  0  -0.095571  0  3.981398  0  0  -0.085784  -0.094314  0  3.94796  0
C  C42  1  0.12986903  0.14663072  0.51085394  1  0  -0.051058  0  3.754574  0  0  -0.070724  0  3.998535  0  0  -0.072117  0  4.020702  0  0  -0.083805  -0.069582  0  3.984506  0
C  C43  1  0.87013121  0.85336823  0.48914617  1  0  -0.051078  0  3.754572  0  0  -0.070747  0  3.998541  0  0  -0.072141  0  4.020706  0  0  -0.083812  -0.069605  0  3.984511  0
C  C44  1  0.42989199  0.11379348  0.82552783  1  0  0.651679  0  3.92794  0  0  0.5982  0  4.227762  0  0  0.633161  0  4.21981  0  0  0.204494  0.574765  0  4.231089  0
C  C45  1  0.57010719  0.88620547  0.17447199  1  0  0.651723  0  3.927965  0  0  0.598224  0  4.227805  0  0  0.633184  0  4.219852  0  0  0.204509  0.574781  0  4.231142  0
C  C46  1  0.12470823  0.28066651  0.19293143  1  0  -0.192439  0  3.736087  0  0  -0.156195  0  3.97975  0  0  -0.163663  0  4.002225  0  0  -0.01824  -0.150948  0  3.965208  0
C  C47  1  0.87529095  0.71933243  0.80706838  1  0  -0.192361  0  3.736062  0  0  -0.15612  0  3.979726  0  0  -0.163591  0  4.002201  0  0  -0.018204  -0.150874  0  3.965187  0
C  C48  1  0.18892295  0.31197689  0.09530336  1  0  -0.043824  0  3.712732  0  0  -0.065649  0  3.959749  0  0  -0.066666  0  3.980845  0  0  -0.078564  -0.065267  0  3.947446  0
C  C49  1  0.81107643  0.68802308  0.90469671  1  0  -0.043889  0  3.71273  0  0  -0.065716  0  3.959757  0  0  -0.066733  0  3.980853  0  0  -0.078592  -0.065341  0  3.947463  0
C  C50  1  0.19991014  0.44402443  0.07257877  1  0  -0.068177  0  3.720296  0  0  -0.092837  0  3.970904  0  0  -0.093527  0  3.990665  0  0  -0.08073  -0.0925  0  3.957989  0
C  C51  1  0.80008838  0.55597657  0.92742221  1  0  -0.068108  0  3.720203  0  0  -0.092782  0  3.9708  0  0  -0.093472  0  3.990564  0  0  -0.080709  -0.092448  0  3.957884  0
C  C52  1  0.14994860  0.54620078  0.14864056  1  0  -0.083635  0  3.784513  0  0  -0.059793  0  4.019971  0  0  -0.067323  0  4.043303  0  0  -0.019062  -0.054687  0  4.004147  0
C  C53  1  0.85005078  0.45379919  0.85135951  1  0  -0.083746  0  3.78454  0  0  -0.059863  0  4.019964  0  0  -0.067394  0  4.043295  0  0  -0.019119  -0.054746  0  4.004127  0
C  C54  1  0.08548468  0.51476604  0.24626187  1  0  -0.063834  0  3.723861  0  0  -0.090754  0  3.977699  0  0  -0.090606  0  3.99648  0  0  -0.079722  -0.090443  0  3.965457  0
C  C55  1  0.91451576  0.48523394  0.75374043  1  0  -0.063853  0  3.723853  0  0  -0.090774  0  3.977673  0  0  -0.090626  0  3.996453  0  0  -0.079705  -0.090468  0  3.965435  0
C  C56  1  0.07272808  0.38274436  0.26756499  1  0  -0.033268  0  3.73528  0  0  -0.054745  0  3.985521  0  0  -0.055172  0  4.005605  0  0  -0.07335  -0.054334  0  3.971723  0
C  C57  1  0.92727130  0.61725561  0.73243604  1  0  -0.033307  0  3.735317  0  0  -0.054792  0  3.985547  0  0  -0.055219  0  4.005632  0  0  -0.073394  -0.054385  0  3.971752  0
C  C58  1  0.16431579  0.68567075  0.12156318  1  0  0.656095  0  3.814895  0  0  0.605064  0  4.109036  0  0  0.638637  0  4.101378  0  0  0.232568  0.581981  0  4.114202  0
C  C59  1  0.83568379  0.31433025  0.87843810  1  0  0.656144  0  3.81493  0  0  0.605094  0  4.10907  0  0  0.638666  0  4.101411  0  0  0.232574  0.582014  0  4.114228  0
C  C60  1  0.61263394  0.32301937  0.17311874  1  0  0.146072  0  3.723952  0  0  0.114334  0  3.977872  0  0  0.122483  0  3.995404  0  0  0.048328  0.109051  0  3.96571  0
C  C61  1  0.38736671  0.67698164  0.82687995  1  0  0.146032  0  3.723886  0  0  0.114288  0  3.977817  0  0  0.122436  0  3.995349  0  0  0.048351  0.109008  0  3.965651  0
C  C62  1  0.57057165  0.40712538  0.27113597  1  0  -0.163429  0  3.69445  0  0  -0.175616  0  3.930823  0  0  -0.184461  0  3.953102  0  0  -0.080658  -0.169797  0  3.914348  0
C  C63  1  0.42942880  0.59287460  0.72886343  1  0  -0.163264  0  3.69449  0  0  -0.175445  0  3.930828  0  0  -0.184289  0  3.953106  0  0  -0.080626  -0.169628  0  3.914349  0
C  C64  1  0.60190533  0.38660417  0.40710668  1  0  0.139617  0  3.80462  0  0  0.154717  0  4.031205  0  0  0.160509  0  4.053569  0  0  0.010193  0.151307  0  4.016264  0
C  C65  1  0.39809511  0.61339581  0.59289369  1  0  0.139561  0  3.804743  0  0  0.15466  0  4.031332  0  0  0.160452  0  4.053698  0  0  0.010219  0.151255  0  4.016391  0
C  C66  1  0.68239810  0.28471113  0.43825168  1  0  -0.167353  0  3.690802  0  0  -0.181464  0  3.933663  0  0  -0.190402  0  3.955403  0  0  -0.081996  -0.175983  0  3.919848  0
C  C67  1  0.31760255  0.71528988  0.56174797  1  0  -0.167329  0  3.690845  0  0  -0.181442  0  3.933706  0  0  -0.190381  0  3.955447  0  0  -0.081999  -0.175959  0  3.919897  0
C  C68  1  0.72115052  0.20577710  0.33404146  1  0  0.128413  0  3.728051  0  0  0.098022  0  3.979151  0  0  0.105413  0  3.998697  0  0  0.043978  0.092989  0  3.966385  0
C  C69  1  0.27885012  0.79422391  0.66595819  1  0  0.128407  0  3.728072  0  0  0.09802  0  3.97917  0  0  0.10541  0  3.998715  0  0  0.043947  0.092985  0  3.966417  0
C  C70  1  0.55233315  0.46271945  0.51309440  1  0  -0.090338  0  3.712078  0  0  -0.109898  0  3.961135  0  0  -0.113374  0  3.98302  0  0  -0.076159  -0.108056  0  3.946636  0
C  C71  1  0.44766709  0.53727950  0.48690475  1  0  -0.090418  0  3.712104  0  0  -0.11  0  3.961173  0  0  -0.113477  0  3.983059  0  0  -0.076186  -0.10816  0  3.946677  0
N  N72  1  0.68515728  0.22263741  0.20298243  1  0  -0.34303  0  3.259687  0  0  -0.268344  0  3.52877  0  0  -0.288646  0  3.546764  0  0  -0.329982  -0.254464  0  3.516533  0
N  N73  1  0.31484443  0.77736361  0.79701752  1  0  -0.34306  0  3.259708  0  0  -0.268378  0  3.528793  0  0  -0.28868  0  3.546788  0  0  -0.330003  -0.254501  0  3.516563  0
O  O74  1  0.36744570  0.12554831  0.91814422  1  0  -0.678699  0  2.024835  0  0  -0.617471  0  2.289013  0  0  -0.643957  0  2.274784  0  0  -0.341523  -0.598844  0  2.29843  0
O  O75  1  0.63255455  0.87445065  0.08185589  1  0  -0.678709  0  2.024821  0  0  -0.617478  0  2.289011  0  0  -0.643964  0  2.274785  0  0  -0.341532  -0.598847  0  2.29843  0
O  O76  1  0.55188486  0.07922170  0.83889373  1  0  -0.649902  0  2.05168  0  0  -0.586787  0  2.318495  0  0  -0.615606  0  2.307117  0  0  -0.326113  -0.566011  0  2.325686  0
O  O77  1  0.44811518  0.92077623  0.16110614  1  0  -0.649928  0  2.051724  0  0  -0.58681  0  2.318545  0  0  -0.615633  0  2.307174  0  0  -0.326112  -0.566033  0  2.32574  0
O  O78  1  0.14864167  0.78371262  0.21915293  1  0  -0.545167  0  2.070566  0  0  -0.493256  0  2.283574  0  0  -0.515104  0  2.269838  0  0  -0.327113  -0.477119  0  2.294233  0
O  O79  1  0.85135877  0.21628736  0.78084841  1  0  -0.545133  0  2.070514  0  0  -0.49322  0  2.283527  0  0  -0.515068  0  2.269793  0  0  -0.3271  -0.477092  0  2.294189  0
O  O80  1  0.19003214  0.70616208  0.01561081  1  0  -0.586499  0  2.04817  0  0  -0.534849  0  2.297103  0  0  -0.56062  0  2.291351  0  0  -0.283905  -0.516479  0  2.300326  0
O  O81  1  0.80996492  0.29383685  0.98438937  1  0  -0.586539  0  2.048249  0  0  -0.534882  0  2.297186  0  0  -0.560655  0  2.291435  0  0  -0.283918  -0.516516  0  2.300401  0
O  O82  1  0.93686357  0.06628291  0.20376157  1  0  -0.807964  0  2.012854  0  0  -0.730249  0  2.297403  0  0  -0.758895  0  2.279666  0  0  -0.371416  -0.709388  0  2.308564  0
O  O83  1  0.06313647  0.93371501  0.79623733  1  0  -0.807957  0  2.012845  0  0  -0.730247  0  2.297402  0  0  -0.758893  0  2.279664  0  0  -0.371403  -0.709387  0  2.308561  0
O  O84  1  0.16410161  0.01243004  0.14066421  1  0  -0.815178  0  2.043949  0  0  -0.725558  0  2.307996  0  0  -0.752059  0  2.287062  0  0  -0.368155  -0.705507  0  2.323336  0
O  O85  1  0.83589884  0.98756994  0.85933616  1  0  -0.815174  0  2.043986  0  0  -0.72556  0  2.308037  0  0  -0.752053  0  2.287097  0  0  -0.368163  -0.705514  0  2.32338  0
