# generated using pymatgen
data_CuH8C5N8
_symmetry_space_group_name_H-M   'P 1'
_cell_length_a   8.35599912
_cell_length_b   10.08492685
_cell_length_c   11.82103960
_cell_angle_alpha   90.00038448
_cell_angle_beta   106.60449246
_cell_angle_gamma   90.00052064
_symmetry_Int_Tables_number   1
_chemical_formula_structural   CuH8C5N8
_chemical_formula_sum   'Cu4 H32 C20 N32'
_cell_volume   954.61526700
_cell_formula_units_Z   4
loop_
 _symmetry_equiv_pos_site_id
 _symmetry_equiv_pos_as_xyz
  1  'x, y, z'
loop_
 _atom_site_type_symbol
 _atom_site_label
 _atom_site_symmetry_multiplicity
 _atom_site_fract_x
 _atom_site_fract_y
 _atom_site_fract_z
 _atom_site_occupancy
 _atom_site_hle17_ddec_charge
 _atom_site_hle17_ddec_spin_density
 _atom_site_hle17_ddec_sum_bond_order
 _atom_site_hle17_magmom
 _atom_site_hse06_10hf_ddec_charge
 _atom_site_hse06_10hf_ddec_spin_density
 _atom_site_hse06_10hf_ddec_sum_bond_order
 _atom_site_hse06_10hf_magmom
 _atom_site_hse06_ddec_charge
 _atom_site_hse06_ddec_spin_density
 _atom_site_hse06_ddec_sum_bond_order
 _atom_site_hse06_magmom
 _atom_site_pbe_cm5_charge
 _atom_site_pbe_ddec_charge
 _atom_site_pbe_ddec_spin_density
 _atom_site_pbe_ddec_sum_bond_order
 _atom_site_pbe_magmom
Cu  Cu0  1  0.87112347  0.92929234  0.05639048  1  0.740883  -0.538639  2.031574  -0.361  0.755557  -0.710578  2.448443  -0.536  0.851741  -0.824859  2.369233  -0.643  0.775148  0.704694  -0.613345  2.496973  -0.455
Cu  Cu1  1  0.62887689  0.42929823  0.94360944  1  0.740869  0.538648  2.031547  0.361  0.755513  0.710586  2.448438  0.536  0.851705  0.824864  2.369226  0.643  0.775129  0.704659  0.61336  2.496962  0.455
Cu  Cu2  1  0.12886977  0.07070179  0.94361098  1  0.740842  0.538614  2.031625  0.361  0.755521  0.710557  2.448495  0.536  0.851696  0.824852  2.369321  0.643  0.775182  0.704696  0.613312  2.497038  0.455
Cu  Cu3  1  0.37112635  0.57070481  0.05639153  1  0.740797  -0.538625  2.031701  -0.361  0.755498  -0.71057  2.448583  -0.536  0.851683  -0.824856  2.369386  -0.643  0.775168  0.704665  -0.613311  2.497126  -0.455
H  H4  1  0.94416162  0.73284674  0.25112071  1  0.296223  -0.000795  0.902524  0.0  0.275173  -0.000892  0.974465  0.0  0.28253  -0.000722  0.968785  0.0  0.328309  0.269874  -0.000978  0.978926  -0.001
H  H5  1  0.55584212  0.23284956  0.74888048  1  0.296125  0.000795  0.902458  0.0  0.275087  0.000893  0.974433  0.0  0.282451  0.000722  0.968751  0.0  0.328274  0.269786  0.000978  0.978895  0.001
H  H6  1  0.05584538  0.26715036  0.74887849  1  0.296128  0.000794  0.902476  0.0  0.275101  0.000892  0.974413  0.0  0.282459  0.000722  0.968739  0.0  0.328308  0.269806  0.000977  0.978871  0.001
H  H7  1  0.44415985  0.76715646  0.25112362  1  0.296152  -0.000794  0.902581  0.0  0.275139  -0.000892  0.974477  0.0  0.282499  -0.000722  0.968798  0.0  0.328331  0.26984  -0.000977  0.978938  -0.001
H  H8  1  0.76719300  0.99503326  0.46727500  1  0.135234  -0.000394  0.973816  -0.001  0.14584  -0.000367  1.032731  -0.001  0.148931  -0.000304  1.032407  -0.001  0.105853  0.143561  -0.000388  1.033156  -0.001
H  H9  1  0.73278960  0.49504166  0.53271575  1  0.135207  0.000394  0.973741  0.001  0.145765  0.000367  1.032725  0.001  0.148858  0.000304  1.032399  0.001  0.105813  0.143487  0.000388  1.033151  0.001
H  H10  1  0.23280152  0.00495987  0.53271996  1  0.135206  0.000394  0.973803  0.001  0.145763  0.000367  1.032784  0.001  0.148853  0.000304  1.032461  0.001  0.105813  0.143485  0.000388  1.033209  0.001
H  H11  1  0.26720489  0.50496635  0.46728513  1  0.135274  -0.000394  0.973749  -0.001  0.145874  -0.000367  1.032672  -0.001  0.148966  -0.000304  1.032346  -0.001  0.10584  0.143596  -0.000389  1.033097  -0.001
H  H12  1  0.75655089  0.15790245  0.15034698  1  0.118917  0.000298  0.95267  0.0  0.131033  0.000418  1.029318  0.0  0.133459  0.000409  1.026895  0.0  0.092721  0.128746  0.000387  1.031909  0.0
H  H13  1  0.74343307  0.65791275  0.84964297  1  0.118881  -0.000297  0.95275  0.0  0.130999  -0.000418  1.029395  0.0  0.133427  -0.000409  1.02697  0.0  0.092677  0.128706  -0.000387  1.03199  0.0
H  H14  1  0.24342991  0.84209068  0.84964263  1  0.118964  -0.000297  0.95271  0.0  0.131074  -0.000418  1.029345  0.0  0.133501  -0.000409  1.026921  0.0  0.092705  0.128782  -0.000387  1.031946  0.0
H  H15  1  0.25656891  0.34209130  0.15035859  1  0.118919  0.000297  0.952802  0.0  0.131035  0.000418  1.029423  0.0  0.133462  0.000409  1.026999  0.0  0.092685  0.128746  0.000387  1.032023  0.0
H  H16  1  0.77961792  0.22085448  0.29401901  1  0.108148  8.2e-05  0.977741  0.0  0.126366  1.6e-05  1.04247  0.0  0.128019  3.6e-05  1.042107  0.0  0.089093  0.125034  -6e-06  1.042948  0.0
H  H17  1  0.72036944  0.72086248  0.70597369  1  0.10817  -8.2e-05  0.977662  0.0  0.12636  -1.6e-05  1.042419  0.0  0.128009  -3.6e-05  1.042059  0.0  0.089065  0.125027  6e-06  1.042891  0.0
H  H18  1  0.22036537  0.77913866  0.70597196  1  0.108169  -8.2e-05  0.977645  0.0  0.126354  -1.6e-05  1.042407  0.0  0.128003  -3.6e-05  1.042046  0.0  0.089056  0.125024  5e-06  1.04288  0.0
H  H19  1  0.27963503  0.27914157  0.29403007  1  0.108209  8.2e-05  0.977622  0.0  0.126364  1.6e-05  1.042412  0.0  0.128011  3.6e-05  1.042053  0.0  0.089055  0.125034  -6e-06  1.042884  0.0
H  H20  1  0.59019856  0.14257822  0.21550602  1  0.129946  0.000524  0.948438  0.0  0.149727  0.000251  1.009367  0.0  0.15239  0.000163  1.008787  0.0  0.094415  0.148034  0.000326  1.009496  0.0
H  H21  1  0.90979264  0.64259520  0.78449210  1  0.129962  -0.000524  0.948258  0.0  0.149729  -0.000251  1.009204  0.0  0.152391  -0.000164  1.008623  0.0  0.094409  0.148033  -0.000326  1.009334  0.0
H  H22  1  0.40979094  0.85740797  0.78449214  1  0.129959  -0.000524  0.948271  0.0  0.149712  -0.000251  1.009236  0.0  0.152374  -0.000164  1.008655  0.0  0.094408  0.148017  -0.000326  1.009361  0.0
H  H23  1  0.09020934  0.35740586  0.21551115  1  0.129944  0.000524  0.948278  0.0  0.149693  0.000251  1.009249  0.0  0.152356  0.000163  1.008667  0.0  0.094389  0.147998  0.000326  1.009374  0.0
H  H24  1  0.96836844  0.63327428  0.45639696  1  0.124606  -9.2e-05  0.96019  0.0  0.141494  -0.000112  1.02781  0.0  0.143658  -8.9e-05  1.026514  0.0  0.098128  0.139868  -0.000127  1.028812  0.0
H  H25  1  0.53162512  0.13327332  0.54360158  1  0.124619  9.2e-05  0.960124  0.0  0.14151  0.000112  1.027742  0.0  0.143671  8.9e-05  1.02645  0.0  0.098138  0.139884  0.000127  1.028742  0.0
H  H26  1  0.03164231  0.36672579  0.54360132  1  0.124627  9.2e-05  0.960066  0.0  0.14149  0.000112  1.02772  0.0  0.143649  8.9e-05  1.026428  0.0  0.098112  0.139864  0.000127  1.028723  0.0
H  H27  1  0.46837188  0.86673171  0.45639811  1  0.124609  -9.2e-05  0.960181  0.0  0.141479  -0.000112  1.027817  0.0  0.143639  -8.9e-05  1.026527  0.0  0.098131  0.139854  -0.000127  1.028816  0.0
H  H28  1  0.80541848  0.69249197  0.51217434  1  0.121465  1.2e-05  0.949931  0.0  0.14666  -5e-05  1.003241  0.0  0.147842  -4e-06  1.003575  0.0  0.0986  0.145737  -8.2e-05  1.003111  0.0
H  H29  1  0.69458341  0.19249180  0.48782963  1  0.121509  -1.2e-05  0.949914  0.0  0.146708  5e-05  1.00322  0.0  0.147888  4e-06  1.003556  0.0  0.098614  0.145785  8.2e-05  1.00309  0.0
H  H30  1  0.19460098  0.30750513  0.48783165  1  0.121434  -1.2e-05  0.950067  0.0  0.146644  5e-05  1.003353  0.0  0.147827  4e-06  1.003685  0.0  0.098585  0.145721  8.2e-05  1.003222  0.0
H  H31  1  0.30541731  0.80751423  0.51217421  1  0.121518  1.2e-05  0.950047  0.0  0.146707  -5e-05  1.003346  0.0  0.147887  -4e-06  1.003684  0.0  0.098615  0.145783  -8.2e-05  1.003215  0.0
H  H32  1  0.00814026  0.75860172  0.56738389  1  0.120495  0.000227  0.96226  0.0  0.141383  0.0001  1.023458  0.0  0.142855  0.00011  1.023287  0.0  0.096085  0.140292  9e-05  1.023653  0.0
H  H33  1  0.49186487  0.25859839  0.43261391  1  0.120506  -0.000227  0.96232  0.0  0.141412  -0.000101  1.023499  0.0  0.142885  -0.00011  1.023328  0.0  0.096088  0.140321  -9e-05  1.023694  0.0
H  H34  1  0.99187676  0.24139935  0.43261228  1  0.120454  -0.000227  0.962223  0.0  0.141333  -0.000101  1.023433  0.0  0.142806  -0.000109  1.02326  0.0  0.096068  0.140247  -9e-05  1.023624  0.0
H  H35  1  0.50814585  0.74141061  0.56739197  1  0.120583  0.000227  0.9623  0.0  0.141489  0.0001  1.023469  0.0  0.142964  0.00011  1.023296  0.0  0.096111  0.140394  9e-05  1.023664  0.0
C  C36  1  0.79326882  0.00843351  0.28376114  1  0.281477  0.002862  3.756146  0.002  0.285498  -0.000229  4.018304  -0.001  0.298399  0.000847  4.036488  0.0  0.099495  0.277283  -0.000909  4.005987  -0.002
C  C37  1  0.70671920  0.50844347  0.71623387  1  0.281501  -0.002862  3.75618  -0.002  0.285464  0.000229  4.018389  0.001  0.298364  -0.000846  4.036573  0.0  0.099507  0.277251  0.000909  4.006067  0.002
C  C38  1  0.20672571  0.99155962  0.71623213  1  0.281383  -0.00286  3.756274  -0.002  0.285483  0.00023  4.018354  0.001  0.298389  -0.000845  4.036532  0.0  0.099483  0.277269  0.00091  4.006034  0.002
C  C39  1  0.29327523  0.49156255  0.28377630  1  0.281392  0.00286  3.756017  0.002  0.285483  -0.000231  4.018108  -0.001  0.29839  0.000844  4.036285  0.0  0.099431  0.277267  -0.000911  4.005796  -0.002
C  C40  1  0.80401769  0.95152363  0.39471864  1  -0.347246  -0.003826  3.703046  -0.004  -0.370976  -0.002342  3.952216  -0.003  -0.383082  -0.002171  3.97088  -0.002  -0.126192  -0.362918  -0.002311  3.939487  -0.002
C  C41  1  0.69597176  0.45153529  0.60527665  1  -0.347149  0.003826  3.703083  0.004  -0.370822  0.002341  3.952248  0.003  -0.382923  0.00217  3.970906  0.002  -0.126147  -0.362765  0.002311  3.939518  0.002
C  C42  1  0.19597933  0.04846951  0.60527683  1  -0.347154  0.003823  3.703052  0.004  -0.370854  0.002341  3.952207  0.003  -0.382959  0.00217  3.970861  0.002  -0.126125  -0.362795  0.002311  3.939477  0.002
C  C43  1  0.30402770  0.54847371  0.39472863  1  -0.347387  -0.003823  3.703104  -0.004  -0.371129  -0.002341  3.952257  -0.003  -0.383237  -0.00217  3.970918  -0.002  -0.126237  -0.363068  -0.00231  3.939527  -0.002
C  C44  1  0.87431650  0.82622799  0.39471743  1  0.285029  0.003181  3.754334  0.003  0.278671  0.000474  4.017012  0.0  0.290505  0.001153  4.033557  0.001  0.102707  0.270865  2e-05  4.00557  0.0
C  C45  1  0.62567737  0.32623516  0.60527974  1  0.284933  -0.003182  3.754364  -0.003  0.278645  -0.000476  4.016996  0.0  0.290487  -0.001153  4.033548  -0.001  0.102786  0.270838  -2.1e-05  4.005553  0.0
C  C46  1  0.12568675  0.17376911  0.60528185  1  0.284976  -0.003182  3.754284  -0.003  0.278661  -0.000477  4.016921  0.0  0.290509  -0.001154  4.033462  -0.001  0.102742  0.270852  -2.2e-05  4.005485  0.0
C  C47  1  0.37432337  0.67377681  0.39471987  1  0.285197  0.003184  3.754087  0.003  0.278891  0.000477  4.016724  0.0  0.290732  0.001155  4.033275  0.001  0.102935  0.271078  2.3e-05  4.00528  0.0
C  C48  1  0.72665641  0.13919554  0.23353665  1  -0.36056  -6.6e-05  3.707383  -0.001  -0.437225  -8.6e-05  3.939226  -0.001  -0.44094  -7e-05  3.944942  -0.001  -0.242315  -0.434464  -8e-05  3.935721  0.0
C  C49  1  0.77333726  0.63920640  0.76645772  1  -0.360607  6.5e-05  3.707224  0.001  -0.437186  8.7e-05  3.93903  0.001  -0.440902  7e-05  3.944748  0.001  -0.242297  -0.43442  7.9e-05  3.935526  0.0
C  C50  1  0.27333310  0.86079660  0.76645897  1  -0.360646  6.5e-05  3.707311  0.001  -0.437249  8.7e-05  3.939143  0.001  -0.440963  7e-05  3.944857  0.001  -0.242299  -0.434487  7.8e-05  3.93564  0.0
C  C51  1  0.22666475  0.36079368  0.23353962  1  -0.360637  -6.5e-05  3.707196  -0.001  -0.437199  -8.6e-05  3.938988  -0.001  -0.440915  -7e-05  3.944707  -0.001  -0.242267  -0.434434  -7.8e-05  3.935488  0.0
C  C52  1  0.91715012  0.72171412  0.48711628  1  -0.362348  -0.000758  3.720662  -0.001  -0.442911  -0.000632  3.954623  -0.001  -0.445756  -0.000514  3.960645  -0.001  -0.232642  -0.440683  -0.000689  3.95047  -0.001
C  C53  1  0.58284724  0.22171529  0.51288101  1  -0.36243  0.000758  3.72072  0.001  -0.443032  0.000634  3.954692  0.001  -0.445875  0.000514  3.96071  0.001  -0.232694  -0.440803  0.000689  3.950542  0.001
C  C54  1  0.08286315  0.27828496  0.51288082  1  -0.362264  0.000758  3.720604  0.001  -0.442823  0.000635  3.954586  0.001  -0.445666  0.000514  3.960603  0.001  -0.232583  -0.440597  0.000689  3.950435  0.001
C  C55  1  0.41715224  0.77829371  0.48712173  1  -0.362531  -0.000758  3.720752  -0.001  -0.443095  -0.000633  3.954675  -0.001  -0.445939  -0.000514  3.960695  -0.001  -0.232731  -0.440866  -0.000689  3.950525  -0.001
N  N56  1  0.90787174  0.96871105  0.89819915  1  -0.532606  -0.00826  2.905194  -0.01  -0.567503  -0.0007  3.281043  -0.001  -0.623064  0.000193  3.292128  0.001  -0.352932  -0.536284  -0.001112  3.275999  -0.001
N  N57  1  0.59212793  0.46871698  0.10180170  1  -0.532426  0.008263  2.905162  0.01  -0.567292  0.000702  3.281037  0.001  -0.622849  -0.000191  3.292113  -0.001  -0.352807  -0.536076  0.001111  3.275993  0.001
N  N58  1  0.09213277  0.03128407  0.10179869  1  -0.532456  0.008253  2.905261  0.01  -0.567327  0.000699  3.281143  0.001  -0.622884  -0.000194  3.292232  -0.001  -0.35284  -0.536113  0.001106  3.276103  0.001
N  N59  1  0.40786903  0.53129301  0.89820306  1  -0.532493  -0.008253  2.905374  -0.01  -0.567371  -0.000696  3.281228  -0.001  -0.622929  0.000195  3.292309  0.001  -0.352819  -0.536155  -0.001108  3.276185  -0.001
N  N60  1  0.79722271  0.97722000  0.80611009  1  0.410523  0.006348  4.134582  0.008  0.461272  0.001212  4.425027  0.002  0.483596  0.0012  4.45997  0.002  0.105435  0.447744  0.00105  4.400569  0.002
N  N61  1  0.70277085  0.47721857  0.19388872  1  0.41035  -0.006354  4.134571  -0.008  0.46106  -0.001214  4.425087  -0.002  0.483389  -0.001201  4.46003  -0.002  0.105271  0.447537  -0.00105  4.400625  -0.002
N  N62  1  0.20276427  0.02277611  0.19389179  1  0.410464  -0.006354  4.134542  -0.008  0.461166  -0.001212  4.425071  -0.002  0.483486  -0.001201  4.460027  -0.002  0.105396  0.44764  -0.001051  4.400614  -0.002
N  N63  1  0.29723864  0.52277853  0.80611184  1  0.410475  0.006355  4.134783  0.008  0.461218  0.001212  4.425244  0.002  0.483542  0.001201  4.460194  0.002  0.105325  0.447694  0.001052  4.400785  0.002
N  N64  1  0.69087958  0.98314592  0.71802933  1  -0.31277  -0.021794  2.340962  -0.023  -0.316347  -0.006012  2.551154  -0.007  -0.326039  -0.004671  2.56277  -0.006  -0.137874  -0.308456  -0.00662  2.542092  -0.007
N  N65  1  0.80911904  0.48313706  0.28197393  1  -0.312738  0.02181  2.340875  0.023  -0.316303  0.006022  2.55108  0.007  -0.326015  0.004677  2.562711  0.006  -0.137838  -0.308409  0.006623  2.542014  0.007
N  N66  1  0.30911738  0.01686010  0.28197543  1  -0.312866  0.021821  2.340864  0.023  -0.316422  0.006031  2.551089  0.007  -0.326111  0.004686  2.562702  0.006  -0.13793  -0.308526  0.006642  2.542025  0.008
N  N67  1  0.19088419  0.51685707  0.71802873  1  -0.312837  -0.021825  2.340937  -0.023  -0.316433  -0.006031  2.55114  -0.007  -0.326127  -0.004686  2.562754  -0.006  -0.137881  -0.308538  -0.006647  2.542074  -0.008
N  N68  1  0.63526268  0.88448167  0.97850314  1  -0.44896  -0.080558  2.687296  -0.094  -0.486719  -0.03985  3.012438  -0.052  -0.523816  -0.022086  3.025676  -0.032  -0.287636  -0.465971  -0.048571  3.005422  -0.06
N  N69  1  0.86473203  0.38448307  0.02149622  1  -0.44914  0.080568  2.687158  0.094  -0.486873  0.039853  3.012327  0.052  -0.523975  0.022087  3.025561  0.032  -0.287707  -0.466126  0.048572  3.005317  0.06
N  N70  1  0.36473183  0.11552237  0.02149351  1  -0.448742  0.080496  2.687583  0.094  -0.486468  0.039828  3.012721  0.052  -0.523544  0.022065  3.025946  0.032  -0.287498  -0.465741  0.048548  3.005731  0.06
N  N71  1  0.13526496  0.61551502  0.97850516  1  -0.448864  -0.080548  2.687372  -0.094  -0.486606  -0.039848  3.01252  -0.052  -0.523697  -0.022081  3.025754  -0.032  -0.287564  -0.465867  -0.048572  3.005523  -0.06
N  N72  1  0.46700901  0.78597706  0.08610161  1  -0.412206  -0.133605  2.563363  -0.141  -0.456965  -0.067289  2.865032  -0.075  -0.483275  -0.05632  2.876391  -0.066  -0.227098  -0.443329  -0.070517  2.859752  -0.077
N  N73  1  0.03298025  0.28597109  0.91389818  1  -0.412292  0.133602  2.563243  0.141  -0.457021  0.067288  2.864932  0.075  -0.483332  0.056319  2.876293  0.066  -0.227114  -0.443389  0.070517  2.859655  0.077
N  N74  1  0.53298924  0.21402698  0.91389834  1  -0.41234  0.13368  2.563  0.141  -0.457052  0.067312  2.864677  0.075  -0.483379  0.056338  2.876035  0.066  -0.227156  -0.443406  0.070543  2.859382  0.077
N  N75  1  0.96700925  0.71402304  0.08609998  1  -0.412215  -0.133632  2.563318  -0.141  -0.456952  -0.067299  2.865009  -0.075  -0.483269  -0.056327  2.876367  -0.066  -0.227094  -0.443307  -0.070532  2.859716  -0.077
N  N76  1  0.55315511  0.83475592  0.03456280  1  0.400976  0.029329  4.186353  0.044  0.455499  0.002178  4.493729  0.009  0.476091  0.003688  4.534285  0.01  0.091484  0.443101  -0.000366  4.468391  0.007
N  N77  1  0.94684136  0.33475247  0.96543918  1  0.401238  -0.02933  4.186014  -0.044  0.455717  -0.002177  4.493436  -0.009  0.476313  -0.003688  4.533984  -0.01  0.091575  0.443319  0.000366  4.468103  -0.007
N  N78  1  0.44683686  0.16524515  0.96544179  1  0.400934  -0.029343  4.186404  -0.044  0.455415  -0.002183  4.493832  -0.009  0.476011  -0.003694  4.53439  -0.01  0.091413  0.443017  0.000359  4.468497  -0.007
N  N79  1  0.05315564  0.66524264  0.03455967  1  0.40092  0.029334  4.186431  0.044  0.455413  0.00218  4.493852  0.009  0.476009  0.003689  4.53441  0.01  0.091423  0.443014  -0.000362  4.468516  0.007
N  N80  1  0.85424574  0.92154968  0.22003188  1  -0.287209  -0.049552  3.249687  -0.058  -0.259547  -0.046884  3.550968  -0.06  -0.287011  -0.042995  3.57051  -0.057  -0.284529  -0.244385  -0.045492  3.5398  -0.056
N  N81  1  0.64575325  0.42155243  0.77996688  1  -0.287295  0.049552  3.249564  0.058  -0.259596  0.046883  3.550901  0.06  -0.287051  0.042996  3.570451  0.057  -0.284534  -0.244435  0.045491  3.539733  0.056
N  N82  1  0.14575374  0.07844345  0.77997001  1  -0.287186  0.049545  3.249335  0.058  -0.259631  0.046882  3.550714  0.06  -0.287089  0.042994  3.570266  0.057  -0.28455  -0.244477  0.045488  3.539564  0.056
N  N83  1  0.35424502  0.57844467  0.22002800  1  -0.287168  -0.049548  3.248956  -0.058  -0.25962  -0.04688  3.550361  -0.06  -0.287081  -0.042994  3.569902  -0.057  -0.284546  -0.24447  -0.045487  3.539215  -0.056
N  N84  1  0.90225858  0.81255083  0.28813690  1  -0.210049  -0.003275  3.465826  -0.003  -0.15601  -0.003116  3.700839  -0.003  -0.167063  -0.002617  3.719284  -0.002  -0.28627  -0.148389  -0.003218  3.689314  -0.003
N  N85  1  0.59774385  0.31255268  0.71186024  1  -0.209769  0.003275  3.465649  0.003  -0.155834  0.003117  3.700758  0.003  -0.166911  0.002615  3.719222  0.002  -0.286246  -0.148211  0.003218  3.689227  0.003
N  N86  1  0.09774718  0.18744826  0.71186035  1  -0.209864  0.003274  3.465578  0.003  -0.155856  0.003116  3.70066  0.003  -0.166935  0.002616  3.719137  0.002  -0.286257  -0.148235  0.003217  3.68914  0.003
N  N87  1  0.40226063  0.68745334  0.28814183  1  -0.209875  -0.003275  3.465433  -0.003  -0.155894  -0.003116  3.700558  -0.003  -0.166957  -0.002617  3.719008  -0.002  -0.286282  -0.148255  -0.003217  3.689022  -0.003
