# generated using pymatgen
data_CuH2(C2N)3
_symmetry_space_group_name_H-M   'P 1'
_cell_length_a   28.12719143
_cell_length_b   28.40273926
_cell_length_c   28.52346696
_cell_angle_alpha   89.83222471
_cell_angle_beta   89.96192125
_cell_angle_gamma   89.86988280
_symmetry_Int_Tables_number   1
_chemical_formula_structural   CuH2(C2N)3
_chemical_formula_sum   'Cu12 H24 C72 N36'
_cell_volume   22786.93072144
_cell_formula_units_Z   12
loop_
 _symmetry_equiv_pos_site_id
 _symmetry_equiv_pos_as_xyz
  1  'x, y, z'
loop_
 _atom_site_type_symbol
 _atom_site_label
 _atom_site_symmetry_multiplicity
 _atom_site_fract_x
 _atom_site_fract_y
 _atom_site_fract_z
 _atom_site_occupancy
 _atom_site_pbe_bader_charge
 _atom_site_pbe_bader_spin_density
 _atom_site_pbe_cm5_charge
 _atom_site_pbe_ddec_charge
 _atom_site_pbe_ddec_spin_density
 _atom_site_pbe_ddec_sum_bond_order
 _atom_site_pbe_magmom
Cu  Cu0  1  0.87104241  0.91541578  0.82977700  1  0.55082  0  0.494648  0.215275  0  2.095063  0
Cu  Cu1  1  0.82552214  0.86941046  0.92084351  1  0.554382  0  0.494749  0.215223  0  2.091303  0
Cu  Cu2  1  0.91825415  0.82411584  0.87435741  1  0.550955  0  0.49476  0.214876  0  2.092975  0
Cu  Cu3  1  0.13436020  0.59031645  0.32313527  1  0.55221  0  0.495605  0.21489  0  2.101128  0
Cu  Cu4  1  0.17912518  0.63563761  0.41415692  1  0.552203  0  0.495409  0.21538  0  2.095624  0
Cu  Cu5  1  0.08047374  0.67412659  0.37405144  1  0.552143  0  0.494516  0.216013  0  2.090055  0
Cu  Cu6  1  0.37036494  0.08241496  0.67266432  1  0.551759  0  0.496064  0.214887  0  2.100745  0
Cu  Cu7  1  0.32455597  0.12867924  0.58190223  1  0.552951  0  0.495731  0.215295  0  2.097069  0
Cu  Cu8  1  0.41727328  0.17359064  0.62769940  1  0.553905  0  0.494867  0.215439  0  2.093045  0
Cu  Cu9  1  0.62731586  0.41472221  0.17237978  1  0.551444  0  0.495286  0.2152  0  2.096327  0
Cu  Cu10  1  0.67322479  0.36877703  0.08151876  1  0.554408  0  0.494079  0.215604  0  2.087943  0
Cu  Cu11  1  0.58049813  0.32370333  0.12796682  1  0.553372  0  0.494653  0.215476  0  2.093503  0
H  H12  1  0.79998589  0.00101582  0.81298601  1  0.121601  0  0.129662  0.123744  0  0.975791  0
H  H13  1  0.73913771  0.94014872  0.93896353  1  0.111732  0  0.129866  0.123903  0  0.976983  0
H  H14  1  0.00438990  0.80777752  0.80327658  1  0.103518  0  0.129769  0.123958  0  0.975585  0
H  H15  1  0.94130614  0.93415497  0.74434548  1  0.125502  0  0.129624  0.123227  0  0.9763  0
H  H16  1  0.80946952  0.79870567  0.00593476  1  0.101849  0  0.129797  0.123978  0  0.975202  0
H  H17  1  0.93685328  0.73883474  0.94433493  1  0.104175  0  0.129839  0.123997  0  0.976487  0
H  H18  1  0.20401206  0.50332157  0.30785089  1  0.125399  0  0.130116  0.124504  0  0.974996  0
H  H19  1  0.26389021  0.56339039  0.43425573  1  0.09667  0  0.129978  0.124069  0  0.975502  0
H  H20  1  0.98896365  0.68391905  0.30833702  1  0.121861  0  0.12963  0.123865  0  0.976273  0
H  H21  1  0.06736600  0.57512995  0.23490907  1  0.12267  0  0.129525  0.123203  0  0.976524  0
H  H22  1  0.19724170  0.70920239  0.49599220  1  0.108541  0  0.130563  0.124959  0  0.975452  0
H  H23  1  0.05757543  0.75377906  0.44909987  1  0.146402  0  0.130269  0.124408  0  0.974758  0
H  H24  1  0.29979629  0.99671839  0.68940681  1  0.120311  0  0.129748  0.123909  0  0.975161  0
H  H25  1  0.23851764  0.05812255  0.56381530  1  0.103723  0  0.129908  0.123986  0  0.976624  0
H  H26  1  0.50349570  0.18972452  0.69836850  1  0.110479  0  0.12997  0.124193  0  0.976365  0
H  H27  1  0.44080037  0.06360906  0.75778151  1  0.1331  0  0.129834  0.123786  0  0.975523  0
H  H28  1  0.30792065  0.19918337  0.49675346  1  0.123342  0  0.129673  0.123239  0  0.976126  0
H  H29  1  0.43547029  0.25891389  0.55746254  1  0.123628  0  0.129709  0.123739  0  0.974867  0
H  H30  1  0.69800011  0.50014758  0.18903198  1  0.087671  0  0.129716  0.124018  0  0.975287  0
H  H31  1  0.75979179  0.43912649  0.06379603  1  0.09041  0  0.129902  0.124355  0  0.97545  0
H  H32  1  0.49436622  0.30717836  0.19901219  1  0.124228  0  0.129932  0.124041  0  0.975526  0
H  H33  1  0.55668011  0.43356201  0.25745253  1  0.114022  0  0.129897  0.123981  0  0.975179  0
H  H34  1  0.68888024  0.29874612  0.99600120  1  0.110143  0  0.129593  0.123679  0  0.975452  0
H  H35  1  0.56146507  0.23926008  0.05768657  1  0.115805  0  0.129527  0.123327  0  0.97575  0
C  C36  1  0.34438229  0.41047844  0.37643756  1  1.180421  0  0.258447  0.451636  0  4.09381  0
C  C37  1  0.40863113  0.37427050  0.34453211  1  1.181704  0  0.258242  0.451566  0  4.096275  0
C  C38  1  0.37423626  0.34428843  0.41004194  1  1.118239  0  0.258641  0.451841  0  4.096241  0
C  C39  1  0.65378610  0.08878345  0.87677008  1  1.18631  0  0.258695  0.451869  0  4.095153  0
C  C40  1  0.62213926  0.15428245  0.90989172  1  1.110726  0  0.258725  0.451783  0  4.093049  0
C  C41  1  0.58869753  0.12332595  0.84457436  1  1.175538  0  0.258462  0.451457  0  4.094464  0
C  C42  1  0.84430751  0.58773286  0.12579912  1  1.108526  0  0.259165  0.453132  0  4.091904  0
C  C43  1  0.87571898  0.65293252  0.09175098  1  1.161335  0  0.259021  0.452259  0  4.094573  0
C  C44  1  0.90936673  0.62238358  0.15742532  1  1.172819  0  0.259617  0.452765  0  4.092617  0
C  C45  1  0.15429104  0.90903461  0.62526012  1  1.14629  0  0.2579  0.451498  0  4.098566  0
C  C46  1  0.08917559  0.87432964  0.65695220  1  1.173265  0  0.258328  0.452116  0  4.096407  0
C  C47  1  0.12306316  0.84385743  0.59152653  1  1.109806  0  0.257747  0.451638  0  4.095385  0
C  C48  1  0.79116403  0.97997765  0.84355155  1  0.427659  0  0.022232  -0.040578  0  3.91879  0
C  C49  1  0.75401687  0.98618029  0.87611066  1  0.099645  0  -0.024418  0.035916  0  4.187689  0
C  C50  1  0.76015662  0.94895255  0.90829682  1  0.446803  0  0.022246  -0.040983  0  3.919479  0
C  C51  1  0.98282144  0.83837384  0.79493987  1  0.430191  0  0.021355  -0.042763  0  3.918911  0
C  C52  1  0.98830709  0.87124782  0.75828236  1  0.144484  0  -0.023988  0.036617  0  4.18824  0
C  C53  1  0.95065694  0.90332586  0.76490694  1  0.41491  0  0.022291  -0.03928  0  3.918285  0
C  C54  1  0.84031413  0.79007780  0.98476339  1  0.465809  0  0.021551  -0.041479  0  3.917481  0
C  C55  1  0.87344261  0.75326941  0.99058299  1  0.105041  0  -0.023789  0.036881  0  4.186478  0
C  C56  1  0.90576366  0.75957034  0.95337085  1  0.450481  0  0.021409  -0.042564  0  3.92054  0
C  C57  1  0.21286651  0.52442296  0.33823833  1  0.425977  0  0.021763  -0.041483  0  3.918656  0
C  C58  1  0.24875507  0.51714229  0.37190839  1  0.136409  0  -0.023589  0.037436  0  4.188247  0
C  C59  1  0.24335868  0.55503741  0.40321586  1  0.478825  0  0.021815  -0.041382  0  3.919601  0
C  C60  1  0.01428862  0.65772244  0.29638958  1  0.400587  0  0.021222  -0.042105  0  3.9177  0
C  C61  1  0.01228247  0.62865303  0.25651686  1  0.129481  0  -0.024129  0.036534  0  4.186251  0
C  C62  1  0.05439958  0.60185016  0.25883471  1  0.455545  0  0.021164  -0.041467  0  3.920132  0
C  C63  1  0.16350568  0.71422434  0.47826189  1  0.46155  0  0.022403  -0.040436  0  3.916548  0
C  C64  1  0.12681908  0.74650162  0.48828807  1  0.057799  0  -0.023826  0.036459  0  4.187364  0
C  C65  1  0.09174091  0.73682777  0.45445005  1  0.434807  0  0.02226  -0.040844  0  3.917212  0
C  C66  1  0.29081757  0.01792828  0.65896692  1  0.428684  0  0.022035  -0.04183  0  3.919828  0
C  C67  1  0.25373336  0.01183242  0.62641714  1  0.093583  0  -0.023905  0.036977  0  4.190436  0
C  C68  1  0.25958423  0.04922170  0.59442196  1  0.453765  0  0.021796  -0.041736  0  3.920595  0
C  C69  1  0.48202136  0.15920241  0.70686783  1  0.453601  0  0.022114  -0.041152  0  3.919947  0
C  C70  1  0.48763230  0.12640310  0.74359232  1  0.119528  0  -0.024356  0.03573  0  4.18727  0
C  C71  1  0.45005231  0.09438606  0.73715145  1  0.441144  0  0.02217  -0.040106  0  3.91816  0
C  C72  1  0.33885305  0.20775583  0.51772153  1  0.409202  0  0.021749  -0.04037  0  3.919876  0
C  C73  1  0.37186351  0.24448094  0.51165383  1  0.162014  0  -0.023663  0.03646  0  4.191128  0
C  C74  1  0.40439235  0.23821531  0.54867793  1  0.417053  0  0.021454  -0.041197  0  3.918112  0
C  C75  1  0.70707814  0.47906040  0.15866509  1  0.462364  0  0.02156  -0.042165  0  3.918759  0
C  C76  1  0.74447239  0.48516373  0.12635446  1  0.152715  0  -0.02386  0.037079  0  4.184591  0
C  C77  1  0.73858077  0.44798338  0.09429974  1  0.463788  0  0.021557  -0.042496  0  3.918397  0
C  C78  1  0.51577920  0.33774665  0.20728604  1  0.432773  0  0.022027  -0.040793  0  3.917027  0
C  C79  1  0.51000118  0.37061921  0.24373890  1  0.159601  0  -0.023975  0.036655  0  4.186147  0
C  C80  1  0.54753351  0.40271146  0.23706200  1  0.419043  0  0.021989  -0.041361  0  3.919284  0
C  C81  1  0.65807611  0.29015862  0.01724481  1  0.439424  0  0.021375  -0.042005  0  3.918134  0
C  C82  1  0.62475024  0.25372740  0.01131292  1  0.128523  0  -0.023609  0.03699  0  4.186809  0
C  C83  1  0.59260802  0.25983982  0.04868359  1  0.427948  0  0.02183  -0.040242  0  3.917709  0
C  C84  1  0.68888513  0.05247619  0.87650348  1  0.037279  0  -0.038906  -0.162967  0  4.018762  0
C  C85  1  0.71903072  0.02160028  0.87638070  1  -0.3088  0  -0.020464  -0.021559  0  4.110905  0
C  C86  1  0.31044470  0.44781861  0.37555747  1  0.268056  0  -0.038582  -0.161536  0  4.016225  0
C  C87  1  0.28199001  0.48018157  0.37387984  1  -0.539967  0  -0.020768  -0.023191  0  4.111623  0
C  C88  1  0.18913308  0.94537484  0.62580328  1  0.122558  0  -0.03878  -0.162716  0  4.020762  0
C  C89  1  0.21903859  0.97632388  0.62601406  1  -0.326182  0  -0.02066  -0.021932  0  4.112539  0
C  C90  1  0.80941980  0.55137339  0.12632747  1  0.302024  0  -0.038903  -0.162891  0  4.016735  0
C  C91  1  0.77938046  0.52052180  0.12623548  1  -0.559172  0  -0.01974  -0.021093  0  4.10797  0
C  C92  1  0.05346237  0.87282297  0.69242288  1  0.023834  0  -0.038381  -0.162342  0  4.020759  0
C  C93  1  0.02327020  0.87199718  0.72305935  1  -0.306268  0  -0.021285  -0.022688  0  4.112795  0
C  C94  1  0.44443988  0.37232360  0.30919583  1  0.133504  0  -0.038841  -0.162477  0  4.017548  0
C  C95  1  0.47484189  0.37141718  0.27876360  1  -0.414663  0  -0.020594  -0.022387  0  4.110503  0
C  C96  1  0.94530786  0.62415602  0.19265856  1  0.207592  0  -0.038586  -0.162267  0  4.013722  0
C  C97  1  0.97638943  0.62646709  0.22228613  1  -0.476835  0  -0.020721  -0.021916  0  4.108681  0
C  C98  1  0.55301947  0.12461745  0.80911858  1  0.141034  0  -0.038774  -0.162196  0  4.016493  0
C  C99  1  0.52267739  0.12558995  0.77867083  1  -0.42152  0  -0.020486  -0.022067  0  4.111177  0
C  C100  1  0.87474281  0.68798857  0.05587793  1  0.287274  0  -0.038762  -0.161931  0  4.016347  0
C  C101  1  0.87413370  0.71829296  0.02555899  1  -0.53104  0  -0.020208  -0.022118  0  4.109428  0
C  C102  1  0.37285677  0.30937736  0.44602175  1  0.159385  0  -0.038973  -0.162476  0  4.018487  0
C  C103  1  0.37234877  0.27927536  0.47652649  1  -0.414685  0  -0.020546  -0.022192  0  4.111668  0
C  C104  1  0.62288287  0.18930002  0.94558968  1  0.173598  0  -0.038529  -0.162198  0  4.016613  0
C  C105  1  0.62375305  0.21920190  0.97611192  1  -0.412801  0  -0.020783  -0.022335  0  4.11001  0
C  C106  1  0.12410433  0.80937497  0.55539194  1  0.032684  0  -0.038568  -0.16217  0  4.021053  0
C  C107  1  0.12540584  0.78028126  0.52411343  1  -0.271659  0  -0.020469  -0.022148  0  4.114306  0
N  N108  1  0.37733945  0.41027077  0.34202199  1  -1.138959  0  -0.307156  -0.407836  0  3.085791  0
N  N109  1  0.40895293  0.34019747  0.37759978  1  -1.151267  0  -0.307252  -0.408055  0  3.085238  0
N  N110  1  0.34091402  0.37853354  0.41139911  1  -1.123225  0  -0.307167  -0.407737  0  3.082139  0
N  N111  1  0.65633546  0.12090172  0.91146117  1  -1.128408  0  -0.307569  -0.407831  0  3.084201  0
N  N112  1  0.58734060  0.15737838  0.87745746  1  -1.123753  0  -0.307017  -0.40746  0  3.083735  0
N  N113  1  0.62092374  0.08810224  0.84232215  1  -1.107323  0  -0.307215  -0.407941  0  3.082671  0
N  N114  1  0.84163876  0.61958428  0.09066957  1  -1.119353  0  -0.307161  -0.407876  0  3.083713  0
N  N115  1  0.91066006  0.65608083  0.12399350  1  -1.135969  0  -0.306993  -0.407657  0  3.084685  0
N  N116  1  0.87712680  0.58736801  0.16033059  1  -1.149475  0  -0.307115  -0.408255  0  3.081795  0
N  N117  1  0.12120036  0.90955279  0.65953936  1  -1.148355  0  -0.307343  -0.4083  0  3.084961  0
N  N118  1  0.08804886  0.84056976  0.62377352  1  -1.093445  0  -0.308719  -0.410195  0  3.082667  0
N  N119  1  0.15727064  0.87709982  0.59045228  1  -1.092075  0  -0.306982  -0.407891  0  3.086292  0
N  N120  1  0.79793511  0.92277280  0.89561540  1  -0.776384  0  -0.333276  -0.138394  0  3.7702  0
N  N121  1  0.81726191  0.94211895  0.85568766  1  -0.772991  0  -0.333079  -0.138553  0  3.769874  0
N  N122  1  0.92488345  0.89028847  0.80248873  1  -0.77489  0  -0.333355  -0.139767  0  3.771211  0
N  N123  1  0.94492348  0.85023583  0.82121687  1  -0.775268  0  -0.33291  -0.136856  0  3.769111  0
N  N124  1  0.89262959  0.79711245  0.92754863  1  -0.778262  0  -0.333057  -0.137586  0  3.769696  0
N  N125  1  0.85225403  0.81613319  0.94711036  1  -0.769774  0  -0.332593  -0.137788  0  3.768074  0
N  N126  1  0.20708826  0.58255791  0.38905462  1  -0.792531  0  -0.333047  -0.138011  0  3.771063  0
N  N127  1  0.18807793  0.56347373  0.34899300  1  -0.772675  0  -0.333963  -0.138878  0  3.77352  0
N  N128  1  0.07927374  0.61411536  0.29715734  1  -0.774953  0  -0.334115  -0.13837  0  3.772618  0
N  N129  1  0.05443917  0.64862345  0.32044778  1  -0.766532  0  -0.3328  -0.139291  0  3.768162  0
N  N130  1  0.10661815  0.70162136  0.42658936  1  -0.78107  0  -0.331995  -0.137296  0  3.766752  0
N  N131  1  0.15089896  0.68739856  0.44155357  1  -0.774159  0  -0.333821  -0.13915  0  3.767452  0
N  N132  1  0.29718065  0.07540169  0.60719169  1  -0.779934  0  -0.333196  -0.137812  0  3.772041  0
N  N133  1  0.31663695  0.05589867  0.64698435  1  -0.771138  0  -0.334692  -0.138316  0  3.773345  0
N  N134  1  0.42420674  0.10740510  0.69961529  1  -0.783259  0  -0.333965  -0.138576  0  3.774167  0
N  N135  1  0.44411720  0.14735970  0.68072710  1  -0.773371  0  -0.333114  -0.138565  0  3.771375  0
N  N136  1  0.39146009  0.20074191  0.57464775  1  -0.786918  0  -0.332776  -0.138059  0  3.771154  0
N  N137  1  0.35104657  0.18176805  0.55535698  1  -0.766899  0  -0.333894  -0.138961  0  3.773773  0
N  N138  1  0.70072695  0.42192519  0.10683028  1  -0.766949  0  -0.332169  -0.138119  0  3.767936  0
N  N139  1  0.68110450  0.44131039  0.14652924  1  -0.781233  0  -0.333265  -0.13769  0  3.770362  0
N  N140  1  0.57350623  0.38966388  0.19965729  1  -0.776209  0  -0.333162  -0.137316  0  3.771009  0
N  N141  1  0.55372357  0.34961141  0.18108377  1  -0.770932  0  -0.33327  -0.139413  0  3.76913  0
N  N142  1  0.60601264  0.29695059  0.07469480  1  -0.791443  0  -0.332765  -0.138849  0  3.772914  0
N  N143  1  0.64640341  0.31586027  0.05511041  1  -0.768917  0  -0.33239  -0.137655  0  3.768821  0
