# generated using pymatgen
data_NiH12C14(NO2)2
_symmetry_space_group_name_H-M   'P 1'
_cell_length_a   4.48094215
_cell_length_b   8.63723633
_cell_length_c   15.16167070
_cell_angle_alpha   105.23285997
_cell_angle_beta   89.99989799
_cell_angle_gamma   89.99996998
_symmetry_Int_Tables_number   1
_chemical_formula_structural   NiH12C14(NO2)2
_chemical_formula_sum   'Ni2 H24 C28 N4 O8'
_cell_volume   566.18477571
_cell_formula_units_Z   2
loop_
 _symmetry_equiv_pos_site_id
 _symmetry_equiv_pos_as_xyz
  1  'x, y, z'
loop_
 _atom_site_type_symbol
 _atom_site_label
 _atom_site_symmetry_multiplicity
 _atom_site_fract_x
 _atom_site_fract_y
 _atom_site_fract_z
 _atom_site_occupancy
 _atom_site_hle17_ddec_charge
 _atom_site_hle17_ddec_spin_density
 _atom_site_hle17_ddec_sum_bond_order
 _atom_site_hle17_magmom
 _atom_site_hse06_10hf_ddec_charge
 _atom_site_hse06_10hf_ddec_spin_density
 _atom_site_hse06_10hf_ddec_sum_bond_order
 _atom_site_hse06_10hf_magmom
 _atom_site_hse06_ddec_charge
 _atom_site_hse06_ddec_spin_density
 _atom_site_hse06_ddec_sum_bond_order
 _atom_site_hse06_magmom
 _atom_site_pbe_cm5_charge
 _atom_site_pbe_ddec_charge
 _atom_site_pbe_ddec_spin_density
 _atom_site_pbe_ddec_sum_bond_order
 _atom_site_pbe_magmom
Ni  Ni0  1  0.00000073  0.00000115  0.49999908  1  0.904049  1.751371  1.836766  1.473  0.931548  1.814483  2.212379  1.619  1.026425  1.877793  2.1376  1.716  0.622728  0.856352  1.752763  2.274454  1.528
Ni  Ni1  1  0.49999951  0.50000056  0.00000073  1  0.90406  1.751367  1.836729  1.473  0.931583  1.814495  2.212333  1.619  1.02639  1.877785  2.13757  1.716  0.622739  0.856374  1.752761  2.274412  1.528
H  H2  1  0.38667365  0.77399340  0.44587332  1  0.315871  -0.001805  0.895675  -0.002  0.301129  -0.000745  0.962125  -0.001  0.307176  -0.000867  0.958999  -0.001  0.301087  0.296684  -0.000567  0.964503  -0.001
H  H3  1  0.88667684  0.72600590  0.05412550  1  0.315844  -0.001804  0.895691  -0.002  0.301129  -0.000745  0.962113  -0.001  0.307175  -0.000868  0.958985  -0.001  0.301089  0.296683  -0.000567  0.964492  -0.001
H  H4  1  0.61332460  0.22600761  0.55412594  1  0.315818  -0.001804  0.895703  -0.002  0.301143  -0.000746  0.962098  -0.001  0.30719  -0.000868  0.95897  -0.001  0.301088  0.296696  -0.000567  0.964476  -0.001
H  H5  1  0.11332364  0.27399390  0.94587423  1  0.315842  -0.001804  0.895703  -0.002  0.301095  -0.000745  0.962161  -0.001  0.307141  -0.000868  0.959035  -0.001  0.30108  0.29665  -0.000567  0.964537  -0.001
H  H6  1  0.15391436  0.73608222  0.52211532  1  0.304756  -0.002514  0.886171  -0.002  0.29787  -0.001142  0.941074  -0.001  0.303284  -0.001145  0.938501  -0.001  0.304808  0.29416  -0.000727  0.942476  -0.001
H  H7  1  0.65391720  0.76391827  0.97788425  1  0.304762  -0.002514  0.886147  -0.002  0.297872  -0.001142  0.94106  -0.001  0.303284  -0.001146  0.93849  -0.001  0.304807  0.29417  -0.000727  0.942441  -0.001
H  H8  1  0.84608390  0.26391998  0.47788478  1  0.30481  -0.002514  0.88612  -0.002  0.297922  -0.001142  0.941019  -0.001  0.303336  -0.001145  0.938445  -0.001  0.304839  0.294212  -0.000727  0.942424  -0.001
H  H9  1  0.34608328  0.23608033  0.02211464  1  0.304813  -0.002513  0.886127  -0.002  0.297924  -0.001142  0.941026  -0.001  0.303337  -0.001146  0.938452  -0.001  0.30484  0.294213  -0.000727  0.942433  -0.001
H  H10  1  0.25275370  0.69272048  0.27826848  1  0.116017  -0.000805  0.958305  -0.001  0.125172  2e-06  1.020446  0.0  0.128098  -2.8e-05  1.019469  0.0  0.107364  0.122849  4.1e-05  1.021593  0.0
H  H11  1  0.75275357  0.80727889  0.22173107  1  0.116038  -0.000805  0.958351  -0.001  0.125192  2e-06  1.020484  0.0  0.128118  -2.9e-05  1.019509  0.0  0.107384  0.122869  4.1e-05  1.021631  0.0
H  H12  1  0.74724232  0.30727931  0.72173191  1  0.116049  -0.000805  0.958341  -0.001  0.125206  3e-06  1.020468  0.0  0.128132  -2.8e-05  1.019493  0.0  0.107366  0.122879  4.1e-05  1.021615  0.0
H  H13  1  0.24724468  0.19272093  0.77826734  1  0.11601  -0.000804  0.958312  -0.001  0.125166  3e-06  1.020449  0.0  0.128093  -2.9e-05  1.019472  0.0  0.107369  0.122839  4.1e-05  1.021593  0.0
H  H14  1  0.58658791  0.32354532  0.20604427  1  0.094185  -0.001061  0.96795  -0.001  0.101707  -8.4e-05  1.036227  0.0  0.104471  -0.000109  1.035623  0.0  0.098448  0.099551  -7.1e-05  1.037048  0.0
H  H15  1  0.08659020  0.17645513  0.29395662  1  0.094174  -0.001061  0.967947  -0.001  0.1017  -8.4e-05  1.036229  0.0  0.104467  -0.000108  1.035618  0.0  0.098446  0.099544  -7.1e-05  1.037049  0.0
H  H16  1  0.41341480  0.67645206  0.79395707  1  0.094198  -0.001061  0.967914  -0.001  0.101695  -8.4e-05  1.036219  0.0  0.104459  -0.000108  1.035618  0.0  0.098426  0.099536  -7.2e-05  1.03704  0.0
H  H17  1  0.91341252  0.82354468  0.70604245  1  0.094151  -0.00106  0.967958  -0.001  0.101676  -8.3e-05  1.036235  0.0  0.104441  -0.000108  1.035631  0.0  0.09842  0.099516  -7.2e-05  1.037054  0.0
H  H18  1  0.47453507  0.35647348  0.37072279  1  0.088191  0.000363  0.976407  0.001  0.097128  0.00013  1.042352  0.0  0.099654  6.8e-05  1.041588  0.0  0.096556  0.095291  0.000203  1.042842  0.0
H  H19  1  0.97454236  0.14352793  0.12927937  1  0.088232  0.000363  0.976396  0.001  0.097172  0.00013  1.042325  0.0  0.099698  6.8e-05  1.041561  0.0  0.09657  0.095334  0.000203  1.042814  0.0
H  H20  1  0.52546764  0.64352750  0.62927910  1  0.088198  0.000363  0.976385  0.001  0.09713  0.00013  1.04234  0.0  0.099657  6.8e-05  1.041576  0.0  0.096552  0.095291  0.000203  1.042827  0.0
H  H21  1  0.02546035  0.85647067  0.87072018  1  0.088207  0.000362  0.976397  0.001  0.097142  0.00013  1.042339  0.0  0.099669  6.8e-05  1.041574  0.0  0.096565  0.095304  0.000203  1.042828  0.0
H  H22  1  0.74416987  0.56501671  0.48967446  1  0.099528  -0.000884  0.968061  -0.001  0.111155  -1.1e-05  1.030966  0.0  0.114035  -2.6e-05  1.029474  0.0  0.100842  0.109021  7.6e-05  1.032129  0.0
H  H23  1  0.24417582  0.93498627  0.01032499  1  0.099529  -0.000883  0.968014  -0.001  0.111165  -1.1e-05  1.030919  0.0  0.114044  -2.6e-05  1.029429  0.0  0.100838  0.10903  7.6e-05  1.032083  0.0
H  H24  1  0.25582615  0.43498670  0.51032516  1  0.099502  -0.000884  0.968048  -0.001  0.111132  -1.1e-05  1.030964  0.0  0.114012  -2.5e-05  1.029473  0.0  0.100829  0.109  7.6e-05  1.032127  0.0
H  H25  1  0.75582466  0.06501354  0.98967408  1  0.09952  -0.000883  0.968087  -0.001  0.111148  -1.1e-05  1.030996  0.0  0.114028  -2.6e-05  1.029506  0.0  0.100836  0.109016  7.6e-05  1.032162  0.0
C  C26  1  0.01447314  0.64280943  0.39187931  1  0.284277  -0.020706  3.778619  -0.016  0.285496  -0.00785  4.028271  -0.006  0.292766  -0.008863  4.049902  -0.007  0.086308  0.280168  -0.006136  4.013663  -0.005
C  C27  1  0.51447587  0.85719365  0.10812226  1  0.284321  -0.020701  3.778528  -0.016  0.285547  -0.00785  4.028172  -0.006  0.292816  -0.008864  4.049799  -0.007  0.086321  0.28022  -0.006136  4.013569  -0.005
C  C28  1  0.98552512  0.35719275  0.60812211  1  0.28441  -0.020702  3.778381  -0.016  0.285618  -0.007849  4.028044  -0.006  0.292889  -0.008862  4.049673  -0.007  0.086332  0.280285  -0.006138  4.013435  -0.005
C  C29  1  0.48552461  0.14280854  0.89187849  1  0.284394  -0.020689  3.778494  -0.016  0.285604  -0.00785  4.028146  -0.006  0.292872  -0.008865  4.049775  -0.007  0.086349  0.280272  -0.006138  4.013539  -0.005
C  C30  1  0.08088803  0.62102424  0.29944158  1  -0.143948  0.01758  3.662013  0.02  -0.170561  0.006792  3.903126  0.008  -0.172021  0.005552  3.921093  0.007  -0.082137  -0.169792  0.008765  3.891525  0.01
C  C31  1  0.58089018  0.87897642  0.20055892  1  -0.144038  0.017578  3.662044  0.02  -0.17065  0.006792  3.903143  0.008  -0.172112  0.005552  3.921111  0.007  -0.082193  -0.169881  0.008765  3.891543  0.01
C  C32  1  0.91910799  0.37897676  0.70055899  1  -0.144123  0.017579  3.661978  0.02  -0.170732  0.006792  3.903091  0.008  -0.172192  0.005552  3.921056  0.007  -0.082186  -0.169961  0.008765  3.891481  0.01
C  C33  1  0.41911253  0.12102338  0.79944081  1  -0.144041  0.017571  3.662035  0.02  -0.17064  0.006792  3.903132  0.008  -0.172099  0.005553  3.921098  0.007  -0.082192  -0.169867  0.008765  3.891523  0.01
C  C34  1  0.92640244  0.50633181  0.23272617  1  -0.055652  -0.008738  3.756924  -0.005  -0.03283  1.3e-05  3.986392  0.001  -0.040059  -0.001884  4.007877  -0.001  -0.01803  -0.027713  0.001882  3.971943  0.002
C  C35  1  0.42640233  0.99366743  0.26727591  1  -0.055536  -0.008735  3.756864  -0.005  -0.032707  1.2e-05  3.986336  0.001  -0.039935  -0.001885  4.007812  -0.001  -0.017977  -0.027589  0.001882  3.971885  0.002
C  C36  1  0.07359805  0.49366796  0.76727553  1  -0.055517  -0.008735  3.756773  -0.005  -0.032702  1.3e-05  3.986228  0.001  -0.039927  -0.001884  4.00771  -0.001  -0.017987  -0.027589  0.001882  3.971769  0.002
C  C37  1  0.57359816  0.00633238  0.73272382  1  -0.055489  -0.008723  3.756843  -0.005  -0.032679  1.3e-05  3.98632  0.001  -0.039908  -0.001884  4.0078  -0.001  -0.017985  -0.027565  0.001882  3.971861  0.002
C  C38  1  0.70639287  0.41174946  0.25841746  1  -0.070471  0.020462  3.73883  0.023  -0.099306  0.008363  3.991784  0.009  -0.100542  0.006514  4.013626  0.007  -0.089574  -0.098526  0.011252  3.977255  0.012
C  C39  1  0.20639779  0.08825212  0.24158354  1  -0.070467  0.020459  3.738899  0.023  -0.099318  0.008363  3.991877  0.009  -0.100552  0.006514  4.013714  0.007  -0.089581  -0.098537  0.011252  3.977347  0.012
C  C40  1  0.29360984  0.58824792  0.74158388  1  -0.070517  0.02046  3.738825  0.023  -0.099325  0.008362  3.99178  0.009  -0.10056  0.006514  4.013617  0.007  -0.089556  -0.098545  0.011252  3.977243  0.012
C  C41  1  0.79360269  0.91174770  0.75841487  1  -0.070478  0.020452  3.738929  0.023  -0.099309  0.008363  3.99189  0.009  -0.100545  0.006514  4.013728  0.007  -0.089539  -0.098528  0.011252  3.977355  0.012
C  C42  1  0.64354197  0.43154119  0.35068273  1  -0.074479  -0.019596  3.79728  -0.013  -0.08556  -0.004888  4.052464  -0.003  -0.08739  -0.005575  4.073998  -0.004  -0.098924  -0.08416  -0.00422  4.037622  -0.003
C  C43  1  0.14354746  0.06846043  0.14931765  1  -0.074589  -0.019592  3.79735  -0.013  -0.085664  -0.004887  4.05255  -0.003  -0.087494  -0.005577  4.074084  -0.004  -0.098947  -0.084261  -0.00422  4.037708  -0.003
C  C44  1  0.35645629  0.56845980  0.64931784  1  -0.074504  -0.019592  3.797344  -0.013  -0.085583  -0.004887  4.052518  -0.003  -0.087412  -0.005575  4.074052  -0.004  -0.098944  -0.084182  -0.00422  4.03767  -0.003
C  C45  1  0.85645303  0.93153818  0.85068123  1  -0.074501  -0.019577  3.797367  -0.013  -0.085578  -0.004887  4.052554  -0.003  -0.087408  -0.005575  4.074088  -0.004  -0.098944  -0.084179  -0.00422  4.03771  -0.003
C  C46  1  0.79447202  0.54740367  0.41734447  1  -0.176715  0.018785  3.722856  0.021  -0.198371  0.007963  3.974833  0.009  -0.201357  0.006325  3.993323  0.008  -0.101437  -0.196221  0.009144  3.962405  0.01
C  C47  1  0.29447752  0.95259807  0.08265543  1  -0.176637  0.018782  3.722735  0.021  -0.198311  0.007962  3.974731  0.009  -0.201299  0.006325  3.993227  0.008  -0.101376  -0.196161  0.009144  3.962304  0.01
C  C48  1  0.20552623  0.45259973  0.58265581  1  -0.176662  0.018782  3.722739  0.021  -0.198325  0.007962  3.974724  0.009  -0.201312  0.006324  3.993217  0.008  -0.101368  -0.196181  0.009144  3.962302  0.01
C  C49  1  0.70552520  0.04739934  0.91734327  1  -0.176726  0.018773  3.7229  0.021  -0.198388  0.007962  3.974885  0.009  -0.201374  0.006324  3.993377  0.008  -0.101397  -0.196245  0.009144  3.962467  0.01
C  C50  1  0.00210382  0.48170452  0.13350846  1  0.639728  -0.001279  3.872119  -0.001  0.602825  0.00585  4.165208  0.007  0.64156  0.004261  4.156022  0.005  0.213338  0.575121  0.007158  4.169528  0.007
C  C51  1  0.50210535  0.01829596  0.36649315  1  0.639759  -0.001279  3.872084  -0.001  0.602847  0.005851  4.165165  0.007  0.641596  0.004262  4.155964  0.005  0.213377  0.575144  0.007159  4.169484  0.007
C  C52  1  0.99789220  0.51829646  0.86649343  1  0.639734  -0.001279  3.872131  -0.001  0.602851  0.00585  4.165186  0.007  0.641582  0.00426  4.156002  0.005  0.213396  0.575149  0.007157  4.169499  0.007
C  C53  1  0.49789736  0.98170506  0.63350545  1  0.639733  -0.001279  3.871998  -0.001  0.602833  0.005851  4.165078  0.007  0.641577  0.004262  4.155884  0.005  0.213413  0.575133  0.007158  4.169389  0.007
N  N54  1  0.16574463  0.76104324  0.45996725  1  -0.62679  0.050066  3.192898  0.078  -0.611816  0.030285  3.448343  0.048  -0.640802  0.022847  3.44884  0.039  -0.599461  -0.591113  0.03457  3.448332  0.051
N  N55  1  0.66574566  0.73895738  0.04003255  1  -0.626825  0.050069  3.19284  0.078  -0.611887  0.030285  3.448279  0.048  -0.640857  0.022849  3.448761  0.039  -0.599494  -0.591179  0.034571  3.448271  0.051
N  N56  1  0.83425585  0.23895896  0.54003285  1  -0.626871  0.050067  3.192807  0.078  -0.611957  0.030286  3.44818  0.048  -0.640947  0.022848  3.448676  0.039  -0.599544  -0.591253  0.034574  3.448172  0.051
N  N57  1  0.33425259  0.26104243  0.95996718  1  -0.62689  0.050066  3.192838  0.078  -0.611899  0.030284  3.448278  0.048  -0.640869  0.022848  3.448762  0.039  -0.599523  -0.591195  0.034572  3.448268  0.051
O  O58  1  0.24173871  0.54824428  0.11642611  1  -0.599075  0.051296  2.100695  0.084  -0.570968  0.033812  2.376728  0.057  -0.610666  0.024556  2.370441  0.044  -0.302979  -0.539863  0.043152  2.379091  0.07
O  O59  1  0.74173970  0.95175508  0.38357543  1  -0.599123  0.051297  2.100696  0.084  -0.571006  0.033813  2.376738  0.057  -0.610728  0.024557  2.370467  0.044  -0.303004  -0.5399  0.043153  2.3791  0.07
O  O60  1  0.75825284  0.45175912  0.88357483  1  -0.59907  0.051299  2.100692  0.084  -0.57098  0.033814  2.376747  0.057  -0.61069  0.024558  2.37049  0.044  -0.303019  -0.539871  0.043157  2.379097  0.07
O  O61  1  0.25826524  0.04824595  0.61642251  1  -0.59911  0.051296  2.100628  0.084  -0.57101  0.033812  2.376694  0.057  -0.610723  0.024556  2.370411  0.044  -0.30303  -0.539899  0.043155  2.379035  0.07
O  O62  1  0.82888330  0.39469111  0.07345220  1  -0.647444  0.023141  2.047493  0.038  -0.618847  0.014264  2.324299  0.024  -0.651398  0.009481  2.312875  0.018  -0.327577  -0.593626  0.019094  2.330912  0.03
O  O63  1  0.32888486  0.10531040  0.42654872  1  -0.647477  0.023141  2.047495  0.038  -0.618879  0.014265  2.32433  0.024  -0.651445  0.00948  2.312907  0.018  -0.327617  -0.593667  0.019093  2.330958  0.03
O  O64  1  0.17111495  0.60530747  0.92654932  1  -0.647482  0.02314  2.047573  0.038  -0.618876  0.014264  2.324333  0.024  -0.651424  0.00948  2.31291  0.018  -0.327613  -0.593666  0.019096  2.330956  0.03
O  O65  1  0.67111785  0.89469302  0.57345024  1  -0.647466  0.02314  2.04752  0.038  -0.618858  0.014265  2.324321  0.024  -0.651424  0.009479  2.312904  0.018  -0.327615  -0.593642  0.019095  2.33093  0.03
