# generated using pymatgen
data_KH11C8S(NO)2
_symmetry_space_group_name_H-M   'P 1'
_cell_length_a   4.18008767
_cell_length_b   14.68950130
_cell_length_c   16.62152359
_cell_angle_alpha   89.99998869
_cell_angle_beta   90.00013055
_cell_angle_gamma   90.00000986
_symmetry_Int_Tables_number   1
_chemical_formula_structural   KH11C8S(NO)2
_chemical_formula_sum   'K4 H44 C32 S4 N8 O8'
_cell_volume   1020.61811635
_cell_formula_units_Z   4
loop_
 _symmetry_equiv_pos_site_id
 _symmetry_equiv_pos_as_xyz
  1  'x, y, z'
loop_
 _atom_site_type_symbol
 _atom_site_label
 _atom_site_symmetry_multiplicity
 _atom_site_fract_x
 _atom_site_fract_y
 _atom_site_fract_z
 _atom_site_occupancy
 _atom_site_hle17_bader_spin_density
 _atom_site_hle17_ddec_charge
 _atom_site_hle17_ddec_spin_density
 _atom_site_hle17_ddec_sum_bond_order
 _atom_site_hle17_magmom
 _atom_site_hse06_10hf_bader_spin_density
 _atom_site_hse06_10hf_ddec_charge
 _atom_site_hse06_10hf_ddec_spin_density
 _atom_site_hse06_10hf_ddec_sum_bond_order
 _atom_site_hse06_10hf_magmom
 _atom_site_hse06_bader_spin_density
 _atom_site_hse06_ddec_charge
 _atom_site_hse06_ddec_spin_density
 _atom_site_hse06_ddec_sum_bond_order
 _atom_site_hse06_magmom
 _atom_site_pbe_bader_spin_density
 _atom_site_pbe_cm5_charge
 _atom_site_pbe_ddec_charge
 _atom_site_pbe_ddec_spin_density
 _atom_site_pbe_ddec_sum_bond_order
 _atom_site_pbe_magmom
K  K0  1  0.08854780  0.87683634  0.87152535  1  0  0.921382  0  0.469358  0  0  0.874014  0  0.66029  0  0  0.886947  0  0.640426  0  0  0.699676  0.864327  0  0.674528  0
K  K1  1  0.41145242  0.12316344  0.37152501  1  0  0.921375  0  0.46937  0  0  0.87401  0  0.660298  0  0  0.886943  0  0.640431  0  0  0.699666  0.864312  0  0.674554  0
K  K2  1  0.91145035  0.37683575  0.62847571  1  0  0.921383  0  0.469361  0  0  0.87401  0  0.660292  0  0  0.886945  0  0.640428  0  0  0.699671  0.864319  0  0.67454  0
K  K3  1  0.58854823  0.62316343  0.12847510  1  0  0.921378  0  0.469362  0  0  0.874015  0  0.66028  0  0  0.886947  0  0.640415  0  0  0.699666  0.864307  0  0.674551  0
H  H4  1  0.29746735  0.71871865  0.98901706  1  0  0.141518  0  0.991252  0  0  0.151821  0  1.053393  0  0  0.156511  0  1.052248  0  0  0.110821  0.148532  0  1.054383  0
H  H5  1  0.20253154  0.28128179  0.48901658  1  0  0.14149  0  0.991311  0  0  0.151823  0  1.053412  0  0  0.156511  0  1.052273  0  0  0.110839  0.148535  0  1.054404  0
H  H6  1  0.70253310  0.21871807  0.51098342  1  0  0.141513  0  0.991272  0  0  0.151809  0  1.053412  0  0  0.156498  0  1.052269  0  0  0.110829  0.14852  0  1.054403  0
H  H7  1  0.79746921  0.78128182  0.01098411  1  0  0.141488  0  0.991311  0  0  0.151819  0  1.05341  0  0  0.156507  0  1.052271  0  0  0.11084  0.148532  0  1.054401  0
H  H8  1  0.84991391  0.55106698  0.73898961  1  0  0.043521  0  1.000091  0  0  0.053092  0  1.077876  0  0  0.053772  0  1.077892  0  0  0.093486  0.05247  0  1.07803  0
H  H9  1  0.65009045  0.44893354  0.23898967  1  0  0.043478  0  1.000139  0  0  0.053051  0  1.077899  0  0  0.053732  0  1.077913  0  0  0.093464  0.052431  0  1.078051  0
H  H10  1  0.15008883  0.05106632  0.76101030  1  0  0.043482  0  1.000151  0  0  0.053052  0  1.077916  0  0  0.053733  0  1.077931  0  0  0.093465  0.05243  0  1.07807  0
H  H11  1  0.34991040  0.94893349  0.26101039  1  0  0.043488  0  1.000143  0  0  0.053035  0  1.077928  0  0  0.053716  0  1.077942  0  0  0.093456  0.052415  0  1.07808  0
H  H12  1  0.90797985  0.66686260  0.76853264  1  0  0.073624  0  0.937897  0  0  0.089876  0  0.997678  0  0  0.091216  0  0.996822  0  0  0.112625  0.088822  0  0.998406  0
H  H13  1  0.59202000  0.33313723  0.26853268  1  0  0.0737  0  0.938003  0  0  0.089947  0  0.997745  0  0  0.091287  0  0.996891  0  0  0.112659  0.088894  0  0.998473  0
H  H14  1  0.09202057  0.16686263  0.73146725  1  0  0.073668  0  0.937968  0  0  0.089906  0  0.997731  0  0  0.091246  0  0.996876  0  0  0.112644  0.088852  0  0.998458  0
H  H15  1  0.40798317  0.83313650  0.23146739  1  0  0.073695  0  0.938028  0  0  0.089935  0  0.997758  0  0  0.091274  0  0.996905  0  0  0.11265  0.088883  0  0.998484  0
H  H16  1  0.70817000  0.65833680  0.62746308  1  0  0.102172  0  0.946808  0  0  0.128965  0  0.999848  0  0  0.129682  0  1.000869  0  0  0.093932  0.128386  0  0.999185  0
H  H17  1  0.79182857  0.34166239  0.12746264  1  0  0.102163  0  0.946809  0  0  0.128953  0  0.999855  0  0  0.12967  0  1.000874  0  0  0.093925  0.128374  0  0.99919  0
H  H18  1  0.29182802  0.15833748  0.87253681  1  0  0.102165  0  0.946818  0  0  0.12894  0  0.999881  0  0  0.129656  0  1.000902  0  0  0.093927  0.128361  0  0.999217  0
H  H19  1  0.20817221  0.84166230  0.37253744  1  0  0.102162  0  0.946798  0  0  0.128966  0  0.999828  0  0  0.129685  0  1.000846  0  0  0.093923  0.128388  0  0.999163  0
H  H20  1  0.42746567  0.71422636  0.69048670  1  0  0.10774  0  0.947968  0  0  0.128455  0  1.008921  0  0  0.130276  0  1.008439  0  0  0.09168  0.127058  0  1.009382  0
H  H21  1  0.07253292  0.28577347  0.19048675  1  0  0.107737  0  0.947965  0  0  0.128453  0  1.008917  0  0  0.130274  0  1.008436  0  0  0.091681  0.127056  0  1.009377  0
H  H22  1  0.57253478  0.21422571  0.80951318  1  0  0.107753  0  0.947968  0  0  0.128468  0  1.008919  0  0  0.130288  0  1.008438  0  0  0.091684  0.127072  0  1.009378  0
H  H23  1  0.92746783  0.78577343  0.30951334  1  0  0.10774  0  0.94796  0  0  0.128454  0  1.008915  0  0  0.130275  0  1.008434  0  0  0.091683  0.127058  0  1.009373  0
H  H24  1  0.36338071  0.59820608  0.65997084  1  0  0.09671  0  0.971916  0  0  0.1146  0  1.040482  0  0  0.116221  0  1.040372  0  0  0.089784  0.113367  0  1.040649  0
H  H25  1  0.13661999  0.40179375  0.15997090  1  0  0.096722  0  0.971904  0  0  0.114608  0  1.040476  0  0  0.116229  0  1.040365  0  0  0.089788  0.113375  0  1.040641  0
H  H26  1  0.63661727  0.09820611  0.84002906  1  0  0.096688  0  0.97194  0  0  0.11458  0  1.040509  0  0  0.116203  0  1.040396  0  0  0.089765  0.113346  0  1.040678  0
H  H27  1  0.86338083  0.90179370  0.34002917  1  0  0.096718  0  0.971902  0  0  0.114602  0  1.040477  0  0  0.116223  0  1.040367  0  0  0.089787  0.113369  0  1.040642  0
H  H28  1  0.96706750  0.39570635  0.86835987  1  0  0.060763  0  0.985504  0  0  0.074496  0  1.053585  0  0  0.075355  0  1.053444  0  0  0.093854  0.073791  0  1.053814  0
H  H29  1  0.53293325  0.60429346  0.36836044  1  0  0.060746  0  0.985507  0  0  0.074486  0  1.053587  0  0  0.075344  0  1.053445  0  0  0.09385  0.073782  0  1.053814  0
H  H30  1  0.03293306  0.89570631  0.63163938  1  0  0.06075  0  0.98552  0  0  0.074485  0  1.053597  0  0  0.075341  0  1.053455  0  0  0.093855  0.073779  0  1.053824  0
H  H31  1  0.46706739  0.10429353  0.13164028  1  0  0.060742  0  0.985503  0  0  0.074483  0  1.053581  0  0  0.075341  0  1.053439  0  0  0.093845  0.073779  0  1.053809  0
H  H32  1  0.85650806  0.44167999  0.96409715  1  0  0.07172  0  0.951474  0  0  0.08709  0  1.014086  0  0  0.088302  0  1.01335  0  0  0.109373  0.086121  0  1.014772  0
H  H33  1  0.64349356  0.55831980  0.46409718  1  0  0.071742  0  0.951429  0  0  0.087093  0  1.014062  0  0  0.088304  0  1.013326  0  0  0.109372  0.086123  0  1.014751  0
H  H34  1  0.14349252  0.94167997  0.53590270  1  0  0.071729  0  0.951463  0  0  0.087096  0  1.014074  0  0  0.088307  0  1.013339  0  0  0.109375  0.086126  0  1.01476  0
H  H35  1  0.35650945  0.05831921  0.03590294  1  0  0.071712  0  0.951474  0  0  0.087099  0  1.014068  0  0  0.08831  0  1.013333  0  0  0.109378  0.086131  0  1.014755  0
H  H36  1  0.36857862  0.38207084  0.02339925  1  0  0.099186  0  0.956579  0  0  0.120324  0  1.019339  0  0  0.121972  0  1.018651  0  0  0.09148  0.119073  0  1.01991  0
H  H37  1  0.13142085  0.61792902  0.52339966  1  0  0.099194  0  0.956553  0  0  0.120309  0  1.019338  0  0  0.121957  0  1.018651  0  0  0.091471  0.119058  0  1.01991  0
H  H38  1  0.63142219  0.88207075  0.47660022  1  0  0.099189  0  0.956552  0  0  0.120303  0  1.019343  0  0  0.121951  0  1.018655  0  0  0.091472  0.119052  0  1.019914  0
H  H39  1  0.86858193  0.11792903  0.97660084  1  0  0.099182  0  0.95658  0  0  0.120323  0  1.019331  0  0  0.121971  0  1.018644  0  0  0.091477  0.119073  0  1.019903  0
H  H40  1  0.46245154  0.33094103  0.92829046  1  0  0.098203  0  0.977031  0  0  0.117726  0  1.04388  0  0  0.118647  0  1.044817  0  0  0.085787  0.116979  0  1.043329  0
H  H41  1  0.03754681  0.66905806  0.42829041  1  0  0.09819  0  0.977045  0  0  0.117711  0  1.043894  0  0  0.118633  0  1.04483  0  0  0.085781  0.116964  0  1.043341  0
H  H42  1  0.53754898  0.83094102  0.57171001  1  0  0.098184  0  0.977051  0  0  0.11771  0  1.043892  0  0  0.118631  0  1.044829  0  0  0.085785  0.116963  0  1.04334  0
H  H43  1  0.96244909  0.16905885  0.07171029  1  0  0.098191  0  0.977029  0  0  0.117713  0  1.043877  0  0  0.118635  0  1.044813  0  0  0.085785  0.116966  0  1.043325  0
H  H44  1  0.12354501  0.29381654  0.98422868  1  0  0.100549  0  0.964291  0  0  0.12643  0  1.022523  0  0  0.126902  0  1.023838  0  0  0.090997  0.12602  0  1.021667  0
H  H45  1  0.37645623  0.70618322  0.48422882  1  0  0.100559  0  0.964268  0  0  0.126435  0  1.022503  0  0  0.126907  0  1.023819  0  0  0.090997  0.126025  0  1.021647  0
H  H46  1  0.87645309  0.79381657  0.51577119  1  0  0.100543  0  0.964291  0  0  0.126422  0  1.022521  0  0  0.126894  0  1.023837  0  0  0.091004  0.126012  0  1.021665  0
H  H47  1  0.62354447  0.20618332  0.01577128  1  0  0.100581  0  0.964251  0  0  0.126459  0  1.022489  0  0  0.126932  0  1.023804  0  0  0.09101  0.126049  0  1.021633  0
C  C48  1  0.39006992  0.51840962  0.83673022  1  0  0.385775  0  3.718323  0  0  0.339705  0  4.01197  0  0  0.367344  0  4.019258  0  0  0.247916  0.321521  0  4.006222  0
C  C49  1  0.10992999  0.48159017  0.33672965  1  0  0.385724  0  3.718185  0  0  0.339664  0  4.011826  0  0  0.3673  0  4.019122  0  0  0.247885  0.321481  0  4.006077  0
C  C50  1  0.60993040  0.01840969  0.66326970  1  0  0.385736  0  3.718164  0  0  0.339669  0  4.011821  0  0  0.367307  0  4.019109  0  0  0.247894  0.321486  0  4.006074  0
C  C51  1  0.89007088  0.98159017  0.16327040  1  0  0.385723  0  3.718192  0  0  0.339659  0  4.011841  0  0  0.367299  0  4.019127  0  0  0.247884  0.321476  0  4.006094  0
C  C52  1  0.19518706  0.57795893  0.96681691  1  0  0.540996  0  3.929463  0  0  0.496995  0  4.219571  0  0  0.527608  0  4.221543  0  0  0.186349  0.476572  0  4.217482  0
C  C53  1  0.30480924  0.42204219  0.46681767  1  0  0.540969  0  3.929475  0  0  0.496967  0  4.219588  0  0  0.527578  0  4.221563  0  0  0.186312  0.476543  0  4.217502  0
C  C54  1  0.80481091  0.07795836  0.53318299  1  0  0.541027  0  3.929458  0  0  0.497009  0  4.219575  0  0  0.527622  0  4.221548  0  0  0.186344  0.476585  0  4.217491  0
C  C55  1  0.69518920  0.92204221  0.03318300  1  0  0.540989  0  3.929545  0  0  0.496969  0  4.219671  0  0  0.527582  0  4.221645  0  0  0.186333  0.476545  0  4.217589  0
C  C56  1  0.32617707  0.66279504  0.94679892  1  0  -0.529363  0  3.783749  0  0  -0.554759  0  4.062635  0  0  -0.577771  0  4.077244  0  0  -0.171377  -0.539615  0  4.052677  0
C  C57  1  0.17381187  0.33720745  0.44679962  1  0  -0.529366  0  3.783821  0  0  -0.554783  0  4.062708  0  0  -0.577798  0  4.077317  0  0  -0.171398  -0.539643  0  4.052753  0
C  C58  1  0.67382335  0.16279445  0.55320157  1  0  -0.529376  0  3.783826  0  0  -0.554795  0  4.062759  0  0  -0.577805  0  4.077369  0  0  -0.171426  -0.539652  0  4.0528  0
C  C59  1  0.82618652  0.83720747  0.05320106  1  0  -0.529395  0  3.783911  0  0  -0.554847  0  4.06283  0  0  -0.577857  0  4.077442  0  0  -0.171471  -0.539709  0  4.052872  0
C  C60  1  0.49353209  0.67809033  0.87499147  1  0  0.544933  0  3.925544  0  0  0.503581  0  4.211914  0  0  0.534315  0  4.213714  0  0  0.196115  0.483063  0  4.209974  0
C  C61  1  0.00646338  0.32191014  0.37499147  1  0  0.544971  0  3.925507  0  0  0.503615  0  4.211886  0  0  0.534354  0  4.213678  0  0  0.19614  0.483097  0  4.209945  0
C  C62  1  0.50646833  0.17809040  0.62500842  1  0  0.544919  0  3.925613  0  0  0.50361  0  4.211903  0  0  0.534341  0  4.213701  0  0  0.196135  0.483092  0  4.209963  0
C  C63  1  0.99353500  0.82191015  0.12500861  1  0  0.544981  0  3.92559  0  0  0.503682  0  4.211879  0  0  0.534409  0  4.213683  0  0  0.196176  0.483173  0  4.209928  0
C  C64  1  0.72990693  0.61587040  0.75120145  1  0  0.057705  0  3.659339  0  0  -0.000411  0  3.920155  0  0  0.005108  0  3.930761  0  0  -0.066471  -0.003959  0  3.912819  0
C  C65  1  0.77009276  0.38412876  0.25120159  1  0  0.057613  0  3.659561  0  0  -0.000454  0  3.920283  0  0  0.005066  0  3.930886  0  0  -0.066487  -0.004009  0  3.912956  0
C  C66  1  0.27009106  0.11586975  0.74879665  1  0  0.057634  0  3.659507  0  0  -0.000433  0  3.92025  0  0  0.005087  0  3.930853  0  0  -0.066473  -0.003979  0  3.912913  0
C  C67  1  0.22990805  0.88412938  0.24879728  1  0  0.05757  0  3.659671  0  0  -0.000439  0  3.920302  0  0  0.005078  0  3.93091  0  0  -0.066466  -0.003991  0  3.912972  0
C  C68  1  0.54309953  0.64858424  0.67817920  1  0  -0.304576  0  3.684598  0  0  -0.379244  0  3.924401  0  0  -0.382301  0  3.933974  0  0  -0.239616  -0.376847  0  3.917815  0
C  C69  1  0.95689950  0.35141561  0.17817946  1  0  -0.304557  0  3.684598  0  0  -0.379239  0  3.924381  0  0  -0.382297  0  3.933956  0  0  -0.239617  -0.376843  0  3.917803  0
C  C70  1  0.45689848  0.14858427  0.82182009  1  0  -0.304541  0  3.684582  0  0  -0.379214  0  3.924361  0  0  -0.382271  0  3.933934  0  0  -0.239597  -0.376818  0  3.917779  0
C  C71  1  0.04310129  0.85141553  0.32182062  1  0  -0.304554  0  3.684552  0  0  -0.379257  0  3.924314  0  0  -0.382316  0  3.933888  0  0  -0.23963  -0.376862  0  3.917736  0
C  C72  1  0.05721603  0.42264937  0.92542537  1  0  0.053307  0  3.651938  0  0  -0.005027  0  3.908928  0  0  0.000282  0  3.91945  0  0  -0.072262  -0.008523  0  3.901775  0
C  C73  1  0.44278229  0.57735040  0.42542498  1  0  0.053285  0  3.651976  0  0  -0.005047  0  3.908969  0  0  0.00027  0  3.919482  0  0  -0.072271  -0.008544  0  3.901815  0
C  C74  1  0.94278215  0.92264939  0.57457507  1  0  0.053275  0  3.65201  0  0  -0.005049  0  3.908979  0  0  0.000262  0  3.919502  0  0  -0.072283  -0.00854  0  3.901818  0
C  C75  1  0.55721834  0.07735049  0.07457515  1  0  0.053315  0  3.651963  0  0  -0.005042  0  3.908968  0  0  0.000274  0  3.91948  0  0  -0.072268  -0.008539  0  3.901816  0
C  C76  1  0.26808020  0.35339855  0.96788906  1  0  -0.309564  0  3.694326  0  0  -0.387747  0  3.937804  0  0  -0.390457  0  3.94757  0  0  -0.246026  -0.385588  0  3.931102  0
C  C77  1  0.23191850  0.64660121  0.46788913  1  0  -0.309577  0  3.694309  0  0  -0.387729  0  3.93778  0  0  -0.390441  0  3.947544  0  0  -0.246019  -0.385572  0  3.931083  0
C  C78  1  0.73191794  0.85339857  0.53211080  1  0  -0.30951  0  3.69434  0  0  -0.387674  0  3.937816  0  0  -0.390384  0  3.947581  0  0  -0.246003  -0.385518  0  3.931114  0
C  C79  1  0.76807977  0.14660132  0.03211038  1  0  -0.309595  0  3.694282  0  0  -0.387776  0  3.937778  0  0  -0.390488  0  3.947542  0  0  -0.246044  -0.385619  0  3.931081  0
S  S80  1  0.41974362  0.43107242  0.77102447  1  0  -0.530567  0  1.958745  0  0  -0.523471  0  2.289464  0  0  -0.535084  0  2.28049  0  0  -0.230783  -0.515276  0  2.295535  0
S  S81  1  0.08025809  0.56892739  0.27102447  1  0  -0.530542  0  1.95872  0  0  -0.523466  0  2.289458  0  0  -0.535079  0  2.280485  0  0  -0.230788  -0.515265  0  2.295526  0
S  S82  1  0.58025696  0.93107239  0.72897478  1  0  -0.530547  0  1.958723  0  0  -0.523459  0  2.289445  0  0  -0.53507  0  2.28047  0  0  -0.230776  -0.515264  0  2.295514  0
S  S83  1  0.91974253  0.06892678  0.22897506  1  0  -0.530545  0  1.958747  0  0  -0.523464  0  2.289489  0  0  -0.53508  0  2.280514  0  0  -0.230781  -0.515264  0  2.295558  0
N  N84  1  0.53038991  0.60147984  0.82288194  1  0  -0.24136  0  3.347304  0  0  -0.151907  0  3.574091  0  0  -0.175332  0  3.593786  0  0  -0.241828  -0.136435  0  3.56051  0
N  N85  1  0.96961043  0.39851998  0.32288220  1  0  -0.241351  0  3.347336  0  0  -0.151919  0  3.574114  0  0  -0.175347  0  3.593807  0  0  -0.241841  -0.136446  0  3.560535  0
N  N86  1  0.46961047  0.10147990  0.67711736  1  0  -0.241315  0  3.347353  0  0  -0.151886  0  3.574113  0  0  -0.17531  0  3.593811  0  0  -0.241844  -0.136414  0  3.560533  0
N  N87  1  0.03039039  0.89851993  0.17711787  1  0  -0.241312  0  3.347394  0  0  -0.151908  0  3.57414  0  0  -0.175331  0  3.593835  0  0  -0.241833  -0.136438  0  3.56056  0
N  N88  1  0.22313594  0.50836502  0.90727545  1  0  -0.234314  0  3.340354  0  0  -0.143985  0  3.567387  0  0  -0.16707  0  3.58653  0  0  -0.242999  -0.128684  0  3.55407  0
N  N89  1  0.27686460  0.49163476  0.40727558  1  0  -0.234241  0  3.34029  0  0  -0.143906  0  3.567311  0  0  -0.166993  0  3.586454  0  0  -0.242935  -0.128606  0  3.553995  0
N  N90  1  0.77686438  0.00836511  0.59272386  1  0  -0.234289  0  3.340232  0  0  -0.143956  0  3.567265  0  0  -0.16704  0  3.586406  0  0  -0.242962  -0.128657  0  3.553949  0
N  N91  1  0.72313388  0.99163476  0.09272447  1  0  -0.234241  0  3.340286  0  0  -0.143898  0  3.567314  0  0  -0.166984  0  3.586457  0  0  -0.242935  -0.128598  0  3.554  0
O  O92  1  0.05831967  0.55852951  0.03234839  1  0  -0.678476  0  1.955629  0  0  -0.634612  0  2.194093  0  0  -0.655327  0  2.185645  0  0  -0.441227  -0.620021  0  2.199351  0
O  O93  1  0.44168227  0.44147035  0.53234900  1  0  -0.678463  0  1.955617  0  0  -0.634592  0  2.194077  0  0  -0.655306  0  2.185629  0  0  -0.441203  -0.620005  0  2.199337  0
O  O94  1  0.94168095  0.05852953  0.46765174  1  0  -0.678485  0  1.955616  0  0  -0.63461  0  2.194084  0  0  -0.655326  0  2.185636  0  0  -0.441212  -0.62002  0  2.199344  0
O  O95  1  0.55831831  0.94147026  0.96765144  1  0  -0.678452  0  1.955625  0  0  -0.634579  0  2.194093  0  0  -0.655294  0  2.185646  0  0  -0.441193  -0.619992  0  2.199354  0
O  O96  1  0.61188838  0.75322563  0.85326906  1  0  -0.671573  0  1.973276  0  0  -0.625998  0  2.215981  0  0  -0.647109  0  2.207524  0  0  -0.44128  -0.611134  0  2.221238  0
O  O97  1  0.88811462  0.24677419  0.35326929  1  0  -0.671564  0  1.973287  0  0  -0.625989  0  2.216001  0  0  -0.647095  0  2.207527  0  0  -0.441278  -0.611121  0  2.221256  0
O  O98  1  0.38811209  0.25322501  0.64673081  1  0  -0.671569  0  1.973303  0  0  -0.625998  0  2.215975  0  0  -0.647112  0  2.207527  0  0  -0.44127  -0.611132  0  2.221232  0
O  O99  1  0.11188610  0.74677483  0.14673080  1  0  -0.671571  0  1.973325  0  0  -0.626007  0  2.215993  0  0  -0.647111  0  2.207529  0  0  -0.441273  -0.61114  0  2.221244  0
