# generated using pymatgen
data_CdH21C26BrN3O4
_symmetry_space_group_name_H-M   'P 1'
_cell_length_a   10.30350226
_cell_length_b   10.84693921
_cell_length_c   13.88474816
_cell_angle_alpha   109.05270488
_cell_angle_beta   102.32773813
_cell_angle_gamma   108.84653937
_symmetry_Int_Tables_number   1
_chemical_formula_structural   CdH21C26BrN3O4
_chemical_formula_sum   'Cd2 H42 C52 Br2 N6 O8'
_cell_volume   1296.89731844
_cell_formula_units_Z   2
loop_
 _symmetry_equiv_pos_site_id
 _symmetry_equiv_pos_as_xyz
  1  'x, y, z'
loop_
 _atom_site_type_symbol
 _atom_site_label
 _atom_site_symmetry_multiplicity
 _atom_site_fract_x
 _atom_site_fract_y
 _atom_site_fract_z
 _atom_site_occupancy
 _atom_site_hle17_bader_spin_density
 _atom_site_hle17_ddec_charge
 _atom_site_hle17_ddec_spin_density
 _atom_site_hle17_ddec_sum_bond_order
 _atom_site_hle17_magmom
 _atom_site_hse06_10hf_bader_spin_density
 _atom_site_hse06_10hf_ddec_charge
 _atom_site_hse06_10hf_ddec_spin_density
 _atom_site_hse06_10hf_ddec_sum_bond_order
 _atom_site_hse06_10hf_magmom
 _atom_site_hse06_bader_spin_density
 _atom_site_hse06_ddec_charge
 _atom_site_hse06_ddec_spin_density
 _atom_site_hse06_ddec_sum_bond_order
 _atom_site_hse06_magmom
 _atom_site_pbe_bader_spin_density
 _atom_site_pbe_cm5_charge
 _atom_site_pbe_ddec_charge
 _atom_site_pbe_ddec_spin_density
 _atom_site_pbe_ddec_sum_bond_order
 _atom_site_pbe_magmom
Cd  Cd0  1  0.13083943  0.25308656  0.32133588  1  0  1.031136  0  1.763269  0  0  0.826228  0  2.213484  0  0  0.884313  0  2.166137  0  0  0.758608  0.781946  0  2.248062  0
Cd  Cd1  1  0.86915920  0.74691253  0.67866286  1  0  1.031113  0  1.763257  0  0  0.826216  0  2.213467  0  0  0.884299  0  2.166124  0  0  0.7586  0.781934  0  2.24804  0
H  H2  1  0.62846696  0.25464898  0.31498027  1  0  0.107508  0  0.960695  0  0  0.113807  0  1.031626  0  0  0.117833  0  1.027805  0  0  0.105441  0.110999  0  1.034552  0
H  H3  1  0.37153121  0.74534686  0.68501613  1  0  0.107602  0  0.960671  0  0  0.113842  0  1.031661  0  0  0.117868  0  1.02784  0  0  0.10546  0.111033  0  1.034588  0
H  H4  1  0.25113650  0.85805702  0.20965433  1  0  0.111885  0  0.967471  0  0  0.119262  0  1.037182  0  0  0.122779  0  1.034622  0  0  0.104641  0.117034  0  1.038319  0
H  H5  1  0.74886175  0.14194103  0.79034625  1  0  0.111801  0  0.967453  0  0  0.119189  0  1.037167  0  0  0.122712  0  1.034588  0  0  0.104614  0.116962  0  1.0383  0
H  H6  1  0.66453304  0.85295955  0.19454302  1  0  0.103738  0  0.984669  0  0  0.110469  0  1.056382  0  0  0.1143  0  1.052853  0  0  0.100641  0.108038  0  1.058224  0
H  H7  1  0.33546690  0.14703747  0.80546187  1  0  0.103775  0  0.984671  0  0  0.110536  0  1.056344  0  0  0.114364  0  1.052815  0  0  0.100661  0.108107  0  1.058186  0
H  H8  1  0.12455393  0.08030126  0.46642947  1  0  0.081024  0  0.939522  0  0  0.089352  0  1.004658  0  0  0.091956  0  1.00242  0  0  0.114973  0.087273  0  1.006738  0
H  H9  1  0.87544279  0.91969786  0.53357118  1  0  0.080997  0  0.939534  0  0  0.089308  0  1.004692  0  0  0.091911  0  1.002454  0  0  0.114975  0.087226  0  1.00677  0
H  H10  1  0.13474142  0.09937872  0.65350498  1  0  0.119622  0  0.976009  0  0  0.125904  0  1.042837  0  0  0.12978  0  1.041371  0  0  0.104701  0.123153  0  1.04384  0
H  H11  1  0.86526120  0.90062256  0.34649705  1  0  0.119672  0  0.97602  0  0  0.125963  0  1.042825  0  0  0.129843  0  1.04136  0  0  0.104698  0.123214  0  1.043829  0
H  H12  1  0.25110999  0.55475282  0.75343172  1  0  0.11683  0  0.936525  0  0  0.128379  0  0.991739  0  0  0.132159  0  0.989999  0  0  0.11071  0.12552  0  0.993508  0
H  H13  1  0.74889603  0.44524952  0.24656962  1  0  0.116823  0  0.936572  0  0  0.128378  0  0.991776  0  0  0.132161  0  0.990032  0  0  0.110709  0.125515  0  0.993546  0
H  H14  1  0.23337829  0.51508447  0.56391988  1  0  0.076538  0  0.957358  0  0  0.084061  0  1.023725  0  0  0.086216  0  1.021966  0  0  0.115207  0.082592  0  1.024767  0
H  H15  1  0.76662236  0.48491463  0.43607987  1  0  0.076554  0  0.957341  0  0  0.084075  0  1.023705  0  0  0.086229  0  1.021945  0  0  0.1152  0.082609  0  1.02475  0
H  H16  1  0.23934032  0.46030161  0.88757144  1  0  0.07156  0  0.951581  0  0  0.085676  0  1.017152  0  0  0.087715  0  1.015628  0  0  0.085192  0.084159  0  1.018322  0
H  H17  1  0.76067016  0.53970182  0.11243152  1  0  0.071514  0  0.951644  0  0  0.085649  0  1.017201  0  0  0.087684  0  1.015675  0  0  0.085184  0.084133  0  1.018373  0
H  H18  1  0.27707976  0.30837605  0.86510918  1  0  0.077122  0  0.951191  0  0  0.093654  0  1.016304  0  0  0.094853  0  1.015395  0  0  0.093092  0.093142  0  1.016064  0
H  H19  1  0.72292637  0.69162416  0.13489307  1  0  0.077164  0  0.951237  0  0  0.09372  0  1.016317  0  0  0.094917  0  1.015407  0  0  0.093131  0.093207  0  1.016072  0
H  H20  1  0.97250361  0.30877023  0.81479575  1  0  0.075868  0  0.930726  0  0  0.093277  0  0.991638  0  0  0.094438  0  0.991476  0  0  0.090931  0.092669  0  0.991043  0
H  H21  1  0.02750418  0.69123639  0.18520478  1  0  0.075784  0  0.930759  0  0  0.093228  0  0.991649  0  0  0.094392  0  0.991482  0  0  0.090892  0.092621  0  0.991053  0
H  H22  1  0.99821690  0.14857741  0.76795906  1  0  0.112539  0  0.935438  0  0  0.128971  0  0.99575  0  0  0.130944  0  0.994493  0  0  0.104093  0.127328  0  0.99715  0
H  H23  1  0.00178853  0.85142817  0.23204302  1  0  0.11255  0  0.935356  0  0  0.128975  0  0.995692  0  0  0.130936  0  0.994451  0  0  0.104102  0.127334  0  0.997094  0
H  H24  1  0.93404332  0.37295762  0.98753319  1  0  0.093529  0  0.979416  0  0  0.099826  0  1.050911  0  0  0.103087  0  1.050124  0  0  0.094037  0.097416  0  1.051659  0
H  H25  1  0.06596050  0.62704900  0.01246677  1  0  0.093505  0  0.979474  0  0  0.099809  0  1.050969  0  0  0.103072  0  1.05018  0  0  0.094041  0.097396  0  1.051716  0
H  H26  1  0.96110580  0.35057391  0.16396576  1  0  0.078513  0  0.943192  0  0  0.087985  0  1.00585  0  0  0.090373  0  1.003748  0  0  0.11256  0.086118  0  1.007471  0
H  H27  1  0.03889309  0.64943054  0.83603223  1  0  0.07852  0  0.943202  0  0  0.08796  0  1.005884  0  0  0.090348  0  1.003784  0  0  0.112582  0.086097  0  1.007502  0
H  H28  1  0.19437193  0.10620822  0.09860062  1  0  0.078081  0  0.93773  0  0  0.088949  0  0.996128  0  0  0.090713  0  0.995141  0  0  0.116233  0.087668  0  0.996783  0
H  H29  1  0.80562182  0.89379090  0.90139961  1  0  0.078014  0  0.937736  0  0  0.088863  0  0.996166  0  0  0.090627  0  0.995178  0  0  0.116194  0.087578  0  0.996818  0
H  H30  1  0.17213831  0.11252290  0.91771787  1  0  0.118967  0  0.952092  0  0  0.129833  0  1.009645  0  0  0.133012  0  1.009145  0  0  0.10862  0.127364  0  1.010397  0
H  H31  1  0.82786134  0.88747838  0.08228374  1  0  0.119012  0  0.952123  0  0  0.129886  0  1.009661  0  0  0.133066  0  1.009159  0  0  0.108644  0.127414  0  1.010415  0
H  H32  1  0.03397945  0.51300159  0.37790407  1  0  0.084253  0  0.975386  0  0  0.091021  0  1.044482  0  0  0.09341  0  1.042461  0  0  0.112034  0.089213  0  1.046154  0
H  H33  1  0.96601921  0.48699534  0.62209340  1  0  0.084205  0  0.975435  0  0  0.091026  0  1.044468  0  0  0.093415  0  1.042447  0  0  0.112034  0.089215  0  1.046152  0
H  H34  1  0.13592123  0.78057743  0.44232509  1  0  0.106371  0  0.942663  0  0  0.119971  0  0.996871  0  0  0.122248  0  0.998279  0  0  0.105275  0.117878  0  0.997001  0
H  H35  1  0.86407445  0.21941949  0.55767196  1  0  0.10635  0  0.942687  0  0  0.119943  0  0.996894  0  0  0.122219  0  0.998302  0  0  0.105265  0.117829  0  0.997047  0
H  H36  1  0.55545365  0.77668216  0.44653418  1  0  0.103268  0  0.966741  0  0  0.112518  0  1.030533  0  0  0.114976  0  1.031239  0  0  0.103112  0.110308  0  1.031164  0
H  H37  1  0.44454652  0.22332021  0.55346923  1  0  0.103232  0  0.966787  0  0  0.112471  0  1.030591  0  0  0.114933  0  1.031288  0  0  0.103109  0.110264  0  1.031223  0
H  H38  1  0.43485207  0.51036348  0.38051966  1  0  0.096807  0  0.95117  0  0  0.105948  0  1.012021  0  0  0.108902  0  1.008858  0  0  0.116898  0.103708  0  1.014598  0
H  H39  1  0.56514956  0.48963780  0.61948223  1  0  0.096786  0  0.951224  0  0  0.105929  0  1.012059  0  0  0.108882  0  1.008898  0  0  0.116898  0.10369  0  1.014637  0
H  H40  1  0.40311995  0.00776718  0.57012393  1  0  0.080558  0  0.950431  0  0  0.09815  0  1.014404  0  0  0.097623  0  1.017328  0  0  0.094686  0.098547  0  1.012235  0
H  H41  1  0.59687625  0.99223302  0.42987692  1  0  0.080561  0  0.950478  0  0  0.09813  0  1.01447  0  0  0.097604  0  1.017391  0  0  0.094674  0.098529  0  1.012303  0
H  H42  1  0.35261052  0.99064805  0.43563860  1  0  0.087544  0  0.94379  0  0  0.10486  0  1.007238  0  0  0.105984  0  1.006875  0  0  0.097444  0.104079  0  1.007382  0
H  H43  1  0.64738466  0.00935214  0.56436139  1  0  0.087492  0  0.943862  0  0  0.104856  0  1.007247  0  0  0.105981  0  1.006885  0  0  0.097445  0.104079  0  1.007387  0
C  C44  1  0.82466949  0.14082244  0.28107215  1  0  0.623241  0  3.956045  0  0  0.57801  0  4.241091  0  0  0.611895  0  4.235321  0  0  0.188833  0.555139  0  4.243765  0
C  C45  1  0.17532877  0.85917126  0.71892444  1  0  0.623274  0  3.956272  0  0  0.578019  0  4.241311  0  0  0.611909  0  4.23554  0  0  0.18878  0.555158  0  4.243982  0
C  C46  1  0.66338388  0.06194177  0.25730180  1  0  -0.046606  0  3.756219  0  0  -0.018211  0  3.985583  0  0  -0.026632  0  4.00772  0  0  -0.017458  -0.01319  0  3.971802  0
C  C47  1  0.33661437  0.93805410  0.74269678  1  0  -0.046732  0  3.756468  0  0  -0.018261  0  3.985716  0  0  -0.026689  0  4.007856  0  0  -0.0175  -0.013248  0  3.971946  0
C  C48  1  0.57899482  0.13770418  0.28136097  1  0  -0.067237  0  3.693925  0  0  -0.105251  0  3.938435  0  0  -0.101886  0  3.955942  0  0  -0.076031  -0.108008  0  3.928182  0
C  C49  1  0.42100340  0.86229168  0.71863688  1  0  -0.067289  0  3.693953  0  0  -0.105257  0  3.938401  0  0  -0.101896  0  3.955901  0  0  -0.076029  -0.108018  0  3.928153  0
C  C50  1  0.43151074  0.06419714  0.26511797  1  0  -0.044757  0  3.750688  0  0  -0.015125  0  3.97898  0  0  -0.023449  0  4.001055  0  0  -0.01567  -0.010045  0  3.964957  0
C  C51  1  0.56848844  0.93580089  0.73488130  1  0  -0.044807  0  3.750692  0  0  -0.015163  0  3.978966  0  0  -0.023465  0  4.00101  0  0  -0.015668  -0.010078  0  3.964939  0
C  C52  1  0.36588732  0.91331760  0.22121478  1  0  -0.117467  0  3.723619  0  0  -0.152543  0  3.970948  0  0  -0.150869  0  3.989317  0  0  -0.090042  -0.152527  0  3.957771  0
C  C53  1  0.63411149  0.08667937  0.77878633  1  0  -0.117317  0  3.723523  0  0  -0.152404  0  3.97086  0  0  -0.150734  0  3.989224  0  0  -0.090005  -0.152395  0  3.957682  0
C  C54  1  0.44989747  0.83874334  0.19443279  1  0  0.08788  0  3.738889  0  0  0.107511  0  4.007268  0  0  0.10826  0  4.029142  0  0  -0.018546  0.106558  0  3.992218  0
C  C55  1  0.55009897  0.16125259  0.80556987  1  0  0.087832  0  3.738876  0  0  0.10744  0  4.007305  0  0  0.108187  0  4.029182  0  0  -0.018588  0.106494  0  3.992251  0
C  C56  1  0.59801200  0.91097307  0.21300758  1  0  -0.127442  0  3.741594  0  0  -0.16264  0  3.990226  0  0  -0.160948  0  4.007922  0  0  -0.093689  -0.162828  0  3.977814  0
C  C57  1  0.40198739  0.08902285  0.78699478  1  0  -0.127422  0  3.741671  0  0  -0.162666  0  3.990285  0  0  -0.160968  0  4.007979  0  0  -0.093667  -0.162857  0  3.977874  0
C  C58  1  0.34239211  0.14620198  0.29562656  1  0  0.61074  0  3.976338  0  0  0.563813  0  4.268231  0  0  0.597211  0  4.262979  0  0  0.185538  0.541114  0  4.270912  0
C  C59  1  0.65760704  0.85379603  0.70437198  1  0  0.610681  0  3.97635  0  0  0.563718  0  4.268297  0  0  0.597109  0  4.263049  0  0  0.18548  0.54102  0  4.270973  0
C  C60  1  0.15156450  0.18296681  0.53311318  1  0  0.118726  0  3.736289  0  0  0.089128  0  3.990195  0  0  0.096369  0  4.008727  0  0  0.039585  0.083999  0  3.978925  0
C  C61  1  0.84843372  0.81703123  0.46688668  1  0  0.118826  0  3.736321  0  0  0.089234  0  3.990219  0  0  0.096479  0  4.008749  0  0  0.039598  0.084117  0  3.978937  0
C  C62  1  0.15785217  0.19455157  0.63686005  1  0  -0.188981  0  3.698785  0  0  -0.205469  0  3.946653  0  0  -0.214365  0  3.968308  0  0  -0.090568  -0.199649  0  3.932795  0
C  C63  1  0.84215046  0.80544971  0.36314198  1  0  -0.189153  0  3.698771  0  0  -0.205605  0  3.946648  0  0  -0.214509  0  3.968306  0  0  -0.090578  -0.199795  0  3.932797  0
C  C64  1  0.19374032  0.32964542  0.71981606  1  0  0.152855  0  3.720115  0  0  0.17054  0  3.955336  0  0  0.175372  0  3.978982  0  0  0.011757  0.167553  0  3.939383  0
C  C65  1  0.80626374  0.67035693  0.28018572  1  0  0.152984  0  3.720059  0  0  0.170562  0  3.955408  0  0  0.175393  0  3.979051  0  0  0.011731  0.16758  0  3.939454  0
C  C66  1  0.22296852  0.44694109  0.69318021  1  0  -0.170044  0  3.695339  0  0  -0.185841  0  3.935489  0  0  -0.194075  0  3.956012  0  0  -0.080181  -0.181098  0  3.923396  0
C  C67  1  0.77703706  0.55306019  0.30682151  1  0  -0.170097  0  3.695517  0  0  -0.185867  0  3.935676  0  0  -0.194103  0  3.956195  0  0  -0.080168  -0.181122  0  3.923585  0
C  C68  1  0.21332018  0.42571119  0.58696880  1  0  0.144558  0  3.705952  0  0  0.114636  0  3.957577  0  0  0.122836  0  3.975049  0  0  0.050757  0.108927  0  3.946788  0
C  C69  1  0.78667947  0.57428792  0.41303081  1  0  0.144524  0  3.706087  0  0  0.114616  0  3.95768  0  0  0.122818  0  3.975151  0  0  0.050751  0.1089  0  3.946899  0
C  C70  1  0.19809214  0.34586954  0.83230271  1  0  -0.148675  0  3.693215  0  0  -0.192339  0  3.942228  0  0  -0.193957  0  3.953873  0  0  -0.154699  -0.191094  0  3.933608  0
C  C71  1  0.80191543  0.65413174  0.16769929  1  0  -0.148729  0  3.693253  0  0  -0.192382  0  3.942273  0  0  -0.193986  0  3.953899  0  0  -0.154739  -0.191134  0  3.933649  0
C  C72  1  0.04649313  0.25885504  0.83277538  1  0  -0.163074  0  3.666416  0  0  -0.205748  0  3.914174  0  0  -0.207443  0  3.925021  0  0  -0.158225  -0.204421  0  3.906527  0
C  C73  1  0.95351323  0.74115051  0.16722539  1  0  -0.162983  0  3.666294  0  0  -0.205696  0  3.914105  0  0  -0.207388  0  3.924954  0  0  -0.158206  -0.204366  0  3.906456  0
C  C74  1  0.05597249  0.24855763  0.93917541  1  0  0.163955  0  3.707552  0  0  0.181014  0  3.943031  0  0  0.186254  0  3.965699  0  0  0.013047  0.177495  0  3.927978  0
C  C75  1  0.94403147  0.75144687  0.06082619  1  0  0.163934  0  3.70772  0  0  0.180996  0  3.943213  0  0  0.186238  0  3.965879  0  0  0.013043  0.177467  0  3.928174  0
C  C76  1  0.99420986  0.31380645  0.00936453  1  0  -0.1924  0  3.741686  0  0  -0.208517  0  3.98805  0  0  -0.217508  0  4.010114  0  0  -0.095499  -0.202844  0  3.973569  0
C  C77  1  0.00579200  0.68620018  0.99063589  1  0  -0.192401  0  3.74177  0  0  -0.208536  0  3.988126  0  0  -0.217529  0  4.01019  0  0  -0.095525  -0.202859  0  3.973644  0
C  C78  1  0.00849962  0.30178054  0.10754019  1  0  0.127549  0  3.73687  0  0  0.098212  0  3.985345  0  0  0.105886  0  4.0041  0  0  0.040219  0.09329  0  3.972457  0
C  C79  1  0.99149888  0.69822286  0.89245965  1  0  0.127582  0  3.73681  0  0  0.09829  0  3.985271  0  0  0.105966  0  4.004026  0  0  0.040218  0.093366  0  3.972382  0
C  C80  1  0.13850310  0.16525244  0.07131252  1  0  0.135633  0  3.732083  0  0  0.104539  0  3.98602  0  0  0.112338  0  4.004767  0  0  0.04508  0.09943  0  3.973285  0
C  C81  1  0.86149357  0.83474884  0.92868868  1  0  0.135763  0  3.732112  0  0  0.104684  0  3.986049  0  0  0.112483  0  4.004795  0  0  0.04515  0.099585  0  3.973301  0
C  C82  1  0.12794824  0.17099758  0.97157237  1  0  -0.171251  0  3.687081  0  0  -0.188385  0  3.931877  0  0  -0.196935  0  3.953242  0  0  -0.085675  -0.183027  0  3.918207  0
C  C83  1  0.87205231  0.82900584  0.02842920  1  0  -0.171298  0  3.687206  0  0  -0.188438  0  3.931985  0  0  -0.196989  0  3.95335  0  0  -0.085674  -0.183084  0  3.918321  0
C  C84  1  0.14866602  0.57695412  0.39347274  1  0  0.107458  0  3.742556  0  0  0.074971  0  3.999272  0  0  0.082411  0  4.018062  0  0  0.034782  0.07009  0  3.986576  0
C  C85  1  0.85133111  0.42304388  0.60652479  1  0  0.107465  0  3.742648  0  0  0.074956  0  3.999349  0  0  0.082395  0  4.018141  0  0  0.034776  0.070072  0  3.986648  0
C  C86  1  0.20661551  0.72527526  0.42931955  1  0  -0.169518  0  3.70879  0  0  -0.1868  0  3.956795  0  0  -0.195611  0  3.979505  0  0  -0.088617  -0.180798  0  3.941735  0
C  C87  1  0.79338315  0.27472384  0.57067993  1  0  -0.169413  0  3.708829  0  0  -0.186687  0  3.956831  0  0  -0.195498  0  3.979545  0  0  -0.088572  -0.180667  0  3.941773  0
C  C88  1  0.35587446  0.80297929  0.45026955  1  0  0.156783  0  3.71214  0  0  0.172039  0  3.950908  0  0  0.177261  0  3.973611  0  0  0.012247  0.168653  0  3.935215  0
C  C89  1  0.64412268  0.19702089  0.54972999  1  0  0.156678  0  3.712319  0  0  0.171928  0  3.951084  0  0  0.177149  0  3.97379  0  0  0.012193  0.16855  0  3.935385  0
C  C90  1  0.43904250  0.72416776  0.43193946  1  0  -0.166856  0  3.705869  0  0  -0.185812  0  3.956086  0  0  -0.194418  0  3.977795  0  0  -0.087774  -0.180128  0  3.942115  0
C  C91  1  0.56095715  0.27583352  0.56806215  1  0  -0.16681  0  3.705897  0  0  -0.185768  0  3.95612  0  0  -0.194373  0  3.97783  0  0  -0.087789  -0.180085  0  3.942153  0
C  C92  1  0.37333584  0.57527128  0.39545500  1  0  0.134103  0  3.704723  0  0  0.101286  0  3.958359  0  0  0.110431  0  3.974339  0  0  0.0462  0.095529  0  3.94696  0
C  C93  1  0.62666468  0.42473213  0.60454584  1  0  0.134195  0  3.704641  0  0  0.101409  0  3.958255  0  0  0.110553  0  3.974235  0  0  0.046269  0.095647  0  3.946859  0
C  C94  1  0.41931613  0.96412141  0.49216284  1  0  -0.162391  0  3.717974  0  0  -0.20533  0  3.963821  0  0  -0.206721  0  3.976276  0  0  -0.159976  -0.204208  0  3.954968  0
C  C95  1  0.58068002  0.03587877  0.50783656  1  0  -0.162379  0  3.71815  0  0  -0.205303  0  3.963963  0  0  -0.206686  0  3.976399  0  0  -0.159937  -0.204199  0  3.955128  0
Br  Br96  1  0.36070238  0.63251542  0.13314688  1  0  -0.078955  0  1.229516  0  0  -0.066686  0  1.455414  0  0  -0.071203  0  1.450961  0  0  0.037767  -0.063287  0  1.457731  0
Br  Br97  1  0.63929508  0.36748051  0.86685665  1  0  -0.07894  0  1.229496  0  0  -0.066664  0  1.455399  0  0  -0.071184  0  1.450947  0  0  0.037786  -0.06327  0  1.457712  0
N  N98  1  0.17771161  0.29628845  0.50781136  1  0  -0.333179  0  3.246849  0  0  -0.258359  0  3.509995  0  0  -0.278116  0  3.528617  0  0  -0.329985  -0.244967  0  3.498201  0
N  N99  1  0.82228708  0.70371066  0.49218884  1  0  -0.333163  0  3.246902  0  0  -0.258342  0  3.510031  0  0  -0.278101  0  3.528652  0  0  -0.329972  -0.244952  0  3.498236  0
N  N100  1  0.08071175  0.23009170  0.13898058  1  0  -0.330293  0  3.252999  0  0  -0.255946  0  3.517302  0  0  -0.276125  0  3.536807  0  0  -0.328711  -0.242132  0  3.503662  0
N  N101  1  0.91928532  0.76991064  0.86101950  1  0  -0.330335  0  3.252981  0  0  -0.255991  0  3.517253  0  0  -0.276171  0  3.536757  0  0  -0.328734  -0.242177  0  3.503605  0
N  N102  1  0.23072322  0.50262914  0.37686173  1  0  -0.342158  0  3.290396  0  0  -0.264858  0  3.558096  0  0  -0.28625  0  3.577499  0  0  -0.336715  -0.249412  0  3.543181  0
N  N103  1  0.76927696  0.49736889  0.62313768  1  0  -0.342182  0  3.290446  0  0  -0.264943  0  3.558239  0  0  -0.286334  0  3.577641  0  0  -0.336744  -0.249495  0  3.543327  0
O  O104  1  0.89947894  0.06598422  0.27454863  1  0  -0.64229  0  1.979986  0  0  -0.577521  0  2.221283  0  0  -0.605727  0  2.211905  0  0  -0.335767  -0.556669  0  2.228236  0
O  O105  1  0.10051771  0.93401053  0.72544584  1  0  -0.642279  0  1.979979  0  0  -0.577502  0  2.22128  0  0  -0.605705  0  2.211901  0  0  -0.335734  -0.556652  0  2.228234  0
O  O106  1  0.87870286  0.27473409  0.30663457  1  0  -0.640319  0  1.925244  0  0  -0.590598  0  2.159081  0  0  -0.616642  0  2.150811  0  0  -0.33491  -0.571207  0  2.163176  0
O  O107  1  0.12129683  0.72526068  0.69336177  1  0  -0.640307  0  1.925366  0  0  -0.590606  0  2.15923  0  0  -0.616648  0  2.150963  0  0  -0.334893  -0.57122  0  2.16333  0
O  O108  1  0.39219875  0.27815575  0.31563286  1  0  -0.629198  0  1.925743  0  0  -0.580996  0  2.155705  0  0  -0.606385  0  2.147459  0  0  -0.334171  -0.562274  0  2.159936  0
O  O109  1  0.60780134  0.72184225  0.68436437  1  0  -0.629172  0  1.92576  0  0  -0.580954  0  2.155729  0  0  -0.606337  0  2.147491  0  0  -0.334145  -0.562234  0  2.159967  0
O  O110  1  0.21710496  0.07458609  0.29766006  1  0  -0.643638  0  1.963485  0  0  -0.580833  0  2.209518  0  0  -0.608891  0  2.200118  0  0  -0.342036  -0.560108  0  2.216551  0
O  O111  1  0.78289367  0.92541301  0.70233868  1  0  -0.643572  0  1.963451  0  0  -0.580763  0  2.209501  0  0  -0.608826  0  2.200106  0  0  -0.342015  -0.560041  0  2.21653  0
