# generated using pymatgen
data_AgH17C12S(N2O)2
_symmetry_space_group_name_H-M   'P 1'
_cell_length_a   6.43158116
_cell_length_b   11.06066705
_cell_length_c   18.88941336
_cell_angle_alpha   90.00077261
_cell_angle_beta   90.00038627
_cell_angle_gamma   102.16624806
_symmetry_Int_Tables_number   1
_chemical_formula_structural   AgH17C12S(N2O)2
_chemical_formula_sum   'Ag4 H68 C48 S4 N16 O8'
_cell_volume   1313.56683778
_cell_formula_units_Z   4
loop_
 _symmetry_equiv_pos_site_id
 _symmetry_equiv_pos_as_xyz
  1  'x, y, z'
loop_
 _atom_site_type_symbol
 _atom_site_label
 _atom_site_symmetry_multiplicity
 _atom_site_fract_x
 _atom_site_fract_y
 _atom_site_fract_z
 _atom_site_occupancy
 _atom_site_hle17_bader_spin_density
 _atom_site_hle17_ddec_charge
 _atom_site_hle17_ddec_spin_density
 _atom_site_hle17_ddec_sum_bond_order
 _atom_site_hle17_magmom
 _atom_site_hse06_10hf_bader_spin_density
 _atom_site_hse06_10hf_ddec_charge
 _atom_site_hse06_10hf_ddec_spin_density
 _atom_site_hse06_10hf_ddec_sum_bond_order
 _atom_site_hse06_10hf_magmom
 _atom_site_hse06_bader_spin_density
 _atom_site_hse06_ddec_charge
 _atom_site_hse06_ddec_spin_density
 _atom_site_hse06_ddec_sum_bond_order
 _atom_site_hse06_magmom
 _atom_site_pbe_bader_spin_density
 _atom_site_pbe_cm5_charge
 _atom_site_pbe_ddec_charge
 _atom_site_pbe_ddec_spin_density
 _atom_site_pbe_ddec_sum_bond_order
 _atom_site_pbe_magmom
Ag  Ag0  1  0.38680399  0.39362522  0.46090197  1  0  0.514293  0  1.360915  0  0  0.378079  0  1.791639  0  0  0.41494  0  1.737932  0  0  0.411688  0.351703  0  1.828802  0
Ag  Ag1  1  0.11319039  0.10637776  0.96090122  1  0  0.514264  0  1.360898  0  0  0.378045  0  1.791566  0  0  0.414893  0  1.737856  0  0  0.41165  0.351674  0  1.828725  0
Ag  Ag2  1  0.61318885  0.60636667  0.53909078  1  0  0.514216  0  1.360836  0  0  0.37807  0  1.791482  0  0  0.414929  0  1.737781  0  0  0.411649  0.351697  0  1.828639  0
Ag  Ag3  1  0.88682505  0.89362994  0.03909682  1  0  0.514239  0  1.3609  0  0  0.37807  0  1.791565  0  0  0.41493  0  1.737867  0  0  0.411633  0.351691  0  1.828716  0
H  H4  1  0.65766278  0.30417854  0.33116946  1  0  0.061481  0  0.973411  0  0  0.07469  0  1.04148  0  0  0.072931  0  1.045408  0  0  0.11071  0.07584  0  1.038881  0
H  H5  1  0.84233937  0.19583826  0.83117788  1  0  0.061547  0  0.973626  0  0  0.074697  0  1.041683  0  0  0.072945  0  1.045612  0  0  0.110694  0.075845  0  1.039077  0
H  H6  1  0.34233268  0.69582537  0.66882011  1  0  0.061662  0  0.973476  0  0  0.074803  0  1.041521  0  0  0.073058  0  1.04545  0  0  0.110767  0.075954  0  1.038923  0
H  H7  1  0.15767172  0.80417034  0.16882863  1  0  0.061533  0  0.973404  0  0  0.074725  0  1.04149  0  0  0.072965  0  1.045412  0  0  0.110702  0.075874  0  1.03889  0
H  H8  1  0.46411868  0.17519388  0.36305114  1  0  0.058307  0  0.934855  0  0  0.07164  0  1.00497  0  0  0.071747  0  1.004513  0  0  0.110813  0.071377  0  1.005606  0
H  H9  1  0.03587847  0.32481393  0.86305514  1  0  0.058316  0  0.934874  0  0  0.071582  0  1.004999  0  0  0.071665  0  1.004581  0  0  0.110771  0.071318  0  1.00563  0
H  H10  1  0.53586648  0.82480720  0.63693844  1  0  0.058366  0  0.935021  0  0  0.071658  0  1.005082  0  0  0.071767  0  1.004638  0  0  0.110806  0.071398  0  1.005719  0
H  H11  1  0.96413789  0.67519194  0.13694503  1  0  0.058371  0  0.934932  0  0  0.071676  0  1.005048  0  0  0.071778  0  1.004595  0  0  0.11082  0.071415  0  1.005684  0
H  H12  1  0.89961127  0.38480550  0.50409284  1  0  0.08625  0  0.931417  0  0  0.098001  0  0.999176  0  0  0.098806  0  0.998291  0  0  0.118583  0.09729  0  1.000038  0
H  H13  1  0.60039478  0.11519717  0.00409708  1  0  0.086343  0  0.93129  0  0  0.098104  0  0.999018  0  0  0.098905  0  0.998131  0  0  0.118646  0.097377  0  0.999905  0
H  H14  1  0.10038034  0.61518731  0.49589885  1  0  0.086262  0  0.931453  0  0  0.098047  0  0.999251  0  0  0.098847  0  0.998364  0  0  0.118645  0.097338  0  1.000119  0
H  H15  1  0.39963940  0.88481525  0.99591367  1  0  0.086147  0  0.931561  0  0  0.097985  0  0.999268  0  0  0.098781  0  0.99839  0  0  0.118582  0.097275  0  1.000125  0
H  H16  1  0.90870536  0.42633767  0.41209916  1  0  0.08208  0  0.920448  0  0  0.094609  0  0.987526  0  0  0.094981  0  0.987287  0  0  0.116769  0.094245  0  0.987862  0
H  H17  1  0.59129819  0.07367388  0.91210075  1  0  0.08203  0  0.920376  0  0  0.094518  0  0.987527  0  0  0.094885  0  0.987289  0  0  0.116731  0.094154  0  0.987852  0
H  H18  1  0.09129940  0.57366167  0.58789465  1  0  0.082079  0  0.920352  0  0  0.094664  0  0.987443  0  0  0.095033  0  0.987202  0  0  0.116785  0.094306  0  0.987779  0
H  H19  1  0.40872321  0.92633755  0.08790683  1  0  0.08212  0  0.92018  0  0  0.094597  0  0.987417  0  0  0.094969  0  0.987175  0  0  0.116768  0.094233  0  0.987749  0
H  H20  1  0.45657579  0.12241518  0.48776999  1  0  0.065772  0  0.948174  0  0  0.07464  0  1.025004  0  0  0.075937  0  1.023229  0  0  0.113074  0.073496  0  1.026673  0
H  H21  1  0.04343039  0.37759781  0.98777283  1  0  0.06574  0  0.94817  0  0  0.074647  0  1.024949  0  0  0.075947  0  1.023178  0  0  0.113024  0.073503  0  1.026617  0
H  H22  1  0.54340001  0.87758585  0.51222118  1  0  0.065736  0  0.948276  0  0  0.074591  0  1.025144  0  0  0.075891  0  1.02337  0  0  0.113012  0.073448  0  1.026809  0
H  H23  1  0.95660443  0.62241646  0.01222680  1  0  0.065626  0  0.94825  0  0  0.07452  0  1.025035  0  0  0.075818  0  1.02327  0  0  0.11299  0.073377  0  1.0267  0
H  H24  1  0.64517158  0.21413359  0.54662734  1  0  0.062045  0  0.957261  0  0  0.075088  0  1.027814  0  0  0.075629  0  1.026384  0  0  0.110956  0.074575  0  1.028988  0
H  H25  1  0.85483170  0.28587203  0.04663404  1  0  0.062035  0  0.957092  0  0  0.07511  0  1.027634  0  0  0.075651  0  1.026214  0  0  0.110987  0.074599  0  1.028795  0
H  H26  1  0.35480949  0.78586470  0.45336329  1  0  0.062052  0  0.957294  0  0  0.075163  0  1.027737  0  0  0.075707  0  1.02631  0  0  0.110975  0.074649  0  1.028913  0
H  H27  1  0.14520780  0.71414226  0.95336983  1  0  0.062174  0  0.957135  0  0  0.075228  0  1.027649  0  0  0.075773  0  1.026226  0  0  0.111021  0.074708  0  1.028831  0
H  H28  1  0.02243340  0.29244677  0.32551739  1  0  0.0654  0  0.926792  0  0  0.080497  0  0.993477  0  0  0.080251  0  0.993643  0  0  0.114694  0.080602  0  0.99345  0
H  H29  1  0.47756359  0.20756282  0.82552250  1  0  0.065334  0  0.926718  0  0  0.080459  0  0.993393  0  0  0.08021  0  0.993562  0  0  0.114653  0.080567  0  0.993363  0
H  H30  1  0.97755854  0.70754696  0.67447537  1  0  0.065349  0  0.926886  0  0  0.080483  0  0.99352  0  0  0.080229  0  0.993686  0  0  0.114679  0.08059  0  0.993493  0
H  H31  1  0.52244653  0.79244301  0.17448666  1  0  0.065345  0  0.926951  0  0  0.080486  0  0.993594  0  0  0.080237  0  0.993765  0  0  0.114705  0.080592  0  0.993562  0
H  H32  1  0.10402670  0.15490386  0.35362739  1  0  0.061403  0  0.931145  0  0  0.076461  0  0.998211  0  0  0.075949  0  0.999324  0  0  0.112597  0.076635  0  0.997757  0
H  H33  1  0.39596645  0.34510645  0.85362812  1  0  0.061482  0  0.931063  0  0  0.076525  0  0.99814  0  0  0.076018  0  0.99925  0  0  0.112647  0.076695  0  0.997696  0
H  H34  1  0.89596115  0.84508708  0.64636537  1  0  0.061354  0  0.931018  0  0  0.07641  0  0.998102  0  0  0.075896  0  0.999211  0  0  0.112561  0.076592  0  0.997645  0
H  H35  1  0.60404468  0.65490677  0.14637999  1  0  0.061463  0  0.931099  0  0  0.076513  0  0.998163  0  0  0.076001  0  0.999283  0  0  0.11264  0.076667  0  0.997733  0
H  H36  1  0.84299418  0.98220422  0.39779434  1  0  0.06318  0  0.937809  0  0  0.077896  0  1.003905  0  0  0.077645  0  1.004681  0  0  0.113813  0.077979  0  1.003519  0
H  H37  1  0.65700921  0.51779900  0.89779723  1  0  0.063123  0  0.937836  0  0  0.077888  0  1.003922  0  0  0.077637  0  1.004697  0  0  0.11381  0.077976  0  1.003532  0
H  H38  1  0.15699308  0.01778948  0.60219735  1  0  0.063066  0  0.937925  0  0  0.077827  0  1.004024  0  0  0.077575  0  1.004798  0  0  0.113796  0.077913  0  1.003637  0
H  H39  1  0.34300902  0.48220780  0.10220612  1  0  0.063134  0  0.937758  0  0  0.077866  0  1.003917  0  0  0.077615  0  1.004692  0  0  0.113803  0.077953  0  1.003518  0
H  H40  1  0.56998885  0.99376026  0.40244166  1  0  0.062313  0  0.927346  0  0  0.07931  0  0.991939  0  0  0.078962  0  0.992351  0  0  0.115667  0.079466  0  0.991757  0
H  H41  1  0.93000634  0.50625042  0.90244559  1  0  0.062328  0  0.92736  0  0  0.079342  0  0.991991  0  0  0.078993  0  0.992405  0  0  0.11568  0.079497  0  0.991804  0
H  H42  1  0.42998820  0.00623985  0.59754898  1  0  0.062357  0  0.927292  0  0  0.079353  0  0.99196  0  0  0.079007  0  0.992367  0  0  0.115678  0.079503  0  0.991774  0
H  H43  1  0.07001570  0.49376286  0.09755351  1  0  0.062334  0  0.927399  0  0  0.07935  0  0.992057  0  0  0.079002  0  0.992472  0  0  0.115665  0.079499  0  0.991871  0
H  H44  1  0.01528949  0.20147906  0.54104727  1  0  0.08523  0  0.929717  0  0  0.100554  0  0.989721  0  0  0.101069  0  0.98943  0  0  0.117122  0.100071  0  0.990139  0
H  H45  1  0.48472239  0.29852313  0.04105330  1  0  0.085185  0  0.929713  0  0  0.100574  0  0.989646  0  0  0.10109  0  0.989364  0  0  0.117126  0.100067  0  0.990078  0
H  H46  1  0.98469584  0.79850910  0.45894496  1  0  0.085169  0  0.929582  0  0  0.100585  0  0.989487  0  0  0.101119  0  0.989174  0  0  0.117145  0.100066  0  0.989966  0
H  H47  1  0.51531088  0.70149114  0.95896116  1  0  0.085174  0  0.929639  0  0  0.100528  0  0.989591  0  0  0.10103  0  0.989288  0  0  0.11713  0.100051  0  0.990012  0
H  H48  1  0.09691592  0.10230840  0.47680569  1  0  0.062995  0  0.941004  0  0  0.072901  0  1.016268  0  0  0.074119  0  1.014454  0  0  0.112093  0.071888  0  1.017825  0
H  H49  1  0.40308737  0.39769690  0.97681056  1  0  0.062903  0  0.94113  0  0  0.072867  0  1.016326  0  0  0.074086  0  1.014519  0  0  0.112109  0.071846  0  1.017887  0
H  H50  1  0.90306254  0.89767787  0.52318442  1  0  0.062884  0  0.941186  0  0  0.072876  0  1.016331  0  0  0.074091  0  1.014523  0  0  0.112023  0.071865  0  1.017901  0
H  H51  1  0.59694778  0.60231830  0.02319860  1  0  0.062891  0  0.941062  0  0  0.072757  0  1.016343  0  0  0.073959  0  1.014523  0  0  0.112068  0.07175  0  1.017917  0
H  H52  1  0.26085906  0.44539237  0.27718166  1  0  0.090671  0  0.980938  0  0  0.100257  0  1.046589  0  0  0.103557  0  1.044111  0  0  0.09876  0.097751  0  1.04869  0
H  H53  1  0.23913107  0.05457345  0.77717602  1  0  0.090777  0  0.981045  0  0  0.100326  0  1.046737  0  0  0.103635  0  1.044242  0  0  0.098779  0.097802  0  1.048856  0
H  H54  1  0.73912054  0.55458376  0.72282432  1  0  0.090842  0  0.981011  0  0  0.100405  0  1.046716  0  0  0.103711  0  1.044227  0  0  0.098823  0.097899  0  1.048817  0
H  H55  1  0.76086283  0.94543044  0.22281990  1  0  0.090786  0  0.98113  0  0  0.100334  0  1.04684  0  0  0.10364  0  1.04435  0  0  0.098813  0.097825  0  1.048943  0
H  H56  1  0.37097068  0.31453687  0.18156316  1  0  0.089293  0  0.983601  0  0  0.096755  0  1.050514  0  0  0.100064  0  1.048518  0  0  0.095175  0.094374  0  1.051958  0
H  H57  1  0.12903460  0.18542005  0.68155831  1  0  0.089181  0  0.983747  0  0  0.096652  0  1.050617  0  0  0.099987  0  1.048582  0  0  0.095177  0.094273  0  1.052069  0
H  H58  1  0.62904159  0.68543481  0.81844706  1  0  0.089195  0  0.983431  0  0  0.096748  0  1.050215  0  0  0.100037  0  1.048241  0  0  0.095195  0.094356  0  1.051687  0
H  H59  1  0.87094780  0.81458655  0.31844662  1  0  0.089167  0  0.983526  0  0  0.096618  0  1.050456  0  0  0.099965  0  1.048412  0  0  0.095154  0.094241  0  1.051903  0
H  H60  1  0.75556503  0.33471262  0.15461101  1  0  0.07526  0  0.994696  0  0  0.078413  0  1.073525  0  0  0.081374  0  1.071842  0  0  0.08981  0.076263  0  1.074814  0
H  H61  1  0.74444526  0.16527096  0.65459832  1  0  0.075268  0  0.994553  0  0  0.078445  0  1.073354  0  0  0.081394  0  1.071679  0  0  0.089797  0.076296  0  1.074647  0
H  H62  1  0.24444146  0.66527381  0.84539922  1  0  0.075166  0  0.994529  0  0  0.07837  0  1.073313  0  0  0.081317  0  1.071643  0  0  0.089811  0.076221  0  1.074598  0
H  H63  1  0.25552308  0.83473095  0.34541243  1  0  0.075088  0  0.994527  0  0  0.078332  0  1.073294  0  0  0.081286  0  1.071617  0  0  0.089778  0.076182  0  1.074589  0
H  H64  1  0.02718374  0.48814811  0.22044874  1  0  0.088434  0  0.994936  0  0  0.095811  0  1.061753  0  0  0.098998  0  1.059991  0  0  0.098438  0.093469  0  1.063169  0
H  H65  1  0.47281662  0.01185504  0.72044010  1  0  0.088425  0  0.99536  0  0  0.09591  0  1.062018  0  0  0.099096  0  1.060255  0  0  0.098449  0.09357  0  1.063429  0
H  H66  1  0.97280879  0.51184285  0.77955513  1  0  0.088361  0  0.995167  0  0  0.095781  0  1.061903  0  0  0.098979  0  1.060107  0  0  0.098418  0.093434  0  1.06334  0
H  H67  1  0.52716339  0.98813124  0.27956588  1  0  0.088487  0  0.995173  0  0  0.09592  0  1.061914  0  0  0.099108  0  1.060144  0  0  0.098419  0.093578  0  1.063331  0
H  H68  1  0.91558967  0.61367264  0.31668297  1  0  0.108655  0  0.951007  0  0  0.118913  0  1.010699  0  0  0.122487  0  1.008485  0  0  0.103619  0.116297  0  1.012378  0
H  H69  1  0.58437282  0.88634300  0.81668863  1  0  0.108553  0  0.951091  0  0  0.118817  0  1.010758  0  0  0.122394  0  1.008536  0  0  0.103568  0.116203  0  1.012458  0
H  H70  1  0.08440446  0.38632295  0.68331243  1  0  0.108613  0  0.951046  0  0  0.118861  0  1.010743  0  0  0.122439  0  1.00852  0  0  0.103613  0.116244  0  1.01244  0
H  H71  1  0.41562535  0.11365076  0.18331418  1  0  0.108621  0  0.951013  0  0  0.11887  0  1.010718  0  0  0.122447  0  1.008495  0  0  0.103605  0.116253  0  1.012417  0
C  C72  1  0.62838555  0.22757948  0.36914119  1  0  0.080395  0  3.642251  0  0  0.010043  0  3.899825  0  0  0.018864  0  3.91023  0  0  0.012778  0.004157  0  3.892582  0
C  C73  1  0.87161241  0.27243645  0.86914552  1  0  0.080313  0  3.64239  0  0  0.010183  0  3.89958  0  0  0.018983  0  3.910037  0  0  0.012887  0.004319  0  3.892317  0
C  C74  1  0.37160954  0.77241888  0.63084680  1  0  0.07985  0  3.642905  0  0  0.009804  0  3.899976  0  0  0.018563  0  3.910462  0  0  0.012667  0.00391  0  3.892746  0
C  C75  1  0.12840582  0.72757035  0.13085941  1  0  0.080284  0  3.642031  0  0  0.010032  0  3.899562  0  0  0.018831  0  3.909944  0  0  0.012776  0.004142  0  3.892336  0
C  C76  1  0.87834308  0.34907641  0.44979136  1  0  0.074481  0  3.579908  0  0  0.002339  0  3.835436  0  0  0.010855  0  3.845344  0  0  0.01272  -0.003607  0  3.828885  0
C  C77  1  0.62166621  0.15093155  0.94979575  1  0  0.074512  0  3.579701  0  0  0.002303  0  3.835303  0  0  0.010834  0  3.845185  0  0  0.012728  -0.003632  0  3.828729  0
C  C78  1  0.12166104  0.65092108  0.55020086  1  0  0.074618  0  3.579921  0  0  0.002215  0  3.835885  0  0  0.010748  0  3.845769  0  0  0.012692  -0.003748  0  3.829343  0
C  C79  1  0.37833988  0.84907611  0.05021288  1  0  0.074652  0  3.579706  0  0  0.002387  0  3.835569  0  0  0.0109  0  3.845499  0  0  0.01268  -0.003566  0  3.829017  0
C  C80  1  0.62060084  0.17528224  0.49311306  1  0  0.080555  0  3.630521  0  0  0.007443  0  3.892913  0  0  0.015939  0  3.902411  0  0  0.009926  0.001807  0  3.886191  0
C  C81  1  0.87940100  0.32472405  0.99311782  1  0  0.08069  0  3.630702  0  0  0.007431  0  3.893185  0  0  0.015942  0  3.902636  0  0  0.009933  0.001801  0  3.886479  0
C  C82  1  0.37937744  0.82471696  0.50687758  1  0  0.08034  0  3.630872  0  0  0.007166  0  3.893263  0  0  0.015668  0  3.90274  0  0  0.009947  0.001529  0  3.886544  0
C  C83  1  0.12063378  0.67528561  0.00688446  1  0  0.080463  0  3.630655  0  0  0.007269  0  3.893124  0  0  0.015796  0  3.902561  0  0  0.009962  0.001618  0  3.886444  0
C  C84  1  0.99316845  0.21617144  0.36388570  1  0  0.092214  0  3.629051  0  0  0.017365  0  3.896154  0  0  0.026247  0  3.905948  0  0  0.019396  0.011427  0  3.889321  0
C  C85  1  0.50683087  0.28383975  0.86388983  1  0  0.092266  0  3.628791  0  0  0.017393  0  3.895846  0  0  0.026265  0  3.90567  0  0  0.019421  0.011455  0  3.889022  0
C  C86  1  0.00683223  0.78382511  0.63610864  1  0  0.092311  0  3.628969  0  0  0.017468  0  3.896077  0  0  0.026361  0  3.905841  0  0  0.019408  0.011517  0  3.889248  0
C  C87  1  0.49318650  0.71617351  0.13611827  1  0  0.092134  0  3.629283  0  0  0.017405  0  3.89643  0  0  0.026242  0  3.906246  0  0  0.019324  0.011484  0  3.889594  0
C  C88  1  0.73523913  0.04516218  0.40794962  1  0  0.086448  0  3.646272  0  0  0.016732  0  3.908248  0  0  0.025084  0  3.917747  0  0  0.017431  0.011074  0  3.901727  0
C  C89  1  0.76476429  0.45484926  0.90795411  1  0  0.086546  0  3.646211  0  0  0.01664  0  3.908363  0  0  0.024992  0  3.917868  0  0  0.017344  0.010991  0  3.901837  0
C  C90  1  0.26474286  0.95483426  0.59204101  1  0  0.08667  0  3.646218  0  0  0.016802  0  3.908311  0  0  0.025158  0  3.91779  0  0  0.017462  0.011154  0  3.901774  0
C  C91  1  0.23525587  0.54516309  0.09205188  1  0  0.086696  0  3.645829  0  0  0.016818  0  3.908122  0  0  0.025138  0  3.917615  0  0  0.017437  0.011187  0  3.901572  0
C  C92  1  0.98642358  0.16374320  0.48741870  1  0  0.078309  0  3.621623  0  0  0.00862  0  3.880022  0  0  0.01667  0  3.889352  0  0  0.01216  0.003196  0  3.873548  0
C  C93  1  0.51357905  0.33626571  0.98742326  1  0  0.078575  0  3.621821  0  0  0.008752  0  3.880188  0  0  0.016789  0  3.889537  0  0  0.012227  0.003362  0  3.873685  0
C  C94  1  0.01354773  0.83624488  0.51257405  1  0  0.078518  0  3.621277  0  0  0.00876  0  3.879596  0  0  0.0168  0  3.888909  0  0  0.012212  0.003308  0  3.873215  0
C  C95  1  0.48646017  0.66375228  0.01258696  1  0  0.078468  0  3.621322  0  0  0.008908  0  3.879613  0  0  0.017037  0  3.888822  0  0  0.012117  0.003448  0  3.873188  0
C  C96  1  0.58110939  0.53790994  0.30094967  1  0  -0.083184  0  3.754949  0  0  -0.051534  0  3.996863  0  0  -0.055314  0  4.0196  0  0  -0.036112  -0.049152  0  3.981603  0
C  C97  1  0.91883612  0.96207565  0.80094980  1  0  -0.083313  0  3.755884  0  0  -0.051584  0  3.997648  0  0  -0.055365  0  4.020402  0  0  -0.036128  -0.049199  0  3.982378  0
C  C98  1  0.41882256  0.46206778  0.69904890  1  0  -0.083358  0  3.75544  0  0  -0.051628  0  3.997247  0  0  -0.055412  0  4.020004  0  0  -0.036126  -0.049243  0  3.98198  0
C  C99  1  0.08117519  0.03792464  0.19905566  1  0  -0.083151  0  3.755597  0  0  -0.05143  0  3.997385  0  0  -0.05521  0  4.020137  0  0  -0.036006  -0.049044  0  3.982117  0
C  C100  1  0.42778759  0.45362176  0.26368755  1  0  -0.081683  0  3.762034  0  0  -0.105258  0  4.009208  0  0  -0.105508  0  4.028028  0  0  -0.090597  -0.105004  0  3.996679  0
C  C101  1  0.07220797  0.04636497  0.76370953  1  0  -0.082151  0  3.761687  0  0  -0.10576  0  4.008922  0  0  -0.106013  0  4.027743  0  0  -0.090778  -0.105494  0  3.996402  0
C  C102  1  0.57220122  0.54634057  0.73631261  1  0  -0.082061  0  3.761901  0  0  -0.105711  0  4.00922  0  0  -0.105962  0  4.028036  0  0  -0.090742  -0.105455  0  3.99669  0
C  C103  1  0.92776537  0.95363789  0.23630334  1  0  -0.082162  0  3.761668  0  0  -0.105778  0  4.0089  0  0  -0.106031  0  4.027725  0  0  -0.090806  -0.105524  0  3.996373  0
C  C104  1  0.48991999  0.38058853  0.21081751  1  0  -0.076213  0  3.76408  0  0  -0.083112  0  4.003645  0  0  -0.085588  0  4.024269  0  0  -0.094454  -0.081403  0  3.989666  0
C  C105  1  0.01008030  0.11937468  0.71080287  1  0  -0.075502  0  3.763728  0  0  -0.082369  0  4.003272  0  0  -0.084858  0  4.023882  0  0  -0.094224  -0.080671  0  3.989297  0
C  C106  1  0.51006089  0.61939130  0.78918107  1  0  -0.075689  0  3.764568  0  0  -0.082607  0  4.004123  0  0  -0.085067  0  4.024781  0  0  -0.094242  -0.0809  0  3.99013  0
C  C107  1  0.98994046  0.88063490  0.28919730  1  0  -0.075556  0  3.764634  0  0  -0.082394  0  4.004196  0  0  -0.084894  0  4.024808  0  0  -0.094199  -0.080694  0  3.990222  0
C  C108  1  0.70583846  0.39267032  0.19519000  1  0  -0.074355  0  3.771549  0  0  -0.089448  0  4.022586  0  0  -0.090045  0  4.042049  0  0  -0.095862  -0.088965  0  4.009482  0
C  C109  1  0.79419659  0.10730154  0.69517590  1  0  -0.074745  0  3.771959  0  0  -0.089863  0  4.023089  0  0  -0.090455  0  4.042553  0  0  -0.095988  -0.089384  0  4.010001  0
C  C110  1  0.29419823  0.60731350  0.80481387  1  0  -0.074495  0  3.772174  0  0  -0.089667  0  4.023317  0  0  -0.090256  0  4.042773  0  0  -0.096057  -0.08918  0  4.010206  0
C  C111  1  0.20576831  0.89269943  0.30482426  1  0  -0.074606  0  3.77251  0  0  -0.089815  0  4.023665  0  0  -0.090411  0  4.04313  0  0  -0.096097  -0.089335  0  4.010576  0
C  C112  1  0.85880662  0.47674150  0.23285234  1  0  -0.085477  0  3.777964  0  0  -0.097008  0  4.027541  0  0  -0.098961  0  4.047095  0  0  -0.097988  -0.095745  0  4.014493  0
C  C113  1  0.64116428  0.02327623  0.73284835  1  0  -0.085342  0  3.777547  0  0  -0.096964  0  4.027064  0  0  -0.098915  0  4.046613  0  0  -0.09791  -0.095702  0  4.01402  0
C  C114  1  0.14118261  0.52326237  0.76715471  1  0  -0.08532  0  3.7774  0  0  -0.096847  0  4.026938  0  0  -0.098795  0  4.046496  0  0  -0.097803  -0.095587  0  4.013886  0
C  C115  1  0.35881583  0.97671928  0.26715817  1  0  -0.085279  0  3.777368  0  0  -0.096856  0  4.026916  0  0  -0.098806  0  4.046463  0  0  -0.097736  -0.095598  0  4.013876  0
C  C116  1  0.79719439  0.54961140  0.28608344  1  0  -0.085285  0  3.742149  0  0  -0.104706  0  3.982151  0  0  -0.105607  0  4.002017  0  0  -0.091201  -0.103976  0  3.968803  0
C  C117  1  0.70277254  0.95037853  0.78607928  1  0  -0.084985  0  3.742358  0  0  -0.10443  0  3.982353  0  0  -0.105331  0  4.002223  0  0  -0.091097  -0.103718  0  3.969011  0
C  C118  1  0.20277509  0.45038036  0.71391885  1  0  -0.085131  0  3.742602  0  0  -0.104589  0  3.982612  0  0  -0.105491  0  4.002482  0  0  -0.091247  -0.103862  0  3.969259  0
C  C119  1  0.29721816  0.04961612  0.21392353  1  0  -0.085204  0  3.742566  0  0  -0.104638  0  3.982539  0  0  -0.10554  0  4.002408  0  0  -0.091225  -0.103919  0  3.969188  0
S  S120  1  0.49583042  0.64247385  0.36331668  1  0  0.662039  0  4.231518  0  0  0.596709  0  4.697294  0  0  0.624044  0  4.690234  0  0  0.298705  0.57784  0  4.701248  0
S  S121  1  0.00413557  0.85752954  0.86332668  1  0  0.662008  0  4.231932  0  0  0.596661  0  4.697678  0  0  0.623992  0  4.690625  0  0  0.29862  0.577787  0  4.701634  0
S  S122  1  0.50414689  0.35752257  0.63667290  1  0  0.661948  0  4.232003  0  0  0.596594  0  4.697757  0  0  0.623931  0  4.690697  0  0  0.29857  0.577723  0  4.70171  0
S  S123  1  0.99588235  0.14247633  0.13667613  1  0  0.662191  0  4.231806  0  0  0.596874  0  4.697525  0  0  0.624205  0  4.690468  0  0  0.298754  0.577994  0  4.701486  0
N  N124  1  0.65455676  0.28013487  0.44204205  1  0  -0.281189  0  3.205153  0  0  -0.179555  0  3.451744  0  0  -0.200415  0  3.470331  0  0  -0.350218  -0.164709  0  3.438336  0
N  N125  1  0.84544360  0.21987468  0.94204643  1  0  -0.28113  0  3.205319  0  0  -0.179412  0  3.451668  0  0  -0.200245  0  3.470225  0  0  -0.350178  -0.164601  0  3.438316  0
N  N126  1  0.34543522  0.71986347  0.55794700  1  0  -0.280756  0  3.205287  0  0  -0.179119  0  3.451878  0  0  -0.199972  0  3.470524  0  0  -0.350182  -0.164266  0  3.438467  0
N  N127  1  0.15457683  0.78013397  0.05795744  1  0  -0.281112  0  3.205367  0  0  -0.17936  0  3.451817  0  0  -0.200243  0  3.470492  0  0  -0.35017  -0.164521  0  3.438421  0
N  N128  1  0.77475364  0.14541831  0.35527929  1  0  -0.287106  0  3.159702  0  0  -0.218008  0  3.421618  0  0  -0.234146  0  3.438988  0  0  -0.349468  -0.206624  0  3.40927  0
N  N129  1  0.72524042  0.35459169  0.85528342  1  0  -0.287184  0  3.159692  0  0  -0.218114  0  3.421565  0  0  -0.234252  0  3.438958  0  0  -0.349455  -0.206731  0  3.409218  0
N  N130  1  0.22523802  0.85457911  0.64471240  1  0  -0.287192  0  3.159845  0  0  -0.218132  0  3.42167  0  0  -0.234251  0  3.439054  0  0  -0.349438  -0.206743  0  3.409326  0
N  N131  1  0.27477689  0.64541694  0.14472310  1  0  -0.287197  0  3.159433  0  0  -0.218237  0  3.421517  0  0  -0.234279  0  3.438807  0  0  -0.34949  -0.206858  0  3.40917  0
N  N132  1  0.03140609  0.26837712  0.43641857  1  0  -0.278376  0  3.17512  0  0  -0.182965  0  3.42304  0  0  -0.202039  0  3.439828  0  0  -0.349182  -0.169328  0  3.411047  0
N  N133  1  0.46859512  0.23163357  0.93642333  1  0  -0.278517  0  3.175001  0  0  -0.183045  0  3.422854  0  0  -0.202112  0  3.439639  0  0  -0.34924  -0.169415  0  3.410845  0
N  N134  1  0.96858767  0.73161293  0.56357682  1  0  -0.278499  0  3.175132  0  0  -0.183167  0  3.423255  0  0  -0.202234  0  3.44  0  0  -0.349159  -0.169501  0  3.41126  0
N  N135  1  0.53142293  0.76838615  0.06358636  1  0  -0.278431  0  3.175124  0  0  -0.18328  0  3.423327  0  0  -0.202356  0  3.44007  0  0  -0.349169  -0.169631  0  3.411333  0
N  N136  1  0.76721741  0.09234519  0.48097540  1  0  -0.297661  0  3.159206  0  0  -0.230253  0  3.426651  0  0  -0.245293  0  3.442119  0  0  -0.352776  -0.219553  0  3.415687  0
N  N137  1  0.73279029  0.40766082  0.98098103  1  0  -0.29787  0  3.159386  0  0  -0.23036  0  3.426832  0  0  -0.245391  0  3.442312  0  0  -0.352831  -0.21967  0  3.415854  0
N  N138  1  0.23275802  0.90765030  0.51901682  1  0  -0.29764  0  3.158779  0  0  -0.230201  0  3.426242  0  0  -0.245241  0  3.441716  0  0  -0.352797  -0.219482  0  3.415268  0
N  N139  1  0.26725108  0.59235441  0.01902495  1  0  -0.297683  0  3.158733  0  0  -0.23014  0  3.426043  0  0  -0.245196  0  3.44151  0  0  -0.352686  -0.219432  0  3.415082  0
O  O140  1  0.30207641  0.55981759  0.39840086  1  0  -0.649159  0  2.045151  0  0  -0.572343  0  2.334254  0  0  -0.599341  0  2.32274  0  0  -0.369382  -0.553218  0  2.341398  0
O  O141  1  0.19791184  0.94018961  0.89840455  1  0  -0.649182  0  2.045156  0  0  -0.572387  0  2.334319  0  0  -0.599368  0  2.322771  0  0  -0.369374  -0.553257  0  2.341452  0
O  O142  1  0.69791278  0.44018166  0.60159242  1  0  -0.649134  0  2.045254  0  0  -0.572291  0  2.334295  0  0  -0.599285  0  2.322767  0  0  -0.369357  -0.553164  0  2.341434  0
O  O143  1  0.80210800  0.05982181  0.10159561  1  0  -0.649306  0  2.045326  0  0  -0.572441  0  2.334284  0  0  -0.59944  0  2.322776  0  0  -0.369458  -0.553312  0  2.341426  0
O  O144  1  0.68340084  0.67201301  0.41400201  1  0  -0.657799  0  2.037654  0  0  -0.589613  0  2.326857  0  0  -0.614955  0  2.3152  0  0  -0.370251  -0.571542  0  2.334039  0
O  O145  1  0.81655790  0.82799501  0.91400984  1  0  -0.657759  0  2.038003  0  0  -0.589556  0  2.327171  0  0  -0.614897  0  2.315501  0  0  -0.370241  -0.571481  0  2.334336  0
O  O146  1  0.31657932  0.32798712  0.58598598  1  0  -0.657758  0  2.038139  0  0  -0.589526  0  2.327263  0  0  -0.614864  0  2.315597  0  0  -0.370186  -0.571463  0  2.334454  0
O  O147  1  0.18345099  0.17201174  0.08598980  1  0  -0.657937  0  2.037869  0  0  -0.58971  0  2.326987  0  0  -0.615045  0  2.315316  0  0  -0.370329  -0.571638  0  2.334163  0
