# generated using pymatgen
data_CdH18C18(BrN3)2
_symmetry_space_group_name_H-M   'P 1'
_cell_length_a   7.74586072
_cell_length_b   8.50986451
_cell_length_c   16.71396542
_cell_angle_alpha   90.00030983
_cell_angle_beta   89.99995472
_cell_angle_gamma   113.12447048
_symmetry_Int_Tables_number   1
_chemical_formula_structural   CdH18C18(BrN3)2
_chemical_formula_sum   'Cd2 H36 C36 Br4 N12'
_cell_volume   1013.20242735
_cell_formula_units_Z   2
loop_
 _symmetry_equiv_pos_site_id
 _symmetry_equiv_pos_as_xyz
  1  'x, y, z'
loop_
 _atom_site_type_symbol
 _atom_site_label
 _atom_site_symmetry_multiplicity
 _atom_site_fract_x
 _atom_site_fract_y
 _atom_site_fract_z
 _atom_site_occupancy
 _atom_site_hle17_bader_spin_density
 _atom_site_hle17_ddec_charge
 _atom_site_hle17_ddec_spin_density
 _atom_site_hle17_ddec_sum_bond_order
 _atom_site_hle17_magmom
 _atom_site_hse06_10hf_bader_spin_density
 _atom_site_hse06_10hf_ddec_charge
 _atom_site_hse06_10hf_ddec_spin_density
 _atom_site_hse06_10hf_ddec_sum_bond_order
 _atom_site_hse06_10hf_magmom
 _atom_site_hse06_bader_spin_density
 _atom_site_hse06_ddec_charge
 _atom_site_hse06_ddec_spin_density
 _atom_site_hse06_ddec_sum_bond_order
 _atom_site_hse06_magmom
 _atom_site_pbe_bader_spin_density
 _atom_site_pbe_cm5_charge
 _atom_site_pbe_ddec_charge
 _atom_site_pbe_ddec_spin_density
 _atom_site_pbe_ddec_sum_bond_order
 _atom_site_pbe_magmom
Cd  Cd0  1  0.99999939  0.00000284  0.99999982  1  0  0.900034  0  1.961276  0  0  0.708599  0  2.411597  0  0  0.757754  0  2.373851  0  0  0.651213  0.674382  0  2.436804  0
Cd  Cd1  1  0.00000082  0.49999802  0.49999933  1  0  0.900046  0  1.961291  0  0  0.708609  0  2.411611  0  0  0.757764  0  2.373862  0  0  0.651219  0.674392  0  2.436819  0
H  H2  1  0.51912669  0.33575377  0.55561837  1  0  0.089216  0  0.985146  0  0  0.091008  0  1.064644  0  0  0.094293  0  1.060199  0  0  0.114602  0.088578  0  1.067816  0
H  H3  1  0.48087074  0.16424392  0.05561890  1  0  0.089263  0  0.985135  0  0  0.091023  0  1.064662  0  0  0.094307  0  1.060219  0  0  0.114604  0.088594  0  1.067829  0
H  H4  1  0.48087266  0.66424128  0.44438131  1  0  0.089224  0  0.985154  0  0  0.091007  0  1.06466  0  0  0.094292  0  1.060215  0  0  0.11459  0.088577  0  1.06783  0
H  H5  1  0.51912828  0.83575625  0.94438078  1  0  0.089257  0  0.985103  0  0  0.09101  0  1.064627  0  0  0.094294  0  1.060185  0  0  0.114613  0.08858  0  1.067799  0
H  H6  1  0.55135108  0.86787927  0.62328706  1  0  0.109428  0  0.979384  0  0  0.117385  0  1.046344  0  0  0.119927  0  1.045369  0  0  0.112988  0.11552  0  1.047173  0
H  H7  1  0.44864956  0.63212216  0.12328632  1  0  0.109473  0  0.97938  0  0  0.11744  0  1.046331  0  0  0.119984  0  1.045355  0  0  0.113016  0.115574  0  1.04716  0
H  H8  1  0.44865420  0.13212342  0.37671441  1  0  0.109459  0  0.979383  0  0  0.117437  0  1.046325  0  0  0.119983  0  1.045346  0  0  0.113016  0.115572  0  1.047151  0
H  H9  1  0.55134817  0.36787802  0.87671396  1  0  0.109438  0  0.979423  0  0  0.117415  0  1.046361  0  0  0.119959  0  1.045383  0  0  0.113015  0.115551  0  1.047187  0
H  H10  1  0.89623928  0.08908717  0.56316075  1  0  0.09625  0  0.985746  0  0  0.102089  0  1.056134  0  0  0.105279  0  1.053376  0  0  0.101835  0.099699  0  1.0583  0
H  H11  1  0.10375873  0.41091189  0.06315971  1  0  0.096188  0  0.985714  0  0  0.102037  0  1.056103  0  0  0.105232  0  1.053341  0  0  0.101794  0.099649  0  1.058271  0
H  H12  1  0.10376432  0.91091170  0.43684072  1  0  0.096201  0  0.985728  0  0  0.102047  0  1.056117  0  0  0.105255  0  1.053342  0  0  0.101803  0.099657  0  1.058286  0
H  H13  1  0.89623956  0.58908957  0.93684057  1  0  0.096203  0  0.985714  0  0  0.10207  0  1.056058  0  0  0.105264  0  1.053297  0  0  0.101809  0.099679  0  1.058229  0
H  H14  1  0.21401296  0.88590667  0.59685596  1  0  0.102482  0  0.931408  0  0  0.112577  0  1.001037  0  0  0.113622  0  1.000932  0  0  0.112816  0.111816  0  1.001147  0
H  H15  1  0.78598719  0.61409061  0.09685624  1  0  0.10257  0  0.931409  0  0  0.112606  0  1.001044  0  0  0.113652  0  1.000937  0  0  0.112839  0.111843  0  1.001154  0
H  H16  1  0.78598823  0.11408964  0.40314552  1  0  0.102462  0  0.931436  0  0  0.112576  0  1.001033  0  0  0.113604  0  1.000964  0  0  0.112815  0.111816  0  1.00114  0
H  H17  1  0.21401126  0.38590829  0.90314344  1  0  0.102493  0  0.931412  0  0  0.112585  0  1.001019  0  0  0.113621  0  1.000937  0  0  0.112805  0.111824  0  1.001131  0
H  H18  1  0.21878649  0.09209159  0.58230834  1  0  0.096998  0  0.940817  0  0  0.10902  0  1.00896  0  0  0.110781  0  1.00737  0  0  0.108853  0.107651  0  1.010247  0
H  H19  1  0.78121416  0.40790768  0.08230824  1  0  0.097026  0  0.940832  0  0  0.109024  0  1.00895  0  0  0.110786  0  1.007359  0  0  0.108857  0.107653  0  1.010236  0
H  H20  1  0.78121655  0.90790599  0.41769254  1  0  0.097009  0  0.940823  0  0  0.109028  0  1.008984  0  0  0.11079  0  1.007395  0  0  0.108869  0.107658  0  1.010271  0
H  H21  1  0.21878486  0.59209250  0.91769144  1  0  0.097006  0  0.940825  0  0  0.109005  0  1.008991  0  0  0.110765  0  1.007403  0  0  0.108872  0.107635  0  1.010277  0
H  H22  1  0.40144678  0.06036069  0.89626428  1  0  0.070406  0  0.968416  0  0  0.073225  0  1.04598  0  0  0.075953  0  1.043016  0  0  0.099774  0.07114  0  1.048237  0
H  H23  1  0.59854866  0.43963976  0.39626373  1  0  0.070403  0  0.968367  0  0  0.073205  0  1.045986  0  0  0.075932  0  1.043025  0  0  0.099745  0.071122  0  1.048239  0
H  H24  1  0.59855021  0.93964079  0.10373720  1  0  0.070433  0  0.968359  0  0  0.073235  0  1.045969  0  0  0.075975  0  1.042975  0  0  0.099796  0.071151  0  1.048223  0
H  H25  1  0.40145036  0.56036042  0.60373595  1  0  0.070386  0  0.968383  0  0  0.073197  0  1.045986  0  0  0.075934  0  1.043001  0  0  0.099748  0.071114  0  1.048239  0
H  H26  1  0.50926082  0.06631775  0.75555559  1  0  0.108766  0  0.953628  0  0  0.117291  0  1.014942  0  0  0.120817  0  1.013889  0  0  0.104341  0.114769  0  1.015834  0
H  H27  1  0.49073470  0.43368232  0.25555566  1  0  0.108729  0  0.95367  0  0  0.117256  0  1.014988  0  0  0.120783  0  1.013934  0  0  0.104323  0.114733  0  1.015879  0
H  H28  1  0.49073763  0.93368115  0.24444589  1  0  0.108753  0  0.953671  0  0  0.117283  0  1.014981  0  0  0.120809  0  1.013928  0  0  0.104335  0.114759  0  1.015873  0
H  H29  1  0.50926230  0.56631915  0.74444402  1  0  0.108757  0  0.953668  0  0  0.117285  0  1.014979  0  0  0.120811  0  1.013927  0  0  0.104343  0.114762  0  1.015871  0
H  H30  1  0.86706301  0.99822285  0.82403547  1  0  0.071454  0  0.959546  0  0  0.077195  0  1.027535  0  0  0.079929  0  1.024856  0  0  0.102851  0.075096  0  1.02958  0
H  H31  1  0.13293404  0.50177714  0.32403568  1  0  0.071478  0  0.959572  0  0  0.077221  0  1.027556  0  0  0.079953  0  1.024877  0  0  0.102855  0.075122  0  1.029598  0
H  H32  1  0.13293527  0.00177862  0.17596361  1  0  0.071462  0  0.959554  0  0  0.077199  0  1.027542  0  0  0.079936  0  1.024859  0  0  0.10286  0.0751  0  1.029583  0
H  H33  1  0.86706441  0.49822176  0.67596400  1  0  0.071476  0  0.95954  0  0  0.077217  0  1.027528  0  0  0.079949  0  1.02485  0  0  0.102855  0.075118  0  1.029572  0
H  H34  1  0.94666912  0.98404894  0.67991464  1  0  0.105369  0  0.978132  0  0  0.113716  0  1.042912  0  0  0.116555  0  1.042584  0  0  0.100307  0.111662  0  1.043321  0
H  H35  1  0.05333026  0.51595573  0.17991612  1  0  0.105365  0  0.978192  0  0  0.113714  0  1.042965  0  0  0.116553  0  1.042637  0  0  0.100316  0.111659  0  1.043375  0
H  H36  1  0.05333287  0.01595506  0.32008444  1  0  0.10536  0  0.978155  0  0  0.113709  0  1.04294  0  0  0.116549  0  1.042612  0  0  0.10031  0.111654  0  1.043352  0
H  H37  1  0.94667116  0.48404699  0.82008356  1  0  0.105372  0  0.978187  0  0  0.113724  0  1.042959  0  0  0.116564  0  1.04263  0  0  0.100318  0.11167  0  1.04337  0
C  C38  1  0.57926125  0.24242988  0.56760581  1  0  0.155818  0  3.664457  0  0  0.096651  0  3.928074  0  0  0.110181  0  3.941011  0  0  0.13252  0.087953  0  3.919089  0
C  C39  1  0.42073806  0.25756922  0.06760602  1  0  0.155713  0  3.664344  0  0  0.096562  0  3.927986  0  0  0.110092  0  3.940925  0  0  0.13252  0.087865  0  3.918997  0
C  C40  1  0.42073922  0.75756772  0.43239327  1  0  0.155748  0  3.664491  0  0  0.096566  0  3.928116  0  0  0.110095  0  3.941057  0  0  0.132527  0.087868  0  3.919127  0
C  C41  1  0.57926336  0.74243350  0.93239246  1  0  0.155811  0  3.664372  0  0  0.096679  0  3.928006  0  0  0.110208  0  3.940943  0  0  0.132543  0.08798  0  3.919021  0
C  C42  1  0.59814576  0.99853943  0.60260273  1  0  -0.068649  0  3.675397  0  0  -0.107475  0  3.933271  0  0  -0.105852  0  3.951219  0  0  -0.007568  -0.108515  0  3.921263  0
C  C43  1  0.40185593  0.50146432  0.10260224  1  0  -0.068732  0  3.675416  0  0  -0.107581  0  3.933303  0  0  -0.10596  0  3.951253  0  0  -0.007639  -0.108619  0  3.921291  0
C  C44  1  0.40185655  0.00145944  0.39739814  1  0  -0.068761  0  3.675418  0  0  -0.107631  0  3.933291  0  0  -0.106011  0  3.951241  0  0  -0.00763  -0.108667  0  3.921278  0
C  C45  1  0.59814364  0.49853714  0.89739863  1  0  -0.068676  0  3.675444  0  0  -0.107523  0  3.933322  0  0  -0.1059  0  3.951269  0  0  -0.007583  -0.108564  0  3.921313  0
C  C46  1  0.76813186  0.10912210  0.57323501  1  0  -0.005771  0  3.775421  0  0  -0.041411  0  4.045481  0  0  -0.039083  0  4.064788  0  0  -0.013607  -0.042903  0  4.032507  0
C  C47  1  0.23187061  0.39087833  0.07323327  1  0  -0.005804  0  3.775478  0  0  -0.041466  0  4.045556  0  0  -0.039144  0  4.064872  0  0  -0.013595  -0.04296  0  4.032578  0
C  C48  1  0.23187359  0.89087803  0.42676766  1  0  -0.005743  0  3.775484  0  0  -0.041404  0  4.045551  0  0  -0.039094  0  4.06486  0  0  -0.013602  -0.042898  0  4.032573  0
C  C49  1  0.76812841  0.60912185  0.92676641  1  0  -0.0058  0  3.775444  0  0  -0.041468  0  4.045536  0  0  -0.039146  0  4.064847  0  0  -0.013636  -0.04296  0  4.03256  0
C  C50  1  0.23584606  0.02557582  0.70533530  1  0  0.13976  0  3.710875  0  0  0.153243  0  3.95025  0  0  0.157879  0  3.972263  0  0  0.010731  0.150367  0  3.935204  0
C  C51  1  0.76415171  0.47442620  0.20533599  1  0  0.139711  0  3.710886  0  0  0.153219  0  3.950138  0  0  0.157854  0  3.97215  0  0  0.010702  0.150341  0  3.935088  0
C  C52  1  0.76415424  0.97442435  0.29466557  1  0  0.139752  0  3.710754  0  0  0.153232  0  3.950151  0  0  0.15787  0  3.972162  0  0  0.010714  0.150355  0  3.935102  0
C  C53  1  0.23584529  0.52557527  0.79466429  1  0  0.139759  0  3.710869  0  0  0.15327  0  3.950186  0  0  0.157907  0  3.972197  0  0  0.010728  0.150393  0  3.935139  0
C  C54  1  0.28081578  0.01871821  0.61801968  1  0  -0.059471  0  3.646509  0  0  -0.119318  0  3.882682  0  0  -0.116166  0  3.892587  0  0  -0.046134  -0.121335  0  3.875994  0
C  C55  1  0.71918297  0.48128277  0.11801921  1  0  -0.059677  0  3.64676  0  0  -0.119354  0  3.88266  0  0  -0.116199  0  3.892559  0  0  -0.046176  -0.121368  0  3.87597  0
C  C56  1  0.71918597  0.98127938  0.38198179  1  0  -0.059455  0  3.646467  0  0  -0.119351  0  3.882752  0  0  -0.116198  0  3.892649  0  0  -0.046153  -0.121368  0  3.876062  0
C  C57  1  0.28081531  0.51871869  0.88198047  1  0  -0.059512  0  3.6466  0  0  -0.119343  0  3.882789  0  0  -0.116193  0  3.892689  0  0  -0.046134  -0.121359  0  3.8761  0
C  C58  1  0.30498646  0.04666922  0.84647119  1  0  0.124404  0  3.732119  0  0  0.096671  0  3.985332  0  0  0.103799  0  4.003713  0  0  0.038711  0.092111  0  3.972877  0
C  C59  1  0.69501307  0.45333446  0.34647064  1  0  0.124423  0  3.732078  0  0  0.096663  0  3.985309  0  0  0.103791  0  4.003689  0  0  0.038756  0.092101  0  3.972853  0
C  C60  1  0.69501312  0.95333224  0.15353029  1  0  0.124411  0  3.732073  0  0  0.096668  0  3.985294  0  0  0.103798  0  4.003682  0  0  0.038686  0.092106  0  3.972836  0
C  C61  1  0.30498723  0.54666571  0.65352963  1  0  0.124464  0  3.732108  0  0  0.096698  0  3.985351  0  0  0.103827  0  4.003739  0  0  0.038728  0.092136  0  3.972894  0
C  C62  1  0.36423178  0.04815075  0.76751445  1  0  -0.181642  0  3.71747  0  0  -0.199816  0  3.963998  0  0  -0.208009  0  3.985245  0  0  -0.093775  -0.194535  0  3.949696  0
C  C63  1  0.63576693  0.45185072  0.26751333  1  0  -0.181604  0  3.717506  0  0  -0.199788  0  3.964024  0  0  -0.20798  0  3.985274  0  0  -0.093785  -0.194506  0  3.94972  0
C  C64  1  0.63576668  0.95184815  0.23248642  1  0  -0.181649  0  3.717527  0  0  -0.199808  0  3.964053  0  0  -0.208003  0  3.985304  0  0  -0.093773  -0.194527  0  3.949749  0
C  C65  1  0.36423265  0.54815074  0.73248575  1  0  -0.181636  0  3.717533  0  0  -0.199798  0  3.964049  0  0  -0.207992  0  3.9853  0  0  -0.093765  -0.194517  0  3.949748  0
C  C66  1  0.00669112  0.00907163  0.80588477  1  0  0.133029  0  3.729216  0  0  0.104527  0  3.977189  0  0  0.111724  0  3.995531  0  0  0.039834  0.099974  0  3.964729  0
C  C67  1  0.99330659  0.49092773  0.30588542  1  0  0.132925  0  3.729143  0  0  0.104419  0  3.977122  0  0  0.111615  0  3.995464  0  0  0.039788  0.099866  0  3.964654  0
C  C68  1  0.99330733  0.99092727  0.19411491  1  0  0.133028  0  3.729225  0  0  0.104538  0  3.977196  0  0  0.111731  0  3.995538  0  0  0.039808  0.099984  0  3.964727  0
C  C69  1  0.00669187  0.50907117  0.69411426  1  0  0.132944  0  3.729086  0  0  0.104442  0  3.977061  0  0  0.111638  0  3.995406  0  0  0.039776  0.099889  0  3.964598  0
C  C70  1  0.05274780  0.00434169  0.72593724  1  0  -0.165904  0  3.704531  0  0  -0.180545  0  3.94452  0  0  -0.188675  0  3.966163  0  0  -0.086812  -0.17536  0  3.930042  0
C  C71  1  0.94725148  0.49565800  0.22593732  1  0  -0.165805  0  3.704535  0  0  -0.180479  0  3.944522  0  0  -0.188609  0  3.966165  0  0  -0.086796  -0.175295  0  3.93004  0
C  C72  1  0.94725081  0.99565464  0.27406244  1  0  -0.16588  0  3.704526  0  0  -0.180525  0  3.944524  0  0  -0.188655  0  3.966166  0  0  -0.086809  -0.175341  0  3.930044  0
C  C73  1  0.05274938  0.50434345  0.77406176  1  0  -0.165871  0  3.704544  0  0  -0.180536  0  3.944535  0  0  -0.188665  0  3.966174  0  0  -0.086817  -0.175351  0  3.930057  0
Br  Br74  1  0.79876121  0.19531752  0.95491834  1  0  -0.611613  0  0.804653  0  0  -0.555564  0  1.077212  0  0  -0.572292  0  1.056472  0  0  -0.319775  -0.54313  0  1.091335  0
Br  Br75  1  0.20123958  0.30468358  0.45491697  1  0  -0.611613  0  0.804645  0  0  -0.555564  0  1.077215  0  0  -0.572291  0  1.056477  0  0  -0.319778  -0.543132  0  1.091338  0
Br  Br76  1  0.20124358  0.80469287  0.04507895  1  0  -0.611636  0  0.804696  0  0  -0.555586  0  1.077252  0  0  -0.572316  0  1.056511  0  0  -0.319784  -0.543155  0  1.091373  0
Br  Br77  1  0.79875809  0.69530763  0.54507793  1  0  -0.611632  0  0.804694  0  0  -0.555582  0  1.077271  0  0  -0.572313  0  1.056532  0  0  -0.319778  -0.543149  0  1.091393  0
N  N78  1  0.75424750  0.26024028  0.55161977  1  0  -0.378839  0  3.281928  0  0  -0.301611  0  3.556697  0  0  -0.322538  0  3.576395  0  0  -0.361888  -0.287253  0  3.542654  0
N  N79  1  0.24575233  0.23975991  0.05161940  1  0  -0.378626  0  3.281798  0  0  -0.301393  0  3.556545  0  0  -0.322314  0  3.576233  0  0  -0.361831  -0.287041  0  3.542512  0
N  N80  1  0.24575224  0.73975861  0.44838111  1  0  -0.378678  0  3.28179  0  0  -0.301418  0  3.556525  0  0  -0.322344  0  3.576223  0  0  -0.361822  -0.287064  0  3.542489  0
N  N81  1  0.75424725  0.76024154  0.94838028  1  0  -0.378759  0  3.281893  0  0  -0.301517  0  3.556632  0  0  -0.322449  0  3.576345  0  0  -0.361857  -0.287156  0  3.54258  0
N  N82  1  0.47964484  0.08487241  0.59858210  1  0  -0.054951  0  3.580929  0  0  0.04067  0  3.792818  0  0  0.025925  0  3.819611  0  0  -0.244557  0.050412  0  3.774565  0
N  N83  1  0.52035514  0.41512833  0.09858151  1  0  -0.054901  0  3.580943  0  0  0.040693  0  3.792777  0  0  0.025947  0  3.819572  0  0  -0.244543  0.050435  0  3.77452  0
N  N84  1  0.52035692  0.91512518  0.40141878  1  0  -0.054933  0  3.580908  0  0  0.040734  0  3.79278  0  0  0.02599  0  3.819573  0  0  -0.244562  0.050476  0  3.774524  0
N  N85  1  0.47964387  0.58487184  0.90141757  1  0  -0.054952  0  3.580928  0  0  0.040663  0  3.792805  0  0  0.02592  0  3.819597  0  0  -0.244595  0.050406  0  3.774552  0
N  N86  1  0.12986707  0.02890849  0.86562942  1  0  -0.326568  0  3.25471  0  0  -0.253834  0  3.514847  0  0  -0.272932  0  3.534773  0  0  -0.33164  -0.24091  0  3.501006  0
N  N87  1  0.87012956  0.47109159  0.36563006  1  0  -0.326501  0  3.254586  0  0  -0.253745  0  3.514716  0  0  -0.272838  0  3.534633  0  0  -0.331588  -0.240821  0  3.500873  0
N  N88  1  0.87013138  0.97109041  0.13437085  1  0  -0.326597  0  3.254661  0  0  -0.253851  0  3.514795  0  0  -0.272953  0  3.534725  0  0  -0.331612  -0.240925  0  3.500947  0
N  N89  1  0.12986962  0.52890602  0.63437021  1  0  -0.326554  0  3.25459  0  0  -0.253791  0  3.514719  0  0  -0.272889  0  3.534646  0  0  -0.331593  -0.240867  0  3.500879  0
