# generated using pymatgen
data_TbH8C13NO5
_symmetry_space_group_name_H-M   'P 1'
_cell_length_a   8.21187827
_cell_length_b   21.81102533
_cell_length_c   21.81206079
_cell_angle_alpha   87.98706249
_cell_angle_beta   79.15285297
_cell_angle_gamma   79.17014680
_symmetry_Int_Tables_number   1
_chemical_formula_structural   TbH8C13NO5
_chemical_formula_sum   'Tb8 H64 C104 N8 O40'
_cell_volume   3768.60599984
_cell_formula_units_Z   8
loop_
 _symmetry_equiv_pos_site_id
 _symmetry_equiv_pos_as_xyz
  1  'x, y, z'
loop_
 _atom_site_type_symbol
 _atom_site_label
 _atom_site_symmetry_multiplicity
 _atom_site_fract_x
 _atom_site_fract_y
 _atom_site_fract_z
 _atom_site_occupancy
 _atom_site_pbe_bader_charge
 _atom_site_pbe_bader_spin_density
 _atom_site_pbe_cm5_charge
 _atom_site_pbe_ddec_charge
 _atom_site_pbe_ddec_spin_density
 _atom_site_pbe_ddec_sum_bond_order
 _atom_site_pbe_magmom
Tb  Tb0  1  0.98807702  0.16705078  0.78023375  1  2.14979  0  1.499841  2.086122  0  2.204347  0
Tb  Tb1  1  0.93544196  0.33298206  0.71978866  1  2.14835  0  1.500975  2.088619  0  2.201269  0
Tb  Tb2  1  0.65507191  0.78020402  0.33293717  1  2.150851  0  1.49978  2.086677  0  2.202203  0
Tb  Tb3  1  0.76828556  0.71977327  0.16703467  1  2.150257  0  1.499253  2.086066  0  2.2019  0
Tb  Tb4  1  0.01192427  0.83294929  0.21976636  1  2.14976  0  1.499816  2.086064  0  2.204379  0
Tb  Tb5  1  0.06456279  0.66701754  0.28021071  1  2.148395  0  1.500936  2.088527  0  2.201368  0
Tb  Tb6  1  0.34492546  0.21979744  0.66706120  1  2.150838  0  1.499699  2.086591  0  2.202212  0
Tb  Tb7  1  0.23171596  0.28022680  0.83296643  1  2.150387  0  1.499215  2.086083  0  2.201802  0
H  H8  1  0.87062771  0.28145012  0.84203609  1  0.605914  0  0.307193  0.401006  0  0.927995  0
H  H9  1  0.99430230  0.21855855  0.65796097  1  0.610545  0  0.307638  0.400228  0  0.928412  0
H  H10  1  0.65217761  0.84204112  0.21862252  1  0.604175  0  0.307207  0.400428  0  0.928954  0
H  H11  1  0.71264790  0.65792321  0.28137276  1  0.596611  0  0.307758  0.402017  0  0.926911  0
H  H12  1  0.12937266  0.71855041  0.15796346  1  0.605903  0  0.307186  0.401037  0  0.927965  0
H  H13  1  0.00570015  0.78144105  0.34203822  1  0.610588  0  0.307659  0.400226  0  0.928428  0
H  H14  1  0.34781930  0.15795847  0.78137723  1  0.604287  0  0.307169  0.40041  0  0.928976  0
H  H15  1  0.28735085  0.34207778  0.71862817  1  0.596617  0  0.307767  0.402085  0  0.926826  0
H  H16  1  0.46180009  0.04717166  0.76800466  1  0.112201  0  0.121515  0.134183  0  0.984408  0
H  H17  1  0.27720168  0.45284619  0.73211065  1  0.135697  0  0.120682  0.133624  0  0.984867  0
H  H18  1  0.00900594  0.76778376  0.45287589  1  0.112221  0  0.120383  0.131815  0  0.983533  0
H  H19  1  0.22984789  0.73221960  0.04707596  1  0.134997  0  0.119905  0.13175  0  0.986883  0
H  H20  1  0.53819821  0.95282840  0.23199718  1  0.112197  0  0.121518  0.134187  0  0.984378  0
H  H21  1  0.72280283  0.54715481  0.26789072  1  0.135669  0  0.12071  0.133673  0  0.98494  0
H  H22  1  0.99099052  0.23221537  0.54712331  1  0.111748  0  0.120382  0.131873  0  0.983523  0
H  H23  1  0.77015545  0.26778373  0.95292294  1  0.134976  0  0.119875  0.131744  0  0.986908  0
H  H24  1  0.47858584  0.97587860  0.86093719  1  0.076182  0  0.109093  0.108031  0  0.986066  0
H  H25  1  0.31533505  0.52411073  0.63912548  1  0.076103  0  0.110256  0.11014  0  0.986723  0
H  H26  1  0.95440268  0.86082408  0.52410109  1  0.090234  0  0.110878  0.109624  0  0.987704  0
H  H27  1  0.33912200  0.63914877  0.97591579  1  0.071264  0  0.10891  0.108083  0  0.988558  0
H  H28  1  0.52141867  0.02412146  0.13906217  1  0.076167  0  0.109078  0.10798  0  0.986079  0
H  H29  1  0.68467176  0.47588981  0.36087506  1  0.076015  0  0.110247  0.110072  0  0.986685  0
H  H30  1  0.04559585  0.13917598  0.47589929  1  0.090262  0  0.110888  0.109632  0  0.987647  0
H  H31  1  0.66087305  0.36085410  0.02408542  1  0.071216  0  0.108875  0.108081  0  0.988459  0
H  H32  1  0.93196348  0.04171947  0.87879537  1  0.112446  0  0.117629  0.080881  0  1.040673  0
H  H33  1  0.85245888  0.45852446  0.62126011  1  0.118862  0  0.117175  0.080895  0  1.041612  0
H  H34  1  0.47350147  0.87879597  0.45827885  1  0.12696  0  0.117585  0.080853  0  1.041169  0
H  H35  1  0.81045194  0.62122433  0.04166626  1  0.121873  0  0.118358  0.082337  0  1.041342  0
H  H36  1  0.06803826  0.95828153  0.12120382  1  0.112465  0  0.117608  0.080827  0  1.040715  0
H  H37  1  0.14754794  0.54147560  0.37873943  1  0.118891  0  0.117181  0.08089  0  1.041667  0
H  H38  1  0.52649958  0.12120410  0.54172271  1  0.126958  0  0.117593  0.080836  0  1.041209  0
H  H39  1  0.18954547  0.37877153  0.95833239  1  0.121853  0  0.118326  0.082303  0  1.04137  0
H  H40  1  0.66252432  0.88207453  0.90022496  1  0.076853  0  0.099897  0.098255  0  1.003436  0
H  H41  1  0.44531350  0.61808003  0.59985946  1  0.06105  0  0.100235  0.098931  0  1.003133  0
H  H42  1  0.04495816  0.90018181  0.61787409  1  0.050011  0  0.100745  0.099317  0  1.004379  0
H  H43  1  0.56257141  0.59958676  0.88211420  1  0.032183  0  0.100449  0.099284  0  1.002769  0
H  H44  1  0.33747421  0.11792367  0.09977634  1  0.076857  0  0.099897  0.098224  0  1.003369  0
H  H45  1  0.55468688  0.38191723  0.40014046  1  0.060973  0  0.10025  0.098975  0  1.003064  0
H  H46  1  0.95503668  0.09981825  0.38212502  1  0.05002  0  0.100781  0.099328  0  1.004365  0
H  H47  1  0.43741998  0.40041284  0.11788611  1  0.032242  0  0.10047  0.099263  0  1.002667  0
H  H48  1  0.72912733  0.81640575  0.99164726  1  0.071018  0  0.107583  0.113552  0  0.995018  0
H  H49  1  0.53782599  0.68373144  0.50842053  1  0.085243  0  0.106635  0.113378  0  0.995249  0
H  H50  1  0.04584201  0.99163025  0.68357590  1  0.112877  0  0.107195  0.113119  0  0.995071  0
H  H51  1  0.72105976  0.50826708  0.81640588  1  0.117487  0  0.10705  0.11215  0  0.997129  0
H  H52  1  0.27086360  0.18359385  0.00835598  1  0.071093  0  0.10763  0.11358  0  0.994878  0
H  H53  1  0.46216518  0.31626723  0.49157923  1  0.085248  0  0.106649  0.113402  0  0.995205  0
H  H54  1  0.95415536  0.00837121  0.31642247  1  0.112817  0  0.107195  0.113146  0  0.995038  0
H  H55  1  0.27893900  0.49173298  0.18359304  1  0.117525  0  0.107064  0.112191  0  0.997091  0
H  H56  1  0.86001538  0.97256096  0.07254572  1  0.093604  0  0.102897  0.100802  0  1.025033  0
H  H57  1  0.90505156  0.52748687  0.42750116  1  0.084537  0  0.102671  0.101146  0  1.024657  0
H  H58  1  0.33208595  0.07263356  0.52734816  1  0.057661  0  0.103341  0.100782  0  1.024162  0
H  H59  1  0.93269203  0.42755447  0.97258809  1  0.065985  0  0.102615  0.100773  0  1.025645  0
H  H60  1  0.13998385  0.02743723  0.92745612  1  0.093594  0  0.102888  0.100783  0  1.025052  0
H  H61  1  0.09495663  0.47251413  0.57249902  1  0.084732  0  0.102689  0.101153  0  1.024646  0
H  H62  1  0.66791350  0.92736557  0.47265177  1  0.057578  0  0.103335  0.100771  0  1.024177  0
H  H63  1  0.06730718  0.57244653  0.02740991  1  0.065962  0  0.102663  0.100865  0  1.025634  0
H  H64  1  0.79526514  0.03868850  0.98199272  1  0.095362  0  0.105129  0.107042  0  1.000159  0
H  H65  1  0.81566726  0.46138507  0.51807150  1  0.058053  0  0.105116  0.107733  0  1.000009  0
H  H66  1  0.33327096  0.98206827  0.46117273  1  0.053684  0  0.105624  0.108146  0  0.999457  0
H  H67  1  0.77697190  0.51803980  0.03873163  1  0.048523  0  0.105841  0.108116  0  0.999337  0
H  H68  1  0.20473133  0.96130876  0.01800987  1  0.095272  0  0.105091  0.107011  0  1.000125  0
H  H69  1  0.18434784  0.53861593  0.48192921  1  0.058157  0  0.10517  0.107786  0  1.000079  0
H  H70  1  0.66672942  0.01793039  0.53882527  1  0.053726  0  0.105613  0.108109  0  0.999484  0
H  H71  1  0.22302064  0.48195933  0.96126776  1  0.048488  0  0.105801  0.108094  0  0.99928  0
C  C72  1  0.67328138  0.13065606  0.72648667  1  1.601691  0  0.228479  0.598626  0  4.208989  0
C  C73  1  0.53052898  0.36941289  0.77356118  1  1.633462  0  0.228791  0.597634  0  4.206297  0
C  C74  1  0.30390768  0.72636248  0.36931015  1  1.603343  0  0.229996  0.599967  0  4.205571  0
C  C75  1  0.39976385  0.77363319  0.13066846  1  1.625483  0  0.230763  0.599841  0  4.208009  0
C  C76  1  0.32671275  0.86934773  0.27351500  1  1.601622  0  0.228477  0.598489  0  4.209065  0
C  C77  1  0.46948086  0.63058250  0.22643643  1  1.634247  0  0.228717  0.59749  0  4.206602  0
C  C78  1  0.69609935  0.27363991  0.63069048  1  1.603279  0  0.230004  0.599988  0  4.20575  0
C  C79  1  0.60024413  0.22636594  0.86933409  1  1.625717  0  0.230737  0.59983  0  4.208156  0
C  C80  1  0.68610672  0.08121239  0.77656085  1  0.492321  0  0.118547  0.105703  0  3.971491  0
C  C81  1  0.54403150  0.41885794  0.72348496  1  0.469139  0  0.121124  0.10928  0  3.967717  0
C  C82  1  0.26723541  0.77646985  0.41873867  1  0.495038  0  0.118401  0.105506  0  3.968724  0
C  C83  1  0.46255499  0.72351550  0.08123565  1  0.498549  0  0.116787  0.104487  0  3.968636  0
C  C84  1  0.31388604  0.91879001  0.22344165  1  0.492301  0  0.118537  0.10566  0  3.971619  0
C  C85  1  0.45597509  0.58114166  0.27651257  1  0.469351  0  0.121106  0.109236  0  3.967764  0
C  C86  1  0.73276081  0.22353068  0.58126254  1  0.495334  0  0.118429  0.105592  0  3.968633  0
C  C87  1  0.53744837  0.27648503  0.91876462  1  0.498558  0  0.11681  0.104477  0  3.968801  0
C  C88  1  0.56468310  0.04357768  0.79383387  1  -0.007486  0  -0.073782  -0.123307  0  3.927185  0
C  C89  1  0.40223000  0.45647054  0.70623029  1  -0.043603  0  -0.073321  -0.125101  0  3.929574  0
C  C90  1  0.10821839  0.79370501  0.45641212  1  -0.00726  0  -0.071318  -0.1198  0  3.926031  0
C  C91  1  0.35842112  0.70628251  0.04357240  1  -0.038491  0  -0.069167  -0.118533  0  3.928077  0
C  C92  1  0.43531586  0.95642612  0.20616669  1  -0.007536  0  -0.073719  -0.123199  0  3.927279  0
C  C93  1  0.59777798  0.54352672  0.29377071  1  -0.043666  0  -0.073334  -0.125152  0  3.92983  0
C  C94  1  0.89178497  0.20629458  0.54358615  1  -0.006846  0  -0.071356  -0.120009  0  3.925919  0
C  C95  1  0.64158224  0.29371895  0.95642742  1  -0.038496  0  -0.069151  -0.118509  0  3.928135  0
C  C96  1  0.57508838  0.00406923  0.84513429  1  -0.065812  0  -0.065833  -0.079688  0  3.935999  0
C  C97  1  0.42429949  0.49596679  0.65492003  1  -0.089905  0  -0.063884  -0.077851  0  3.939015  0
C  C98  1  0.07905254  0.84504934  0.49587671  1  -0.06456  0  -0.065141  -0.079777  0  3.94055  0
C  C99  1  0.41988102  0.65492224  0.00411057  1  -0.056745  0  -0.063426  -0.078086  0  3.938708  0
C  C100  1  0.42491037  0.99593130  0.15486810  1  -0.065545  0  -0.06589  -0.07981  0  3.936266  0
C  C101  1  0.57570917  0.50403328  0.34508014  1  -0.090163  0  -0.063912  -0.077798  0  3.939001  0
C  C102  1  0.92094115  0.15495119  0.50412085  1  -0.064705  0  -0.06507  -0.079625  0  3.940436  0
C  C103  1  0.58011473  0.34507969  0.99588918  1  -0.056678  0  -0.063346  -0.078021  0  3.938676  0
C  C104  1  0.70662026  0.00290347  0.87817216  1  0.056359  0  0.002754  0.030587  0  3.983912  0
C  C105  1  0.58768873  0.49719421  0.62188485  1  0.076634  0  0.000533  0.027937  0  3.98515  0
C  C106  1  0.20934023  0.87815899  0.49702049  1  0.061842  0  0.001121  0.029867  0  3.984762  0
C  C107  1  0.58438138  0.62180189  0.00295395  1  -0.013643  0  0.001568  0.030117  0  3.986605  0
C  C108  1  0.29338403  0.99709613  0.12182766  1  0.055666  0  0.002745  0.030719  0  3.983743  0
C  C109  1  0.41232178  0.50280492  0.37811642  1  0.077181  0  0.00057  0.028024  0  3.984766  0
C  C110  1  0.79065762  0.12184014  0.50297733  1  0.061452  0  0.001122  0.029853  0  3.984857  0
C  C111  1  0.41561646  0.37819724  0.99704634  1  -0.013561  0  0.001434  0.029883  0  3.986795  0
C  C112  1  0.82530612  0.04103995  0.85581367  1  0.478318  0  0.062104  0.072074  0  3.923595  0
C  C113  1  0.72214598  0.45911555  0.64423851  1  0.472666  0  0.061842  0.071521  0  3.924162  0
C  C114  1  0.36615292  0.85580266  0.45891916  1  0.436145  0  0.059776  0.070611  0  3.925206  0
C  C115  1  0.68077342  0.64419223  0.04104540  1  0.53866  0  0.059193  0.067577  0  3.92788  0
C  C116  1  0.17469078  0.95896244  0.14418717  1  0.477672  0  0.062159  0.072153  0  3.923497  0
C  C117  1  0.27785463  0.54088312  0.35576296  1  0.472277  0  0.061797  0.071533  0  3.923928  0
C  C118  1  0.63384584  0.14419741  0.54107975  1  0.436296  0  0.059717  0.070554  0  3.925209  0
C  C119  1  0.31922397  0.35580643  0.95895435  1  0.538627  0  0.059346  0.067797  0  3.927789  0
C  C120  1  0.72757347  0.96461613  0.93412772  1  -0.050618  0  -0.006213  0.070689  0  4.022996  0
C  C121  1  0.62636720  0.53550939  0.56594323  1  -0.03734  0  -0.006945  0.071323  0  4.02099  0
C  C122  1  0.19201727  0.93414875  0.53529929  1  0.01727  0  -0.00439  0.072019  0  4.021901  0
C  C123  1  0.66135444  0.56581857  0.96466869  1  -0.001267  0  -0.004088  0.071996  0  4.021662  0
C  C124  1  0.27243176  0.03538067  0.06587256  1  -0.050293  0  -0.006105  0.070713  0  4.022772  0
C  C125  1  0.37364123  0.46449068  0.43405841  1  -0.037272  0  -0.006882  0.071431  0  4.021319  0
C  C126  1  0.80798011  0.06585038  0.46469899  1  0.017573  0  -0.004403  0.07199  0  4.02199  0
C  C127  1  0.33863834  0.43418009  0.03533071  1  -0.001364  0  -0.004122  0.071895  0  4.021599  0
C  C128  1  0.70424190  0.90226143  0.93834609  1  -0.018386  0  -0.090847  -0.137701  0  3.992794  0
C  C129  1  0.54524508  0.59787594  0.56174106  1  -0.028613  0  -0.092249  -0.139755  0  3.992524  0
C  C130  1  0.10661853  0.93833099  0.59768950  1  -0.058931  0  -0.092974  -0.140452  0  3.993951  0
C  C131  1  0.64243676  0.56153195  0.90230471  1  -0.023204  0  -0.092786  -0.139705  0  3.994291  0
C  C132  1  0.29575709  0.09773817  0.06165283  1  -0.018424  0  -0.090868  -0.13767  0  3.99263  0
C  C133  1  0.45475806  0.40212272  0.43825913  1  -0.028772  0  -0.09227  -0.139819  0  3.992486  0
C  C134  1  0.89337678  0.06166907  0.40230915  1  -0.059127  0  -0.092952  -0.14043  0  3.993994  0
C  C135  1  0.35755416  0.43846858  0.09769560  1  -0.023191  0  -0.09278  -0.139548  0  3.99412  0
C  C136  1  0.74217771  0.86531014  0.98903740  1  -0.041978  0  -0.082199  -0.081562  0  3.967665  0
C  C137  1  0.59704808  0.63482742  0.51103924  1  -0.033004  0  -0.07908  -0.079543  0  3.96661  0
C  C138  1  0.10765010  0.98903657  0.63465738  1  -0.058019  0  -0.080465  -0.078871  0  3.966665  0
C  C139  1  0.73148331  0.51090828  0.86531218  1  -0.090745  0  -0.079857  -0.078517  0  3.968583  0
C  C140  1  0.25781507  0.13468759  0.01096492  1  -0.042011  0  -0.082264  -0.081625  0  3.967719  0
C  C141  1  0.40294999  0.36517264  0.48896160  1  -0.03284  0  -0.07906  -0.079539  0  3.966752  0
C  C142  1  0.89234613  0.01096256  0.36534082  1  -0.057847  0  -0.080419  -0.078849  0  3.966556  0
C  C143  1  0.26851177  0.48909131  0.13468693  1  -0.090735  0  -0.079876  -0.07867  0  3.968644  0
C  C144  1  0.80243728  0.89006491  0.03701768  1  -0.00634  0  -0.014884  -0.034895  0  3.944804  0
C  C145  1  0.72990318  0.61002317  0.46306015  1  0.004099  0  -0.016104  -0.036399  0  3.948666  0
C  C146  1  0.19246982  0.03704963  0.60987412  1  -0.004729  0  -0.016424  -0.036636  0  3.946949  0
C  C147  1  0.83988160  0.46301341  0.89005697  1  -0.01275  0  -0.017094  -0.038816  0  3.94797  0
C  C148  1  0.19755411  0.10993469  0.96298510  1  -0.006339  0  -0.014864  -0.034817  0  3.944685  0
C  C149  1  0.27009879  0.38997783  0.53694004  1  0.004004  0  -0.016145  -0.036491  0  3.948849  0
C  C150  1  0.80752986  0.96294950  0.39012434  1  -0.004847  0  -0.016495  -0.036622  0  3.946955  0
C  C151  1  0.16011231  0.53698759  0.10994260  1  -0.01305  0  -0.017062  -0.038646  0  3.947769  0
C  C152  1  0.81748682  0.95307749  0.03438581  1  -0.052119  0  -0.085704  -0.092386  0  4.004718  0
C  C153  1  0.80507213  0.54699588  0.46569667  1  -0.08211  0  -0.085234  -0.09232  0  4.006777  0
C  C154  1  0.27029130  0.03443478  0.54684054  1  -0.004451  0  -0.085679  -0.091138  0  4.004402  0
C  C155  1  0.85204768  0.46568635  0.95308762  1  -0.032923  0  -0.084213  -0.090916  0  4.005563  0
C  C156  1  0.18250873  0.04692024  0.96561623  1  -0.052109  0  -0.085735  -0.092395  0  4.004671  0
C  C157  1  0.19492823  0.45300511  0.53430389  1  -0.082191  0  -0.085208  -0.092218  0  4.006501  0
C  C158  1  0.72971139  0.96556295  0.45315809  1  -0.004069  0  -0.085624  -0.091086  0  4.004443  0
C  C159  1  0.14794970  0.53431371  0.04691021  1  -0.032769  0  -0.084315  -0.091172  0  4.00556  0
C  C160  1  0.78139435  0.98985052  0.98365405  1  -0.084725  0  -0.089748  -0.136203  0  3.988711  0
C  C161  1  0.75490746  0.51022985  0.51641388  1  -0.027506  0  -0.088533  -0.137032  0  3.988222  0
C  C162  1  0.27091507  0.98369607  0.51004383  1  -0.07571  0  -0.090671  -0.138848  0  3.99011  0
C  C163  1  0.76493382  0.51637314  0.98988686  1  -0.051404  0  -0.091509  -0.137921  0  3.989061  0
C  C164  1  0.21860856  0.01014768  0.01634660  1  -0.084602  0  -0.089758  -0.136236  0  3.988775  0
C  C165  1  0.24510464  0.48977162  0.48358464  1  -0.027667  0  -0.088686  -0.137258  0  3.988489  0
C  C166  1  0.72908716  0.01630166  0.48995526  1  -0.075826  0  -0.090735  -0.138855  0  3.990161  0
C  C167  1  0.23506149  0.48362645  0.01011326  1  -0.051283  0  -0.091441  -0.13778  0  3.988871  0
C  C168  1  0.85471305  0.84996118  0.08994846  1  1.570127  0  0.229606  0.637535  0  4.16415  0
C  C169  1  0.79487031  0.65002863  0.41001794  1  1.578367  0  0.229299  0.637896  0  4.162864  0
C  C170  1  0.20458490  0.09001398  0.64997077  1  1.582798  0  0.228571  0.637037  0  4.165147  0
C  C171  1  0.94505416  0.41004558  0.84999425  1  1.608148  0  0.229877  0.640291  0  4.164835  0
C  C172  1  0.14528065  0.15003795  0.91005349  1  1.570247  0  0.229455  0.637317  0  4.164312  0
C  C173  1  0.20513166  0.34997237  0.58998225  1  1.577549  0  0.229386  0.638059  0  4.16273  0
C  C174  1  0.79541454  0.90998795  0.35002531  1  1.58212  0  0.228504  0.636762  0  4.165171  0
C  C175  1  0.05494276  0.58995448  0.15000650  1  1.608181  0  0.229778  0.640192  0  4.164674  0
N  N176  1  0.81588362  0.07892665  0.80679528  1  -1.248793  0  -0.363837  -0.337507  0  3.531745  0
N  N177  1  0.70174843  0.42118849  0.69323572  1  -1.230016  0  -0.366721  -0.339654  0  3.529805  0
N  N178  1  0.39466712  0.80675759  0.42103276  1  -1.235407  0  -0.364066  -0.33811  0  3.529063  0
N  N179  1  0.62250969  0.69322262  0.07894124  1  -1.249505  0  -0.365261  -0.336649  0  3.528553  0
N  N180  1  0.18410659  0.92107761  0.19320759  1  -1.248202  0  -0.36386  -0.33755  0  3.531803  0
N  N181  1  0.29825748  0.57880924  0.30676465  1  -1.229813  0  -0.36669  -0.33973  0  3.529764  0
N  N182  1  0.60533785  0.19324294  0.57896715  1  -1.235569  0  -0.364102  -0.338162  0  3.529159  0
N  N183  1  0.37749369  0.30677511  0.92105794  1  -1.249516  0  -0.365289  -0.33668  0  3.528774  0
O  O184  1  0.78637959  0.16417688  0.71677641  1  -1.165892  0  -0.373789  -0.63541  0  2.30359  0
O  O185  1  0.66741026  0.33590579  0.78325716  1  -1.188579  0  -0.375851  -0.63709  0  2.303766  0
O  O186  1  0.45052196  0.71667456  0.33580556  1  -1.186102  0  -0.375284  -0.636695  0  2.301444  0
O  O187  1  0.50326749  0.78336238  0.16415173  1  -1.190076  0  -0.376143  -0.637264  0  2.303872  0
O  O188  1  0.21361385  0.83582645  0.28322618  1  -1.165808  0  -0.373745  -0.635271  0  2.303508  0
O  O189  1  0.33259749  0.66409100  0.21673936  1  -1.189491  0  -0.37579  -0.636982  0  2.303667  0
O  O190  1  0.54947655  0.28332877  0.66419692  1  -1.185992  0  -0.375316  -0.636721  0  2.301309  0
O  O191  1  0.49674049  0.21663582  0.83584882  1  -1.190503  0  -0.376018  -0.637172  0  2.30382  0
O  O192  1  0.54828407  0.13615427  0.69918637  1  -1.206525  0  -0.371567  -0.634982  0  2.306098  0
O  O193  1  0.38376359  0.36389291  0.80087620  1  -1.194975  0  -0.369724  -0.6328  0  2.303747  0
O  O194  1  0.18449596  0.69900173  0.36380723  1  -1.19816  0  -0.372023  -0.635381  0  2.306138  0
O  O195  1  0.24753673  0.80093810  0.13618593  1  -1.201166  0  -0.371208  -0.634635  0  2.30655  0
O  O196  1  0.45170730  0.86384906  0.30081457  1  -1.20648  0  -0.371597  -0.634935  0  2.306011  0
O  O197  1  0.61624395  0.63610248  0.19912124  1  -1.195059  0  -0.369646  -0.632684  0  2.303867  0
O  O198  1  0.81550348  0.30099927  0.63619177  1  -1.198198  0  -0.371958  -0.63532  0  2.306449  0
O  O199  1  0.75246780  0.19906009  0.86381929  1  -1.200991  0  -0.371262  -0.634731  0  2.306793  0
O  O200  1  0.84779966  0.79217647  0.08910589  1  -1.182558  0  -0.390936  -0.678115  0  2.260413  0
O  O201  1  0.72925088  0.70777231  0.41073225  1  -1.192004  0  -0.391222  -0.677766  0  2.262433  0
O  O202  1  0.13959893  0.08923889  0.70772088  1  -1.202808  0  -0.390966  -0.678028  0  2.26196  0
O  O203  1  0.93718309  0.41078337  0.79223178  1  -1.19121  0  -0.391398  -0.6791  0  2.262885  0
O  O204  1  0.15219473  0.20782219  0.91089560  1  -1.182607  0  -0.390858  -0.678022  0  2.260447  0
O  O205  1  0.27074370  0.29223242  0.58926850  1  -1.191906  0  -0.391235  -0.677754  0  2.262512  0
O  O206  1  0.86039084  0.91076210  0.29227788  1  -1.202299  0  -0.391018  -0.677951  0  2.262143  0
O  O207  1  0.06281014  0.58921669  0.20776523  1  -1.191129  0  -0.391285  -0.67903  0  2.263044  0
O  O208  1  0.90446686  0.87692463  0.13221250  1  -1.200362  0  -0.391664  -0.658302  0  2.262603  0
O  O209  1  0.91378453  0.62299807  0.36778116  1  -1.203545  0  -0.391618  -0.65889  0  2.260325  0
O  O210  1  0.28152078  0.13222492  0.62304882  1  -1.199461  0  -0.390239  -0.657778  0  2.262009  0
O  O211  1  0.03706532  0.36783686  0.87697616  1  -1.206481  0  -0.391204  -0.659059  0  2.262875  0
O  O212  1  0.09553121  0.12307404  0.86778780  1  -1.200388  0  -0.391576  -0.658195  0  2.262648  0
O  O213  1  0.08621051  0.37700666  0.63221913  1  -1.20276  0  -0.391677  -0.659056  0  2.260173  0
O  O214  1  0.71847016  0.86777421  0.37695094  1  -1.199316  0  -0.390163  -0.657684  0  2.261794  0
O  O215  1  0.96293503  0.63216601  0.12302102  1  -1.206593  0  -0.391218  -0.659049  0  2.262475  0
O  O216  1  0.96817238  0.27092834  0.80877442  1  -1.258498  0  -0.81074  -1.11533  0  2.173794  0
O  O217  1  0.04792045  0.22910697  0.69125568  1  -1.266088  0  -0.811511  -1.114104  0  2.175131  0
O  O218  1  0.73917944  0.80875707  0.22909137  1  -1.257936  0  -0.811476  -1.114615  0  2.175282  0
O  O219  1  0.77684562  0.69122623  0.27089887  1  -1.249661  0  -0.811912  -1.116847  0  2.174786  0
O  O220  1  0.03183121  0.72907125  0.19122486  1  -1.258411  0  -0.810722  -1.115369  0  2.173784  0
O  O221  1  0.95207923  0.77089310  0.30874479  1  -1.266138  0  -0.811553  -1.11411  0  2.175113  0
O  O222  1  0.26081724  0.19124440  0.77090892  1  -1.258057  0  -0.811437  -1.11462  0  2.175229  0
O  O223  1  0.22315474  0.30877477  0.72910169  1  -1.249613  0  -0.811932  -1.116967  0  2.174777  0
