# generated using pymatgen
data_ZnH12(C2O)4
_symmetry_space_group_name_H-M   'P 1'
_cell_length_a   4.76399572
_cell_length_b   9.34984688
_cell_length_c   21.20832957
_cell_angle_alpha   93.71963237
_cell_angle_beta   89.99972070
_cell_angle_gamma   89.99880535
_symmetry_Int_Tables_number   1
_chemical_formula_structural   ZnH12(C2O)4
_chemical_formula_sum   'Zn4 H48 C32 O16'
_cell_volume   942.68477990
_cell_formula_units_Z   4
loop_
 _symmetry_equiv_pos_site_id
 _symmetry_equiv_pos_as_xyz
  1  'x, y, z'
loop_
 _atom_site_type_symbol
 _atom_site_label
 _atom_site_symmetry_multiplicity
 _atom_site_fract_x
 _atom_site_fract_y
 _atom_site_fract_z
 _atom_site_occupancy
 _atom_site_hle17_bader_spin_density
 _atom_site_hle17_ddec_charge
 _atom_site_hle17_ddec_spin_density
 _atom_site_hle17_ddec_sum_bond_order
 _atom_site_hle17_magmom
 _atom_site_hse06_10hf_bader_spin_density
 _atom_site_hse06_10hf_ddec_charge
 _atom_site_hse06_10hf_ddec_spin_density
 _atom_site_hse06_10hf_ddec_sum_bond_order
 _atom_site_hse06_10hf_magmom
 _atom_site_hse06_bader_spin_density
 _atom_site_hse06_ddec_charge
 _atom_site_hse06_ddec_spin_density
 _atom_site_hse06_ddec_sum_bond_order
 _atom_site_hse06_magmom
 _atom_site_pbe_bader_spin_density
 _atom_site_pbe_cm5_charge
 _atom_site_pbe_ddec_charge
 _atom_site_pbe_ddec_spin_density
 _atom_site_pbe_ddec_sum_bond_order
 _atom_site_pbe_magmom
Zn  Zn0  1  0.54010208  0.17790209  0.73782003  1  0  1.164999  0  1.736833  0  0  0.991973  0  2.220344  0  0  1.042434  0  2.155672  0  0  0.696109  0.955776  0  2.26548  0
Zn  Zn1  1  0.54008336  0.32209413  0.26218114  1  0  1.165141  0  1.736838  0  0  0.992101  0  2.220403  0  0  1.042564  0  2.155716  0  0  0.696145  0.955905  0  2.265548  0
Zn  Zn2  1  0.45990511  0.82209582  0.26218268  1  0  1.165132  0  1.736803  0  0  0.992125  0  2.22036  0  0  1.042582  0  2.155681  0  0  0.696167  0.955927  0  2.265501  0
Zn  Zn3  1  0.45991333  0.67791122  0.73781611  1  0  1.165149  0  1.736974  0  0  0.992122  0  2.220598  0  0  1.042574  0  2.155915  0  0  0.696161  0.955933  0  2.265741  0
H  H4  1  0.92191291  0.07038690  0.83935140  1  0  0.117665  0  0.914043  0  0  0.136062  0  0.967695  0  0  0.138254  0  0.967049  0  0  0.108136  0.134503  0  0.968123  0
H  H5  1  0.92190881  0.42959229  0.16064466  1  0  0.117739  0  0.913993  0  0  0.136105  0  0.967677  0  0  0.138299  0  0.967033  0  0  0.108156  0.134543  0  0.968105  0
H  H6  1  0.07809847  0.92960668  0.16064696  1  0  0.117742  0  0.913998  0  0  0.136093  0  0.96767  0  0  0.138287  0  0.967026  0  0  0.108123  0.134535  0  0.9681  0
H  H7  1  0.07808788  0.57041203  0.83935586  1  0  0.117725  0  0.91401  0  0  0.136108  0  0.967684  0  0  0.138304  0  0.967036  0  0  0.108139  0.134549  0  0.968112  0
H  H8  1  0.59500772  0.10172288  0.87520205  1  0  0.113546  0  0.939495  0  0  0.127717  0  1.001226  0  0  0.130235  0  1.000091  0  0  0.103572  0.1257  0  1.002434  0
H  H9  1  0.59500149  0.39826842  0.12479469  1  0  0.113587  0  0.939554  0  0  0.127786  0  1.00122  0  0  0.130313  0  1.000074  0  0  0.103614  0.125767  0  1.00243  0
H  H10  1  0.40499737  0.89827068  0.12479489  1  0  0.113579  0  0.939463  0  0  0.127751  0  1.001145  0  0  0.130276  0  1.000007  0  0  0.103573  0.125736  0  1.002355  0
H  H11  1  0.40498890  0.60173806  0.87520731  1  0  0.113615  0  0.939483  0  0  0.127821  0  1.001167  0  0  0.130347  0  1.000019  0  0  0.103583  0.125804  0  1.002377  0
H  H12  1  0.66569030  0.87310402  0.93490918  1  0  0.057505  0  0.93606  0  0  0.075274  0  0.999893  0  0  0.076235  0  0.99969  0  0  0.086145  0.074469  0  1.000398  0
H  H13  1  0.66568812  0.62688902  0.06509137  1  0  0.057533  0  0.936092  0  0  0.07535  0  0.99984  0  0  0.076315  0  0.999645  0  0  0.086162  0.07453  0  1.000363  0
H  H14  1  0.33430219  0.12689708  0.06509173  1  0  0.057525  0  0.936087  0  0  0.07523  0  0.999988  0  0  0.076195  0  0.999782  0  0  0.086148  0.074434  0  1.000477  0
H  H15  1  0.33431696  0.37310452  0.93490416  1  0  0.057507  0  0.936077  0  0  0.075281  0  0.999878  0  0  0.076244  0  0.999673  0  0  0.086149  0.074483  0  1.000379  0
H  H16  1  0.00603880  0.85880627  0.90301889  1  0  0.066047  0  0.92661  0  0  0.086906  0  0.983685  0  0  0.087375  0  0.984754  0  0  0.090342  0.086444  0  0.983236  0
H  H17  1  0.00603113  0.64117567  0.09698069  1  0  0.066013  0  0.926602  0  0  0.086805  0  0.983744  0  0  0.087315  0  0.984771  0  0  0.090332  0.086343  0  0.983292  0
H  H18  1  0.99395999  0.14118518  0.09698177  1  0  0.065998  0  0.926685  0  0  0.08685  0  0.983768  0  0  0.087317  0  0.984846  0  0  0.090322  0.086392  0  0.983316  0
H  H19  1  0.99396975  0.35881786  0.90301389  1  0  0.066018  0  0.926581  0  0  0.08685  0  0.983684  0  0  0.087317  0  0.98476  0  0  0.090324  0.086393  0  0.98323  0
H  H20  1  0.78095308  0.11465262  0.98657118  1  0  0.052631  0  0.939589  0  0  0.071334  0  1.002605  0  0  0.071887  0  1.003068  0  0  0.084226  0.070517  0  1.003213  0
H  H21  1  0.78095823  0.38533990  0.01342727  1  0  0.052692  0  0.939479  0  0  0.071403  0  1.002508  0  0  0.071961  0  1.002967  0  0  0.084232  0.070579  0  1.003126  0
H  H22  1  0.21904991  0.88534526  0.01342917  1  0  0.052678  0  0.939566  0  0  0.07137  0  1.002613  0  0  0.071923  0  1.003072  0  0  0.084228  0.070549  0  1.003223  0
H  H23  1  0.21903636  0.61464620  0.98657372  1  0  0.05259  0  0.939573  0  0  0.07128  0  1.002648  0  0  0.071832  0  1.003122  0  0  0.084231  0.070467  0  1.003248  0
H  H24  1  0.12095934  0.10478853  0.95412861  1  0  0.059157  0  0.932872  0  0  0.08075  0  0.989992  0  0  0.080986  0  0.991317  0  0  0.087311  0.080343  0  0.989555  0
H  H25  1  0.12096337  0.39519932  0.04586998  1  0  0.059128  0  0.932836  0  0  0.080769  0  0.989939  0  0  0.080984  0  0.991297  0  0  0.087302  0.080405  0  0.989445  0
H  H26  1  0.87903735  0.89520827  0.04587125  1  0  0.059133  0  0.932809  0  0  0.080754  0  0.98992  0  0  0.080989  0  0.991243  0  0  0.08731  0.080348  0  0.989479  0
H  H27  1  0.87903122  0.60479000  0.95413109  1  0  0.059142  0  0.932918  0  0  0.080745  0  0.990049  0  0  0.081014  0  0.991337  0  0  0.087316  0.080341  0  0.989601  0
H  H28  1  0.75384916  0.25047147  0.59898809  1  0  0.110633  0  0.938736  0  0  0.125431  0  1.001971  0  0  0.127784  0  1.000865  0  0  0.104217  0.123675  0  1.003172  0
H  H29  1  0.75382617  0.24953100  0.40101207  1  0  0.110645  0  0.938708  0  0  0.12544  0  1.001953  0  0  0.12781  0  1.000827  0  0  0.104243  0.123677  0  1.003157  0
H  H30  1  0.24614963  0.74952645  0.40101557  1  0  0.110598  0  0.938918  0  0  0.125414  0  1.002105  0  0  0.127769  0  1.000999  0  0  0.104211  0.12368  0  1.00327  0
H  H31  1  0.24616003  0.75047004  0.59898365  1  0  0.110602  0  0.938808  0  0  0.125423  0  1.002002  0  0  0.127775  0  1.000897  0  0  0.104205  0.123666  0  1.003202  0
H  H32  1  0.77746849  0.40344973  0.64985156  1  0  0.11644  0  0.9281  0  0  0.132316  0  0.987399  0  0  0.134624  0  0.986641  0  0  0.105096  0.130789  0  0.987864  0
H  H33  1  0.77744239  0.09654501  0.35015026  1  0  0.116472  0  0.927952  0  0  0.132395  0  0.987228  0  0  0.134679  0  0.986499  0  0  0.105132  0.130884  0  0.987674  0
H  H34  1  0.22253450  0.59654820  0.35015304  1  0  0.116444  0  0.928114  0  0  0.132341  0  0.987401  0  0  0.134626  0  0.986668  0  0  0.105103  0.130809  0  0.98787  0
H  H35  1  0.22256899  0.90345818  0.64984599  1  0  0.116454  0  0.927999  0  0  0.132357  0  0.987292  0  0  0.134638  0  0.986565  0  0  0.105114  0.130838  0  0.987744  0
H  H36  1  0.22793939  0.47463250  0.59879544  1  0  0.063117  0  0.928424  0  0  0.084174  0  0.985878  0  0  0.084604  0  0.986782  0  0  0.088832  0.083852  0  0.985355  0
H  H37  1  0.22792139  0.02536066  0.40120553  1  0  0.063137  0  0.928335  0  0  0.08419  0  0.985811  0  0  0.084619  0  0.986716  0  0  0.088839  0.083866  0  0.985288  0
H  H38  1  0.77206570  0.52535899  0.40120805  1  0  0.063151  0  0.928282  0  0  0.084213  0  0.985747  0  0  0.084647  0  0.98665  0  0  0.088831  0.083889  0  0.985224  0
H  H39  1  0.77206901  0.97464685  0.59879366  1  0  0.06314  0  0.928302  0  0  0.084221  0  0.985741  0  0  0.08465  0  0.986651  0  0  0.08885  0.083898  0  0.985217  0
H  H40  1  0.22879753  0.31449903  0.55079040  1  0  0.058863  0  0.945339  0  0  0.076584  0  1.010331  0  0  0.077531  0  1.010222  0  0  0.087181  0.075784  0  1.010771  0
H  H41  1  0.22877820  0.18549945  0.44920835  1  0  0.058779  0  0.945403  0  0  0.076537  0  1.010357  0  0  0.077485  0  1.010247  0  0  0.087193  0.075735  0  1.010798  0
H  H42  1  0.77120126  0.68549355  0.44921406  1  0  0.058815  0  0.945347  0  0  0.076531  0  1.010358  0  0  0.077482  0  1.010251  0  0  0.087177  0.07573  0  1.010799  0
H  H43  1  0.77122269  0.81451018  0.55078902  1  0  0.058772  0  0.945451  0  0  0.076516  0  1.010409  0  0  0.077467  0  1.010303  0  0  0.087172  0.075713  0  1.010852  0
H  H44  1  0.77358126  0.54741249  0.54867998  1  0  0.061866  0  0.94004  0  0  0.081187  0  1.002112  0  0  0.081752  0  1.003074  0  0  0.085557  0.080749  0  1.001621  0
H  H45  1  0.77356982  0.95258587  0.45132437  1  0  0.061865  0  0.940149  0  0  0.081197  0  1.002188  0  0  0.08176  0  1.003157  0  0  0.085574  0.080758  0  1.001693  0
H  H46  1  0.22642173  0.45258544  0.45132415  1  0  0.061871  0  0.940092  0  0  0.0812  0  1.002153  0  0  0.081765  0  1.003119  0  0  0.085569  0.08076  0  1.001661  0
H  H47  1  0.22642267  0.04742595  0.54867636  1  0  0.061893  0  0.940037  0  0  0.081228  0  1.0021  0  0  0.081791  0  1.003067  0  0  0.085606  0.080789  0  1.001606  0
H  H48  1  0.77037771  0.38514278  0.50188894  1  0  0.053113  0  0.943469  0  0  0.073984  0  1.00529  0  0  0.07435  0  1.006053  0  0  0.084725  0.073628  0  1.005116  0
H  H49  1  0.77035810  0.11486599  0.49811420  1  0  0.053154  0  0.943492  0  0  0.074044  0  1.005302  0  0  0.074413  0  1.006059  0  0  0.084775  0.073683  0  1.005131  0
H  H50  1  0.22963578  0.61485408  0.49811469  1  0  0.053147  0  0.943474  0  0  0.074027  0  1.005312  0  0  0.074396  0  1.006071  0  0  0.084737  0.073669  0  1.005133  0
H  H51  1  0.22964069  0.88515227  0.50188717  1  0  0.053105  0  0.943415  0  0  0.073966  0  1.005277  0  0  0.074337  0  1.006036  0  0  0.084697  0.073603  0  1.0051  0
C  C52  1  0.60719777  0.92192437  0.80926438  1  0  0.72844  0  3.791678  0  0  0.681151  0  4.080105  0  0  0.715841  0  4.073475  0  0  0.223766  0.657414  0  4.083743  0
C  C53  1  0.60720112  0.57806929  0.19073390  1  0  0.728486  0  3.791612  0  0  0.681305  0  4.079899  0  0  0.715992  0  4.073265  0  0  0.223798  0.657561  0  4.083541  0
C  C54  1  0.39280522  0.07807563  0.19073367  1  0  0.728606  0  3.791543  0  0  0.681284  0  4.079972  0  0  0.715975  0  4.073338  0  0  0.223843  0.657547  0  4.083615  0
C  C55  1  0.39280186  0.42193610  0.80926666  1  0  0.728462  0  3.791617  0  0  0.681288  0  4.079899  0  0  0.715971  0  4.073268  0  0  0.223802  0.657546  0  4.08354  0
C  C56  1  0.74457527  0.01557014  0.86105323  1  0  -0.287823  0  3.687975  0  0  -0.323206  0  3.935719  0  0  -0.329987  0  3.944447  0  0  -0.164681  -0.318181  0  3.929173  0
C  C57  1  0.74456939  0.48441634  0.13894463  1  0  -0.287922  0  3.688205  0  0  -0.323349  0  3.935926  0  0  -0.330133  0  3.944666  0  0  -0.164756  -0.318316  0  3.929373  0
C  C58  1  0.25543612  0.98442560  0.13894659  1  0  -0.288021  0  3.688151  0  0  -0.323307  0  3.935763  0  0  -0.330095  0  3.944502  0  0  -0.164685  -0.318298  0  3.92924  0
C  C59  1  0.25542939  0.51558582  0.86105490  1  0  -0.288039  0  3.688162  0  0  -0.323511  0  3.935898  0  0  -0.330286  0  3.944616  0  0  -0.164713  -0.318485  0  3.929363  0
C  C60  1  0.84144501  0.93664678  0.91781482  1  0  -0.073883  0  3.711484  0  0  -0.118455  0  3.978013  0  0  -0.118318  0  3.992321  0  0  -0.167776  -0.118169  0  3.967371  0
C  C61  1  0.84143247  0.56334117  0.08218682  1  0  -0.07387  0  3.71156  0  0  -0.118387  0  3.978012  0  0  -0.118285  0  3.992361  0  0  -0.167746  -0.118104  0  3.967376  0
C  C62  1  0.15855797  0.06334790  0.08218639  1  0  -0.073806  0  3.71169  0  0  -0.118331  0  3.978125  0  0  -0.118203  0  3.992448  0  0  -0.167753  -0.118046  0  3.967487  0
C  C63  1  0.15856422  0.43665348  0.91781251  1  0  -0.073796  0  3.711436  0  0  -0.11827  0  3.977892  0  0  -0.11814  0  3.992223  0  0  -0.167736  -0.118001  0  3.967253  0
C  C64  1  0.94917704  0.03866378  0.97152123  1  0  -0.107163  0  3.70522  0  0  -0.146375  0  3.969549  0  0  -0.147644  0  3.985395  0  0  -0.166216  -0.145055  0  3.958268  0
C  C65  1  0.94918294  0.46132265  0.02847829  1  0  -0.107266  0  3.705027  0  0  -0.146545  0  3.969422  0  0  -0.147815  0  3.985314  0  0  -0.166262  -0.145239  0  3.95813  0
C  C66  1  0.05082175  0.96133088  0.02847904  1  0  -0.107252  0  3.705136  0  0  -0.146518  0  3.969485  0  0  -0.147771  0  3.985318  0  0  -0.166267  -0.145191  0  3.958195  0
C  C67  1  0.05081375  0.53866345  0.97152176  1  0  -0.107142  0  3.705203  0  0  -0.146435  0  3.9696  0  0  -0.14772  0  3.985474  0  0  -0.166286  -0.145115  0  3.958328  0
C  C68  1  0.06541596  0.24102394  0.66983568  1  0  0.736098  0  3.783812  0  0  0.687491  0  4.075543  0  0  0.722544  0  4.068203  0  0  0.227388  0.663568  0  4.079779  0
C  C69  1  0.06538575  0.25896775  0.33016496  1  0  0.736605  0  3.782857  0  0  0.687711  0  4.075032  0  0  0.722761  0  4.067682  0  0  0.22749  0.663785  0  4.079276  0
C  C70  1  0.93459332  0.75897399  0.33016845  1  0  0.736265  0  3.783479  0  0  0.687569  0  4.075338  0  0  0.72262  0  4.067992  0  0  0.227473  0.66364  0  4.079582  0
C  C71  1  0.93460255  0.74104405  0.66983435  1  0  0.736464  0  3.783197  0  0  0.687709  0  4.075137  0  0  0.722757  0  4.067789  0  0  0.227547  0.663783  0  4.079381  0
C  C72  1  0.90724383  0.32399115  0.62260538  1  0  -0.285709  0  3.687062  0  0  -0.323331  0  3.933833  0  0  -0.330361  0  3.943288  0  0  -0.166386  -0.318637  0  3.927437  0
C  C73  1  0.90721808  0.17600433  0.37739584  1  0  -0.285998  0  3.68691  0  0  -0.323556  0  3.933818  0  0  -0.330579  0  3.943272  0  0  -0.166509  -0.318856  0  3.927382  0
C  C74  1  0.09275915  0.67600891  0.37739786  1  0  -0.285761  0  3.687227  0  0  -0.323341  0  3.933976  0  0  -0.330357  0  3.943449  0  0  -0.166394  -0.318642  0  3.927535  0
C  C75  1  0.09278071  0.82399996  0.62260232  1  0  -0.285836  0  3.687051  0  0  -0.323419  0  3.933877  0  0  -0.33043  0  3.943352  0  0  -0.166404  -0.31872  0  3.927452  0
C  C76  1  0.08878920  0.39486115  0.57437783  1  0  -0.07294  0  3.697515  0  0  -0.114868  0  3.95797  0  0  -0.114769  0  3.972464  0  0  -0.166973  -0.114699  0  3.947802  0
C  C77  1  0.08877578  0.10513565  0.42562339  1  0  -0.072682  0  3.697388  0  0  -0.114644  0  3.957883  0  0  -0.114542  0  3.972376  0  0  -0.166921  -0.114491  0  3.947734  0
C  C78  1  0.91121589  0.60513569  0.42562486  1  0  -0.072803  0  3.697387  0  0  -0.114751  0  3.957896  0  0  -0.114664  0  3.972404  0  0  -0.166935  -0.1146  0  3.947749  0
C  C79  1  0.91122301  0.89487080  0.57437672  1  0  -0.072765  0  3.697322  0  0  -0.114714  0  3.957793  0  0  -0.114627  0  3.972306  0  0  -0.166931  -0.114562  0  3.94764  0
C  C80  1  0.91189985  0.46586300  0.52507542  1  0  -0.108816  0  3.690703  0  0  -0.14869  0  3.952741  0  0  -0.150136  0  3.968617  0  0  -0.168152  -0.147529  0  3.941525  0
C  C81  1  0.91188617  0.03413992  0.47492552  1  0  -0.109034  0  3.690943  0  0  -0.14891  0  3.952984  0  0  -0.150364  0  3.968884  0  0  -0.168244  -0.147741  0  3.94175  0
C  C82  1  0.08810733  0.53413703  0.47492594  1  0  -0.108958  0  3.690813  0  0  -0.148876  0  3.952894  0  0  -0.150327  0  3.968786  0  0  -0.168186  -0.147702  0  3.941667  0
C  C83  1  0.08810423  0.96587297  0.52507523  1  0  -0.108851  0  3.690579  0  0  -0.148795  0  3.952717  0  0  -0.150232  0  3.968576  0  0  -0.168192  -0.147612  0  3.94147  0
O  O84  1  0.51615390  0.97544223  0.75916660  1  0  -0.667207  0  2.056958  0  0  -0.59674  0  2.335766  0  0  -0.625822  0  2.317573  0  0  -0.320294  -0.57609  0  2.347467  0
O  O85  1  0.51615625  0.52455026  0.24083127  1  0  -0.667262  0  2.057053  0  0  -0.596785  0  2.335758  0  0  -0.625882  0  2.317603  0  0  -0.32029  -0.576138  0  2.347465  0
O  O86  1  0.48384909  0.02455455  0.24083137  1  0  -0.667228  0  2.05696  0  0  -0.596766  0  2.335762  0  0  -0.625858  0  2.317594  0  0  -0.320269  -0.576116  0  2.347465  0
O  O87  1  0.48384254  0.47546048  0.75916848  1  0  -0.667322  0  2.057049  0  0  -0.596842  0  2.335723  0  0  -0.625955  0  2.317605  0  0  -0.320396  -0.576194  0  2.34743  0
O  O88  1  0.58452829  0.78788873  0.81631166  1  0  -0.639277  0  2.046835  0  0  -0.566547  0  2.313432  0  0  -0.596418  0  2.299038  0  0  -0.30836  -0.545764  0  2.323147  0
O  O89  1  0.58454100  0.71210300  0.18368471  1  0  -0.639286  0  2.046508  0  0  -0.566657  0  2.313115  0  0  -0.596529  0  2.298723  0  0  -0.308407  -0.545865  0  2.322825  0
O  O90  1  0.41546630  0.21210692  0.18368157  1  0  -0.639394  0  2.046535  0  0  -0.566649  0  2.313129  0  0  -0.596513  0  2.298728  0  0  -0.30846  -0.545859  0  2.322841  0
O  O91  1  0.41547038  0.28790884  0.81631790  1  0  -0.639168  0  2.046485  0  0  -0.566537  0  2.313076  0  0  -0.596403  0  2.298681  0  0  -0.308345  -0.545744  0  2.322784  0
O  O92  1  0.94188445  0.19375938  0.71774820  1  0  -0.67118  0  2.0602  0  0  -0.603611  0  2.344386  0  0  -0.632568  0  2.326061  0  0  -0.324528  -0.58337  0  2.356334  0
O  O93  1  0.94186384  0.30622282  0.28224934  1  0  -0.671388  0  2.059866  0  0  -0.603659  0  2.344108  0  0  -0.63265  0  2.325865  0  0  -0.324582  -0.583414  0  2.356051  0
O  O94  1  0.05812274  0.80623533  0.28225538  1  0  -0.671245  0  2.060056  0  0  -0.603659  0  2.344319  0  0  -0.632617  0  2.326004  0  0  -0.324564  -0.583414  0  2.35626  0
O  O95  1  0.05812445  0.69378466  0.71774750  1  0  -0.671362  0  2.059952  0  0  -0.603791  0  2.34427  0  0  -0.632766  0  2.325995  0  0  -0.324668  -0.583548  0  2.356214  0
O  O96  1  0.32817070  0.22043900  0.66128917  1  0  -0.646162  0  2.062638  0  0  -0.570505  0  2.336977  0  0  -0.600388  0  2.321875  0  0  -0.30924  -0.54972  0  2.346769  0
O  O97  1  0.32813106  0.27955844  0.33871132  1  0  -0.646322  0  2.062248  0  0  -0.570646  0  2.336812  0  0  -0.600526  0  2.321707  0  0  -0.309257  -0.549862  0  2.346614  0
O  O98  1  0.67183648  0.77955998  0.33871310  1  0  -0.64623  0  2.062462  0  0  -0.570594  0  2.336899  0  0  -0.600466  0  2.32179  0  0  -0.309288  -0.54981  0  2.346698  0
O  O99  1  0.67185304  0.72045334  0.66128563  1  0  -0.646248  0  2.062328  0  0  -0.570566  0  2.336754  0  0  -0.600429  0  2.321639  0  0  -0.309254  -0.549781  0  2.346551  0
