# generated using pymatgen
data_ZnH9C8NO7
_symmetry_space_group_name_H-M   'P 1'
_cell_length_a   9.12113826
_cell_length_b   10.03881305
_cell_length_c   11.23449939
_cell_angle_alpha   90.00069984
_cell_angle_beta   110.20354788
_cell_angle_gamma   89.99976836
_symmetry_Int_Tables_number   1
_chemical_formula_structural   ZnH9C8NO7
_chemical_formula_sum   'Zn4 H36 C32 N4 O28'
_cell_volume   965.39775103
_cell_formula_units_Z   4
loop_
 _symmetry_equiv_pos_site_id
 _symmetry_equiv_pos_as_xyz
  1  'x, y, z'
loop_
 _atom_site_type_symbol
 _atom_site_label
 _atom_site_symmetry_multiplicity
 _atom_site_fract_x
 _atom_site_fract_y
 _atom_site_fract_z
 _atom_site_occupancy
 _atom_site_hle17_bader_spin_density
 _atom_site_hle17_ddec_charge
 _atom_site_hle17_ddec_spin_density
 _atom_site_hle17_ddec_sum_bond_order
 _atom_site_hle17_magmom
 _atom_site_hse06_10hf_bader_spin_density
 _atom_site_hse06_10hf_ddec_charge
 _atom_site_hse06_10hf_ddec_spin_density
 _atom_site_hse06_10hf_ddec_sum_bond_order
 _atom_site_hse06_10hf_magmom
 _atom_site_hse06_bader_spin_density
 _atom_site_hse06_ddec_charge
 _atom_site_hse06_ddec_spin_density
 _atom_site_hse06_ddec_sum_bond_order
 _atom_site_hse06_magmom
 _atom_site_pbe_bader_spin_density
 _atom_site_pbe_cm5_charge
 _atom_site_pbe_ddec_charge
 _atom_site_pbe_ddec_spin_density
 _atom_site_pbe_ddec_sum_bond_order
 _atom_site_pbe_magmom
Zn  Zn0  1  0.37506900  0.10706037  0.52608700  1  0  1.196775  0  1.681947  0  0  1.038432  0  2.123698  0  0  1.086789  0  2.063157  0  0  0.672687  1.004304  0  2.165435  0
Zn  Zn1  1  0.62493285  0.60705933  0.97391582  1  0  1.196787  0  1.68195  0  0  1.03843  0  2.123662  0  0  1.08676  0  2.063176  0  0  0.672704  1.004309  0  2.165398  0
Zn  Zn2  1  0.62493116  0.89294229  0.47391247  1  0  1.196799  0  1.681909  0  0  1.038437  0  2.123664  0  0  1.086796  0  2.063126  0  0  0.672686  1.004317  0  2.165406  0
Zn  Zn3  1  0.37507082  0.39294134  0.02608467  1  0  1.196828  0  1.681935  0  0  1.038484  0  2.12368  0  0  1.086836  0  2.063162  0  0  0.672714  1.004363  0  2.165419  0
H  H4  1  0.46780752  0.26411489  0.71036299  1  0  0.416394  0  0.891767  0  0  0.383023  0  0.959809  0  0  0.394417  0  0.943331  0  0  0.291042  0.374881  0  0.971609  0
H  H5  1  0.53219087  0.76411167  0.78964053  1  0  0.416405  0  0.891754  0  0  0.383016  0  0.959827  0  0  0.394403  0  0.94336  0  0  0.291042  0.374876  0  0.971624  0
H  H6  1  0.53219150  0.73588877  0.28963437  1  0  0.416355  0  0.891819  0  0  0.38298  0  0.959872  0  0  0.394376  0  0.943393  0  0  0.291001  0.374841  0  0.971667  0
H  H7  1  0.46780804  0.23588900  0.21036213  1  0  0.416412  0  0.891748  0  0  0.383038  0  0.959798  0  0  0.394432  0  0.943321  0  0  0.291049  0.374898  0  0.971595  0
H  H8  1  0.29750701  0.21874930  0.71196288  1  0  0.43569  0  0.861098  0  0  0.404303  0  0.924509  0  0  0.415476  0  0.908416  0  0  0.291805  0.396289  0  0.93598  0
H  H9  1  0.70248687  0.71874442  0.78802993  1  0  0.435717  0  0.861056  0  0  0.404332  0  0.924456  0  0  0.415503  0  0.908367  0  0  0.291807  0.39632  0  0.935925  0
H  H10  1  0.70249086  0.78125436  0.28803325  1  0  0.435655  0  0.861143  0  0  0.404276  0  0.924534  0  0  0.415446  0  0.908447  0  0  0.291807  0.396263  0  0.936005  0
H  H11  1  0.29751330  0.28125227  0.21196866  1  0  0.435647  0  0.861151  0  0  0.404272  0  0.924543  0  0  0.415444  0  0.908454  0  0  0.29177  0.39626  0  0.936012  0
H  H12  1  0.29912788  0.92925230  0.66603554  1  0  0.432109  0  0.863019  0  0  0.401711  0  0.924563  0  0  0.412598  0  0.90892  0  0  0.295003  0.394059  0  0.935497  0
H  H13  1  0.70087418  0.42925135  0.83396551  1  0  0.432177  0  0.862946  0  0  0.401735  0  0.924532  0  0  0.412628  0  0.908883  0  0  0.295014  0.39408  0  0.93547  0
H  H14  1  0.70087460  0.07074837  0.33396550  1  0  0.432138  0  0.862992  0  0  0.401699  0  0.924573  0  0  0.41259  0  0.908927  0  0  0.294991  0.394047  0  0.935506  0
H  H15  1  0.29912599  0.57074733  0.16603307  1  0  0.432104  0  0.863041  0  0  0.401703  0  0.924565  0  0  0.412595  0  0.908917  0  0  0.295014  0.394053  0  0.935496  0
H  H16  1  0.32816420  0.86297669  0.55121459  1  0  0.411977  0  0.891153  0  0  0.379401  0  0.966563  0  0  0.389719  0  0.951696  0  0  0.290522  0.372145  0  0.977  0
H  H17  1  0.67183430  0.36297842  0.94878648  1  0  0.411984  0  0.891153  0  0  0.3794  0  0.966565  0  0  0.389718  0  0.951696  0  0  0.290505  0.372142  0  0.977004  0
H  H18  1  0.67183709  0.13702398  0.44878699  1  0  0.41197  0  0.891176  0  0  0.379413  0  0.966548  0  0  0.389724  0  0.95169  0  0  0.290514  0.372154  0  0.976988  0
H  H19  1  0.32816467  0.63702026  0.05121353  1  0  0.41198  0  0.891152  0  0  0.379399  0  0.966567  0  0  0.38971  0  0.95171  0  0  0.290525  0.372142  0  0.977005  0
H  H20  1  0.99901867  0.29639737  0.53408135  1  0  0.129019  0  0.970005  0  0  0.130723  0  1.043625  0  0  0.135551  0  1.038516  0  0  0.12769  0.127093  0  1.047429  0
H  H21  1  0.00097971  0.79639459  0.96592341  1  0  0.129007  0  0.970067  0  0  0.13076  0  1.043648  0  0  0.135588  0  1.038538  0  0  0.127694  0.12713  0  1.047453  0
H  H22  1  0.00097566  0.70360131  0.46591553  1  0  0.128995  0  0.970062  0  0  0.130706  0  1.043684  0  0  0.135532  0  1.038581  0  0  0.127705  0.127077  0  1.047487  0
H  H23  1  0.99902036  0.20360409  0.03408048  1  0  0.128976  0  0.970042  0  0  0.130727  0  1.043639  0  0  0.135557  0  1.038529  0  0  0.12768  0.127098  0  1.047444  0
H  H24  1  0.88293410  0.40261062  0.13869392  1  0  0.139192  0  0.939415  0  0  0.149659  0  0.998692  0  0  0.154007  0  0.994705  0  0  0.116841  0.146504  0  1.001662  0
H  H25  1  0.11707354  0.90260597  0.36131388  1  0  0.139145  0  0.939429  0  0  0.149603  0  0.998715  0  0  0.15395  0  0.994729  0  0  0.116838  0.146448  0  1.001679  0
H  H26  1  0.11706721  0.59739602  0.86130678  1  0  0.139178  0  0.93942  0  0  0.149661  0  0.998694  0  0  0.154011  0  0.994705  0  0  0.116859  0.146509  0  1.001658  0
H  H27  1  0.88293125  0.09739370  0.63868872  1  0  0.139172  0  0.939416  0  0  0.149622  0  0.998712  0  0  0.153969  0  0.994726  0  0  0.116841  0.146469  0  1.001675  0
H  H28  1  0.58548535  0.50571150  0.35319290  1  0  0.129324  0  0.967378  0  0  0.133161  0  1.031921  0  0  0.137497  0  1.028076  0  0  0.129614  0.129946  0  1.03509  0
H  H29  1  0.41451397  0.00570807  0.14680815  1  0  0.129349  0  0.967379  0  0  0.133226  0  1.031906  0  0  0.137563  0  1.028059  0  0  0.129631  0.130008  0  1.035073  0
H  H30  1  0.41451134  0.49429216  0.64680377  1  0  0.12933  0  0.967309  0  0  0.133203  0  1.031837  0  0  0.137538  0  1.027987  0  0  0.129619  0.129982  0  1.035008  0
H  H31  1  0.58548149  0.99429360  0.85319084  1  0  0.129325  0  0.967344  0  0  0.133202  0  1.031876  0  0  0.137532  0  1.028035  0  0  0.129623  0.129982  0  1.035042  0
H  H32  1  0.74101746  0.52411035  0.58034088  1  0  0.128544  0  0.924568  0  0  0.140585  0  0.983141  0  0  0.142979  0  0.981788  0  0  0.126942  0.139044  0  0.98396  0
H  H33  1  0.25898082  0.02409930  0.91966177  1  0  0.128688  0  0.924566  0  0  0.140656  0  0.983186  0  0  0.143054  0  0.981834  0  0  0.126975  0.139119  0  0.984004  0
H  H34  1  0.25898388  0.47589131  0.41965804  1  0  0.128591  0  0.924524  0  0  0.140615  0  0.9831  0  0  0.143007  0  0.981744  0  0  0.126966  0.139079  0  0.98392  0
H  H35  1  0.74102516  0.97589640  0.08034028  1  0  0.128666  0  0.924574  0  0  0.140628  0  0.983177  0  0  0.143021  0  0.981824  0  0  0.126965  0.139089  0  0.983998  0
H  H36  1  0.87445717  0.39213977  0.64575285  1  0  0.125584  0  0.928074  0  0  0.13646  0  0.990887  0  0  0.138271  0  0.990759  0  0  0.126666  0.135158  0  0.991012  0
H  H37  1  0.12555187  0.89212602  0.85425072  1  0  0.125642  0  0.928128  0  0  0.136513  0  0.990923  0  0  0.138323  0  0.990798  0  0  0.1267  0.135215  0  0.991053  0
H  H38  1  0.12554423  0.60786190  0.35424341  1  0  0.125594  0  0.928064  0  0  0.136468  0  0.990864  0  0  0.138277  0  0.990739  0  0  0.126669  0.135167  0  0.99099  0
H  H39  1  0.87445531  0.10787266  0.14574991  1  0  0.125647  0  0.928064  0  0  0.136494  0  0.990868  0  0  0.138304  0  0.990743  0  0  0.126681  0.135196  0  0.990996  0
C  C40  1  0.92291574  0.34114722  0.44608207  1  0  0.036971  0  3.571839  0  0  -0.024088  0  3.840548  0  0  -0.015186  0  3.852605  0  0  0.042972  -0.029081  0  3.831287  0
C  C41  1  0.07708139  0.84114648  0.05392111  1  0  0.037  0  3.571725  0  0  -0.024124  0  3.840519  0  0  -0.015247  0  3.852558  0  0  0.042993  -0.029114  0  3.831256  0
C  C42  1  0.07708093  0.65885544  0.55391549  1  0  0.037042  0  3.571653  0  0  -0.024038  0  3.84039  0  0  -0.015148  0  3.852459  0  0  0.042996  -0.029026  0  3.831127  0
C  C43  1  0.92291753  0.15885320  0.94608156  1  0  0.037045  0  3.571715  0  0  -0.024113  0  3.8405  0  0  -0.015212  0  3.852536  0  0  0.043039  -0.029103  0  3.831237  0
C  C44  1  0.95450316  0.33861721  0.33342421  1  0  -0.085269  0  3.778714  0  0  -0.06305  0  4.028721  0  0  -0.072765  0  4.051462  0  0  -0.016292  -0.056946  0  4.013496  0
C  C45  1  0.04550212  0.83861613  0.16658220  1  0  -0.085149  0  3.778772  0  0  -0.063032  0  4.028903  0  0  -0.07267  0  4.051549  0  0  -0.016248  -0.056933  0  4.013685  0
C  C46  1  0.04549584  0.66138147  0.66657403  1  0  -0.085145  0  3.778531  0  0  -0.062922  0  4.028555  0  0  -0.072614  0  4.051257  0  0  -0.01625  -0.056823  0  4.013339  0
C  C47  1  0.95450147  0.16138155  0.83342183  1  0  -0.085158  0  3.778777  0  0  -0.062941  0  4.028797  0  0  -0.072632  0  4.051512  0  0  -0.016262  -0.056842  0  4.013578  0
C  C48  1  0.85362762  0.40071164  0.22495405  1  0  -0.148811  0  3.614859  0  0  -0.189467  0  3.871435  0  0  -0.188081  0  3.886457  0  0  -0.078191  -0.190651  0  3.862165  0
C  C49  1  0.14637657  0.90070769  0.27505005  1  0  -0.148854  0  3.614919  0  0  -0.189464  0  3.871485  0  0  -0.188105  0  3.886486  0  0  -0.078248  -0.19065  0  3.862215  0
C  C50  1  0.14637604  0.59929202  0.77504644  1  0  -0.148964  0  3.614911  0  0  -0.189672  0  3.871518  0  0  -0.188293  0  3.886529  0  0  -0.078296  -0.190856  0  3.862252  0
C  C51  1  0.85362589  0.09929298  0.72495187  1  0  -0.148932  0  3.615075  0  0  -0.189585  0  3.871622  0  0  -0.188207  0  3.886638  0  0  -0.078271  -0.190769  0  3.862351  0
C  C52  1  0.71238223  0.45893593  0.22590257  1  0  0.348047  0  3.885286  0  0  0.337149  0  4.147343  0  0  0.347909  0  4.163725  0  0  0.09442  0.329006  0  4.137218  0
C  C53  1  0.28761976  0.95893343  0.27409618  1  0  0.348107  0  3.885292  0  0  0.337256  0  4.147271  0  0  0.348016  0  4.163658  0  0  0.094462  0.329111  0  4.137145  0
C  C54  1  0.28761798  0.54106673  0.77409425  1  0  0.348137  0  3.885264  0  0  0.337303  0  4.147251  0  0  0.348062  0  4.163631  0  0  0.094488  0.329154  0  4.137129  0
C  C55  1  0.71238044  0.04107023  0.72590151  1  0  0.348074  0  3.885346  0  0  0.337273  0  4.14727  0  0  0.348031  0  4.163651  0  0  0.094449  0.329126  0  4.137144  0
C  C56  1  0.68857151  0.45959323  0.34351077  1  0  -0.009836  0  3.475445  0  0  -0.056691  0  3.729236  0  0  -0.050226  0  3.738292  0  0  0.05199  -0.061615  0  3.72449  0
C  C57  1  0.31142576  0.95959500  0.15648839  1  0  -0.009904  0  3.475321  0  0  -0.056875  0  3.72919  0  0  -0.050415  0  3.738255  0  0  0.051935  -0.061785  0  3.724427  0
C  C58  1  0.31142171  0.54040345  0.65648311  1  0  -0.00989  0  3.475239  0  0  -0.056826  0  3.729067  0  0  -0.050375  0  3.738158  0  0  0.051945  -0.061738  0  3.724311  0
C  C59  1  0.68857323  0.04040766  0.84351073  1  0  -0.009906  0  3.475269  0  0  -0.056898  0  3.729159  0  0  -0.050436  0  3.738228  0  0  0.051957  -0.061807  0  3.724395  0
C  C60  1  0.10168920  0.26835653  0.33335473  1  0  0.656409  0  3.929124  0  0  0.605797  0  4.224689  0  0  0.639491  0  4.217749  0  0  0.211908  0.582839  0  4.229346  0
C  C61  1  0.89831013  0.76836618  0.16665363  1  0  0.656359  0  3.929337  0  0  0.605796  0  4.224873  0  0  0.639467  0  4.217927  0  0  0.211934  0.582841  0  4.22953  0
C  C62  1  0.89830858  0.73164016  0.66664582  1  0  0.656378  0  3.929369  0  0  0.605771  0  4.224941  0  0  0.639459  0  4.218001  0  0  0.211873  0.582814  0  4.229599  0
C  C63  1  0.10168998  0.23163449  0.83334849  1  0  0.656372  0  3.929381  0  0  0.605761  0  4.224941  0  0  0.639448  0  4.217998  0  0  0.211884  0.582806  0  4.229597  0
C  C64  1  0.76608824  0.41894839  0.56919859  1  0  -0.189968  0  3.586948  0  0  -0.250635  0  3.839657  0  0  -0.251552  0  3.845726  0  0  -0.053459  -0.249763  0  3.835047  0
C  C65  1  0.23391138  0.91893927  0.93080697  1  0  -0.190302  0  3.587486  0  0  -0.250881  0  3.840184  0  0  -0.251809  0  3.846272  0  0  -0.0536  -0.250059  0  3.835653  0
C  C66  1  0.23390958  0.58105228  0.43080019  1  0  -0.190113  0  3.586946  0  0  -0.25075  0  3.839609  0  0  -0.251662  0  3.845671  0  0  -0.053512  -0.249901  0  3.835037  0
C  C67  1  0.76609223  0.08105642  0.06919617  1  0  -0.190348  0  3.587321  0  0  -0.250861  0  3.839949  0  0  -0.251787  0  3.846032  0  0  -0.053579  -0.250037  0  3.835417  0
C  C68  1  0.63252091  0.33669899  0.58482824  1  0  0.689079  0  3.861394  0  0  0.631353  0  4.174432  0  0  0.663015  0  4.169652  0  0  0.21842  0.609958  0  4.176772  0
C  C69  1  0.36748096  0.83669513  0.91517975  1  0  0.688825  0  3.861873  0  0  0.631042  0  4.174952  0  0  0.662678  0  4.170207  0  0  0.218239  0.609666  0  4.177272  0
C  C70  1  0.36747457  0.66330766  0.41516986  1  0  0.68906  0  3.861415  0  0  0.631337  0  4.1744  0  0  0.663017  0  4.169611  0  0  0.218424  0.609965  0  4.176722  0
C  C71  1  0.63252608  0.16330455  0.08482796  1  0  0.68912  0  3.861427  0  0  0.631334  0  4.174495  0  0  0.663011  0  4.169708  0  0  0.218361  0.609962  0  4.17681  0
N  N72  1  0.79287059  0.40452649  0.44809207  1  0  0.044373  0  3.611758  0  0  0.136639  0  3.82373  0  0  0.125424  0  3.850305  0  0  -0.21378  0.144166  0  3.805441  0
N  N73  1  0.20712895  0.90452025  0.05190982  1  0  0.044539  0  3.611447  0  0  0.136872  0  3.823381  0  0  0.125658  0  3.849962  0  0  -0.2137  0.144403  0  3.80509  0
N  N74  1  0.20712727  0.59547518  0.55190494  1  0  0.04442  0  3.611511  0  0  0.13671  0  3.823498  0  0  0.125493  0  3.850068  0  0  -0.213783  0.14424  0  3.805207  0
N  N75  1  0.79287002  0.09548142  0.94809019  1  0  0.04457  0  3.611482  0  0  0.13689  0  3.823421  0  0  0.125676  0  3.849995  0  0  -0.213713  0.14442  0  3.805128  0
O  O76  1  0.60315088  0.50936971  0.12651725  1  0  -0.679502  0  2.162463  0  0  -0.597252  0  2.434824  0  0  -0.626992  0  2.42601  0  0  -0.34035  -0.575977  0  2.440591  0
O  O77  1  0.39684961  0.00936945  0.37348418  1  0  -0.679556  0  2.162514  0  0  -0.597315  0  2.434889  0  0  -0.627061  0  2.426081  0  0  -0.340344  -0.576045  0  2.44066  0
O  O78  1  0.39684347  0.49062997  0.87347874  1  0  -0.679511  0  2.162398  0  0  -0.5973  0  2.434789  0  0  -0.627038  0  2.425976  0  0  -0.340361  -0.576019  0  2.440549  0
O  O79  1  0.60315168  0.99063222  0.62651740  1  0  -0.679478  0  2.162514  0  0  -0.597263  0  2.434861  0  0  -0.627003  0  2.426044  0  0  -0.340339  -0.575992  0  2.440627  0
O  O80  1  0.12320612  0.25494482  0.22898301  1  0  -0.61798  0  1.976915  0  0  -0.562992  0  2.197651  0  0  -0.586901  0  2.188503  0  0  -0.310198  -0.546228  0  2.203746  0
O  O81  1  0.87679552  0.75495997  0.27102678  1  0  -0.617967  0  1.977095  0  0  -0.562986  0  2.197819  0  0  -0.586895  0  2.188691  0  0  -0.310209  -0.546223  0  2.203914  0
O  O82  1  0.87678929  0.74503792  0.77101864  1  0  -0.61794  0  1.976987  0  0  -0.562966  0  2.197745  0  0  -0.586886  0  2.188634  0  0  -0.310175  -0.546205  0  2.203847  0
O  O83  1  0.12320692  0.24504070  0.72897603  1  0  -0.617986  0  1.977097  0  0  -0.56296  0  2.197806  0  0  -0.586876  0  2.188686  0  0  -0.310167  -0.546203  0  2.20391  0
O  O84  1  0.19140466  0.23082279  0.44281834  1  0  -0.655471  0  2.070731  0  0  -0.590306  0  2.342738  0  0  -0.6183  0  2.327829  0  0  -0.321965  -0.571577  0  2.352885  0
O  O85  1  0.80858749  0.73082232  0.05719554  1  0  -0.655526  0  2.070831  0  0  -0.590322  0  2.342759  0  0  -0.618321  0  2.327876  0  0  -0.32198  -0.571593  0  2.352907  0
O  O86  1  0.80858481  0.76917490  0.55718691  1  0  -0.655534  0  2.070888  0  0  -0.59035  0  2.342868  0  0  -0.618348  0  2.327976  0  0  -0.321939  -0.571619  0  2.353013  0
O  O87  1  0.19141495  0.26917736  0.94280727  1  0  -0.655539  0  2.070814  0  0  -0.590354  0  2.342792  0  0  -0.618355  0  2.327901  0  0  -0.321972  -0.571623  0  2.352939  0
O  O88  1  0.60269712  0.36637554  0.68379228  1  0  -0.636569  0  2.046608  0  0  -0.567899  0  2.26547  0  0  -0.59493  0  2.25788  0  0  -0.301965  -0.548951  0  2.270175  0
O  O89  1  0.39731061  0.86636922  0.81621775  1  0  -0.636237  0  2.046496  0  0  -0.567595  0  2.265438  0  0  -0.594606  0  2.257855  0  0  -0.301807  -0.548643  0  2.270114  0
O  O90  1  0.39730536  0.63362712  0.31620875  1  0  -0.636468  0  2.0465  0  0  -0.567838  0  2.265386  0  0  -0.594868  0  2.257784  0  0  -0.301968  -0.548889  0  2.270066  0
O  O91  1  0.60269182  0.13362548  0.18378594  1  0  -0.636477  0  2.046542  0  0  -0.567822  0  2.26545  0  0  -0.594849  0  2.257852  0  0  -0.301917  -0.548873  0  2.270138  0
O  O92  1  0.56285794  0.24972115  0.50341545  1  0  -0.632253  0  2.058001  0  0  -0.563818  0  2.303777  0  0  -0.589764  0  2.293428  0  0  -0.295453  -0.545643  0  2.31029  0
O  O93  1  0.43714977  0.74971814  0.99659152  1  0  -0.632255  0  2.05828  0  0  -0.563677  0  2.303951  0  0  -0.589608  0  2.293608  0  0  -0.295429  -0.545505  0  2.310443  0
O  O94  1  0.43714108  0.75028351  0.49658190  1  0  -0.632283  0  2.058125  0  0  -0.563758  0  2.303799  0  0  -0.589751  0  2.293478  0  0  -0.295433  -0.545612  0  2.310331  0
O  O95  1  0.56285486  0.25028353  0.00341904  1  0  -0.632326  0  2.058009  0  0  -0.56378  0  2.303725  0  0  -0.589765  0  2.293396  0  0  -0.295437  -0.545629  0  2.310255  0
O  O96  1  0.39583276  0.18704010  0.70032159  1  0  -0.840082  0  1.939958  0  0  -0.776527  0  2.155796  0  0  -0.800103  0  2.120008  0  0  -0.577332  -0.759334  0  2.18072  0
O  O97  1  0.60416566  0.68703576  0.79967843  1  0  -0.84014  0  1.939853  0  0  -0.776591  0  2.155759  0  0  -0.800146  0  2.119947  0  0  -0.577352  -0.75941  0  2.180703  0
O  O98  1  0.60416858  0.81296256  0.29967733  1  0  -0.840009  0  1.939993  0  0  -0.776486  0  2.155888  0  0  -0.800047  0  2.120064  0  0  -0.577298  -0.759303  0  2.180826  0
O  O99  1  0.39583100  0.31296292  0.20032002  1  0  -0.840063  0  1.939915  0  0  -0.776539  0  2.155773  0  0  -0.800103  0  2.119949  0  0  -0.577325  -0.759362  0  2.180728  0
O  O100  1  0.26740757  0.93595570  0.57231399  1  0  -0.82378  0  1.892676  0  0  -0.76574  0  2.094103  0  0  -0.788382  0  2.060816  0  0  -0.579564  -0.749677  0  2.116953  0
O  O101  1  0.73259210  0.43595491  0.92768911  1  0  -0.823797  0  1.892586  0  0  -0.765711  0  2.094119  0  0  -0.788356  0  2.060823  0  0  -0.579535  -0.749643  0  2.116977  0
O  O102  1  0.73259372  0.06404597  0.42768759  1  0  -0.823775  0  1.892645  0  0  -0.765682  0  2.094117  0  0  -0.78833  0  2.06083  0  0  -0.579531  -0.749618  0  2.116971  0
O  O103  1  0.26740920  0.56404177  0.07231158  1  0  -0.823746  0  1.892654  0  0  -0.765698  0  2.094151  0  0  -0.788345  0  2.060866  0  0  -0.579563  -0.749635  0  2.117001  0
