# generated using pymatgen
data_ZnH16C23I2Br2(NO2)2
_symmetry_space_group_name_H-M   'P 1'
_cell_length_a   10.25849954
_cell_length_b   11.36564660
_cell_length_c   12.78780587
_cell_angle_alpha   102.81700411
_cell_angle_beta   94.60956235
_cell_angle_gamma   96.47944040
_symmetry_Int_Tables_number   1
_chemical_formula_structural   ZnH16C23I2Br2(NO2)2
_chemical_formula_sum   'Zn2 H32 C46 I4 Br4 N4 O8'
_cell_volume   1435.97765784
_cell_formula_units_Z   2
loop_
 _symmetry_equiv_pos_site_id
 _symmetry_equiv_pos_as_xyz
  1  'x, y, z'
loop_
 _atom_site_type_symbol
 _atom_site_label
 _atom_site_symmetry_multiplicity
 _atom_site_fract_x
 _atom_site_fract_y
 _atom_site_fract_z
 _atom_site_occupancy
 _atom_site_hle17_bader_spin_density
 _atom_site_hle17_ddec_charge
 _atom_site_hle17_ddec_spin_density
 _atom_site_hle17_ddec_sum_bond_order
 _atom_site_hle17_magmom
 _atom_site_hse06_10hf_bader_spin_density
 _atom_site_hse06_10hf_ddec_charge
 _atom_site_hse06_10hf_ddec_spin_density
 _atom_site_hse06_10hf_ddec_sum_bond_order
 _atom_site_hse06_10hf_magmom
 _atom_site_hse06_bader_spin_density
 _atom_site_hse06_ddec_charge
 _atom_site_hse06_ddec_spin_density
 _atom_site_hse06_ddec_sum_bond_order
 _atom_site_hse06_magmom
 _atom_site_pbe_bader_spin_density
 _atom_site_pbe_cm5_charge
 _atom_site_pbe_ddec_charge
 _atom_site_pbe_ddec_spin_density
 _atom_site_pbe_ddec_sum_bond_order
 _atom_site_pbe_magmom
Zn  Zn0  1  0.02558019  0.19328262  0.32589235  1  0  0.761499  0  2.158398  0  0  0.583338  0  2.647227  0  0  0.625397  0  2.601957  0  0  0.507243  0.554314  0  2.678144  0
Zn  Zn1  1  0.97441188  0.80673218  0.67412241  1  0  0.761464  0  2.158574  0  0  0.583267  0  2.647443  0  0  0.62533  0  2.60217  0  0  0.507232  0.554235  0  2.678366  0
H  H2  1  0.05261292  0.18703968  0.56020954  1  0  0.070674  0  0.974117  0  0  0.074019  0  1.047457  0  0  0.077155  0  1.044731  0  0  0.100318  0.071713  0  1.04954  0
H  H3  1  0.94737404  0.81295511  0.43980250  1  0  0.070791  0  0.974001  0  0  0.074117  0  1.047347  0  0  0.077254  0  1.044624  0  0  0.100289  0.071812  0  1.049431  0
H  H4  1  0.18740680  0.08865037  0.68130506  1  0  0.123529  0  0.94076  0  0  0.130046  0  1.00484  0  0  0.133908  0  1.002693  0  0  0.111866  0.127228  0  1.006619  0
H  H5  1  0.81257717  0.91132531  0.31869596  1  0  0.123432  0  0.940973  0  0  0.130052  0  1.004933  0  0  0.13389  0  1.002821  0  0  0.111862  0.127249  0  1.006693  0
H  H6  1  0.34811253  0.90215926  0.39841230  1  0  0.127711  0  0.939091  0  0  0.134279  0  1.001896  0  0  0.138303  0  0.999259  0  0  0.114935  0.131454  0  1.003814  0
H  H7  1  0.65189315  0.09786090  0.60158644  1  0  0.12776  0  0.938948  0  0  0.134212  0  1.001855  0  0  0.138234  0  0.999223  0  0  0.114922  0.131396  0  1.003764  0
H  H8  1  0.20295972  0.00469259  0.28842504  1  0  0.081718  0  0.952081  0  0  0.088626  0  1.018497  0  0  0.091083  0  1.016735  0  0  0.111721  0.087009  0  1.019422  0
H  H9  1  0.79704625  0.99533576  0.71158473  1  0  0.081539  0  0.952134  0  0  0.08843  0  1.018608  0  0  0.090886  0  1.016851  0  0  0.111644  0.086818  0  1.019525  0
H  H10  1  0.28238905  0.78619850  0.80872832  1  0  0.118744  0  0.959537  0  0  0.122719  0  1.033078  0  0  0.126389  0  1.030853  0  0  0.098168  0.120567  0  1.033686  0
H  H11  1  0.71762580  0.21381153  0.19126590  1  0  0.118593  0  0.959442  0  0  0.122604  0  1.032956  0  0  0.126274  0  1.03073  0  0  0.098138  0.120454  0  1.033563  0
H  H12  1  0.30741738  0.65964543  0.94662911  1  0  0.113085  0  0.957206  0  0  0.121483  0  1.021366  0  0  0.125636  0  1.018424  0  0  0.100206  0.118504  0  1.023523  0
H  H13  1  0.69256214  0.34035129  0.05335466  1  0  0.113174  0  0.957393  0  0  0.121588  0  1.021515  0  0  0.125719  0  1.018595  0  0  0.100246  0.11861  0  1.023672  0
H  H14  1  0.66388104  0.72309260  0.16388862  1  0  0.096179  0  0.990093  0  0  0.099506  0  1.066406  0  0  0.103495  0  1.063703  0  0  0.088884  0.096608  0  1.068451  0
H  H15  1  0.33610445  0.27688032  0.83611118  1  0  0.096112  0  0.990248  0  0  0.09949  0  1.066503  0  0  0.10348  0  1.063797  0  0  0.088843  0.09659  0  1.068549  0
H  H16  1  0.76065247  0.88234568  0.07433172  1  0  0.10533  0  0.966999  0  0  0.114833  0  1.029741  0  0  0.117989  0  1.027825  0  0  0.091791  0.112509  0  1.031223  0
H  H17  1  0.23934559  0.11763259  0.92567309  1  0  0.105457  0  0.967019  0  0  0.114984  0  1.029714  0  0  0.118137  0  1.027809  0  0  0.0919  0.11266  0  1.031191  0
H  H18  1  0.73610820  0.00691731  0.94049595  1  0  0.105196  0  0.942014  0  0  0.113421  0  1.004575  0  0  0.1166  0  1.002951  0  0  0.100507  0.112028  0  1.003964  0
H  H19  1  0.26390916  0.99307171  0.05951149  1  0  0.105212  0  0.941995  0  0  0.11342  0  1.00456  0  0  0.116599  0  1.002937  0  0  0.100564  0.112026  0  1.003947  0
H  H20  1  0.59688254  0.06482770  0.79538836  1  0  0.124916  0  0.955542  0  0  0.135232  0  1.015507  0  0  0.138617  0  1.013738  0  0  0.107214  0.132654  0  1.017113  0
H  H21  1  0.40313639  0.93517132  0.20462663  1  0  0.125028  0  0.955312  0  0  0.135434  0  1.015176  0  0  0.138814  0  1.013412  0  0  0.107238  0.132855  0  1.016783  0
H  H22  1  0.07775511  0.46662993  0.40797560  1  0  0.074615  0  0.982734  0  0  0.074611  0  1.063114  0  0  0.077767  0  1.060099  0  0  0.095617  0.072168  0  1.065616  0
H  H23  1  0.92226931  0.53338544  0.59205002  1  0  0.074696  0  0.982609  0  0  0.07465  0  1.063089  0  0  0.077793  0  1.060101  0  0  0.095656  0.072228  0  1.065573  0
H  H24  1  0.20143682  0.64292435  0.35413651  1  0  0.121493  0  0.955151  0  0  0.127762  0  1.01964  0  0  0.131755  0  1.017335  0  0  0.104485  0.124852  0  1.021659  0
H  H25  1  0.79858623  0.35708195  0.64586298  1  0  0.12149  0  0.955119  0  0  0.127728  0  1.019677  0  0  0.131712  0  1.017376  0  0  0.104459  0.124818  0  1.021695  0
H  H26  1  0.36863370  0.38322542  0.11963860  1  0  0.114512  0  0.981216  0  0  0.117429  0  1.053166  0  0  0.119992  0  1.053871  0  0  0.108842  0.11571  0  1.05254  0
H  H27  1  0.63132241  0.61674692  0.88033959  1  0  0.114502  0  0.981321  0  0  0.117512  0  1.053124  0  0  0.120081  0  1.053823  0  0  0.108906  0.115789  0  1.052503  0
H  H28  1  0.23743665  0.21767294  0.18219893  1  0  0.076878  0  0.977051  0  0  0.082155  0  1.047561  0  0  0.084174  0  1.046721  0  0  0.109149  0.08104  0  1.047391  0
H  H29  1  0.76252851  0.78230749  0.81779866  1  0  0.076813  0  0.977018  0  0  0.082085  0  1.047536  0  0  0.084104  0  1.046696  0  0  0.109152  0.080967  0  1.047366  0
H  H30  1  0.70475132  0.46169266  0.43194647  1  0  0.128819  0  0.988039  0  0  0.138818  0  1.05315  0  0  0.140834  0  1.053134  0  0  0.079777  0.13751  0  1.053302  0
H  H31  1  0.29524073  0.53830939  0.56805483  1  0  0.128787  0  0.988032  0  0  0.138756  0  1.053172  0  0  0.140774  0  1.053158  0  0  0.07975  0.137448  0  1.053323  0
H  H32  1  0.57537253  0.44195615  0.32288825  1  0  0.128867  0  0.954995  0  0  0.142023  0  1.013321  0  0  0.143614  0  1.013967  0  0  0.09054  0.14082  0  1.013319  0
H  H33  1  0.42461982  0.55804772  0.67710796  1  0  0.128829  0  0.954942  0  0  0.141981  0  1.01326  0  0  0.143575  0  1.013903  0  0  0.090487  0.140777  0  1.013255  0
C  C34  1  0.11966043  0.12329004  0.52848621  1  0  0.118358  0  3.718027  0  0  0.086109  0  3.97191  0  0  0.091781  0  3.990775  0  0  0.03876  0.08228  0  3.960037  0
C  C35  1  0.88032015  0.87670756  0.47151892  1  0  0.118027  0  3.717801  0  0  0.085778  0  3.971728  0  0  0.091452  0  3.990599  0  0  0.03867  0.081949  0  3.95985  0
C  C36  1  0.19526827  0.06953434  0.59501493  1  0  -0.115869  0  3.696417  0  0  -0.143824  0  3.956283  0  0  -0.148357  0  3.976028  0  0  -0.076368  -0.140889  0  3.943801  0
C  C37  1  0.80472068  0.93046045  0.40498316  1  0  -0.115743  0  3.696539  0  0  -0.143798  0  3.956529  0  0  -0.148263  0  3.976171  0  0  -0.076359  -0.140896  0  3.944089  0
C  C38  1  0.28087330  0.99052838  0.54854051  1  0  -0.006457  0  3.748954  0  0  0.006356  0  3.988499  0  0  0.004296  0  4.007489  0  0  0.005132  0.007864  0  3.975969  0
C  C39  1  0.71912365  0.00947362  0.45145797  1  0  -0.006671  0  3.749103  0  0  0.006081  0  3.988832  0  0  0.004022  0  4.007832  0  0  0.005063  0.007589  0  3.976294  0
C  C40  1  0.28457186  0.96534097  0.43690076  1  0  -0.087801  0  3.666384  0  0  -0.111839  0  3.915798  0  0  -0.115603  0  3.934214  0  0  -0.067169  -0.109621  0  3.903953  0
C  C41  1  0.71542290  0.03467200  0.56309818  1  0  -0.087868  0  3.666102  0  0  -0.111744  0  3.915551  0  0  -0.115511  0  3.933972  0  0  -0.067177  -0.109532  0  3.903711  0
C  C42  1  0.20501414  0.02180455  0.37592035  1  0  0.133824  0  3.661554  0  0  0.103598  0  3.907298  0  0  0.109787  0  3.924882  0  0  0.050215  0.099116  0  3.896014  0
C  C43  1  0.79499571  0.97821739  0.62408527  1  0  0.134077  0  3.661465  0  0  0.103808  0  3.907241  0  0  0.109996  0  3.924829  0  0  0.050362  0.099327  0  3.895954  0
C  C44  1  0.37233158  0.93481208  0.61410680  1  0  0.596586  0  3.792377  0  0  0.54601  0  4.087208  0  0  0.579241  0  4.076023  0  0  0.241588  0.522894  0  4.095046  0
C  C45  1  0.62767779  0.06519435  0.38589495  1  0  0.596844  0  3.792253  0  0  0.546169  0  4.087252  0  0  0.579396  0  4.076075  0  0  0.241637  0.523063  0  4.095083  0
C  C46  1  0.43536806  0.92412000  0.79409244  1  0  0.28427  0  3.77469  0  0  0.273295  0  4.043576  0  0  0.283265  0  4.060014  0  0  0.079837  0.266469  0  4.032028  0
C  C47  1  0.56464789  0.07589093  0.20590906  1  0  0.284092  0  3.77466  0  0  0.27307  0  4.043624  0  0  0.283035  0  4.06007  0  0  0.079772  0.266248  0  4.032081  0
C  C48  1  0.38257705  0.83116690  0.83694743  1  0  -0.207467  0  3.68926  0  0  -0.238927  0  3.942439  0  0  -0.24408  0  3.961503  0  0  -0.096698  -0.235139  0  3.928329  0
C  C49  1  0.61743208  0.16884410  0.16305051  1  0  -0.206999  0  3.688786  0  0  -0.238414  0  3.941926  0  0  -0.243559  0  3.960984  0  0  -0.096547  -0.234631  0  3.927822  0
C  C50  1  0.45800049  0.79923313  0.92179180  1  0  0.088858  0  3.802229  0  0  0.110354  0  4.024737  0  0  0.110545  0  4.051157  0  0  -0.004391  0.109938  0  4.007463  0
C  C51  1  0.54199728  0.20076795  0.07820968  1  0  0.088673  0  3.802081  0  0  0.110156  0  4.024763  0  0  0.110341  0  4.051177  0  0  -0.004401  0.109744  0  4.007494  0
C  C52  1  0.40600038  0.70903465  0.97375509  1  0  -0.217468  0  3.714475  0  0  -0.248538  0  3.965276  0  0  -0.253534  0  3.983325  0  0  -0.099092  -0.245163  0  3.953236  0
C  C53  1  0.59399277  0.29095555  0.02623064  1  0  -0.217722  0  3.714835  0  0  -0.248781  0  3.965675  0  0  -0.253756  0  3.983727  0  0  -0.099181  -0.245407  0  3.953641  0
C  C54  1  0.48048425  0.68598185  0.05933174  1  0  0.272097  0  3.779817  0  0  0.262676  0  4.050039  0  0  0.272884  0  4.065366  0  0  0.073491  0.255707  0  4.039498  0
C  C55  1  0.51950791  0.31400835  0.94065784  1  0  0.272458  0  3.77962  0  0  0.262952  0  4.049895  0  0  0.273159  0  4.065216  0  0  0.073604  0.255985  0  4.039355  0
C  C56  1  0.60899019  0.74619476  0.09639355  1  0  -0.162445  0  3.756478  0  0  -0.187166  0  4.014213  0  0  -0.191428  0  4.032585  0  0  -0.102266  -0.184293  0  4.001923  0
C  C57  1  0.39100249  0.25379269  0.90360725  1  0  -0.162268  0  3.756733  0  0  -0.186992  0  4.01442  0  0  -0.191253  0  4.032792  0  0  -0.102155  -0.184119  0  4.002128  0
C  C58  1  0.66195156  0.83316329  0.04607523  1  0  -0.078401  0  3.717481  0  0  -0.094433  0  3.961751  0  0  -0.095372  0  3.982003  0  0  -0.083081  -0.093911  0  3.948389  0
C  C59  1  0.33805602  0.16681307  0.95391341  1  0  -0.078975  0  3.717652  0  0  -0.095011  0  3.962095  0  0  -0.095947  0  3.982331  0  0  -0.08335  -0.094484  0  3.948731  0
C  C60  1  0.58810840  0.86328332  0.95933602  1  0  0.032689  0  3.785263  0  0  0.047621  0  4.0089  0  0  0.04575  0  4.034788  0  0  -0.010451  0.048578  0  3.992018  0
C  C61  1  0.41189932  0.13669395  0.04065594  1  0  0.033043  0  3.784741  0  0  0.047783  0  4.008709  0  0  0.045917  0  4.034597  0  0  -0.010422  0.048739  0  3.991829  0
C  C62  1  0.63798874  0.95738391  0.91052840  1  0  -0.092499  0  3.736997  0  0  -0.108564  0  3.988447  0  0  -0.110166  0  4.009432  0  0  -0.085196  -0.107111  0  3.972502  0
C  C63  1  0.36203406  0.04259594  0.08946585  1  0  -0.092305  0  3.737001  0  0  -0.108317  0  3.988557  0  0  -0.109909  0  4.00952  0  0  -0.085152  -0.106863  0  3.97261  0
C  C64  1  0.56274661  0.98829938  0.82906917  1  0  -0.164368  0  3.74385  0  0  -0.191202  0  4.003052  0  0  -0.195901  0  4.023704  0  0  -0.096986  -0.18786  0  3.988974  0
C  C65  1  0.43727276  0.01170238  0.17093935  1  0  -0.164782  0  3.743953  0  0  -0.191631  0  4.003115  0  0  -0.19633  0  4.023777  0  0  -0.097073  -0.188285  0  3.989037  0
C  C66  1  0.35666197  0.63218671  0.19380190  1  0  0.586387  0  3.790196  0  0  0.537353  0  4.087765  0  0  0.570498  0  4.076795  0  0  0.241653  0.514886  0  4.094436  0
C  C67  1  0.64333113  0.36779073  0.80618053  1  0  0.586282  0  3.790204  0  0  0.537413  0  4.087443  0  0  0.570587  0  4.076426  0  0  0.241678  0.514952  0  4.094109  0
C  C68  1  0.14400545  0.45248763  0.34507876  1  0  0.123922  0  3.696817  0  0  0.091827  0  3.950444  0  0  0.097584  0  3.968992  0  0  0.042112  0.08779  0  3.939021  0
C  C69  1  0.85601004  0.54752056  0.65493077  1  0  0.123922  0  3.696917  0  0  0.091808  0  3.950601  0  0  0.097569  0  3.969132  0  0  0.042117  0.087748  0  3.939182  0
C  C70  1  0.21233235  0.54991914  0.31460741  1  0  -0.114293  0  3.708142  0  0  -0.138267  0  3.956815  0  0  -0.143263  0  3.977282  0  0  -0.07768  -0.135928  0  3.944785  0
C  C71  1  0.78767036  0.45008828  0.68538548  1  0  -0.114366  0  3.708008  0  0  -0.138324  0  3.956706  0  0  -0.143306  0  3.977164  0  0  -0.07777  -0.135988  0  3.944684  0
C  C72  1  0.29314825  0.52646158  0.23151999  1  0  -0.016963  0  3.762642  0  0  -0.000973  0  3.997157  0  0  -0.003673  0  4.016874  0  0  0.002814  0.000871  0  3.983981  0
C  C73  1  0.70683652  0.47352505  0.76846605  1  0  -0.016905  0  3.762684  0  0  -0.000978  0  3.99712  0  0  -0.003693  0  4.01684  0  0  0.002906  0.000872  0  3.983923  0
C  C74  1  0.30627379  0.40557184  0.18416494  1  0  -0.107667  0  3.673035  0  0  -0.130393  0  3.919797  0  0  -0.134458  0  3.939747  0  0  -0.07392  -0.127596  0  3.906362  0
C  C75  1  0.69369936  0.59440943  0.81582396  1  0  -0.107729  0  3.673176  0  0  -0.130496  0  3.919858  0  0  -0.134565  0  3.939813  0  0  -0.073952  -0.127702  0  3.906421  0
C  C76  1  0.23410703  0.31321237  0.21908251  1  0  0.134121  0  3.672014  0  0  0.104005  0  3.916282  0  0  0.110407  0  3.93372  0  0  0.049405  0.099981  0  3.904403  0
C  C77  1  0.76587171  0.68677340  0.78091313  1  0  0.134311  0  3.671531  0  0  0.104216  0  3.915804  0  0  0.110619  0  3.933238  0  0  0.049429  0.100189  0  3.903916  0
C  C78  1  0.65525440  0.50491377  0.37464782  1  0  -0.230685  0  3.417693  0  0  -0.24975  0  3.681428  0  0  -0.245644  0  3.686912  0  0  -0.219875  -0.252651  0  3.677569  0
C  C79  1  0.34473360  0.49508741  0.62534991  1  0  -0.230601  0  3.417703  0  0  -0.249653  0  3.681467  0  0  -0.245519  0  3.686866  0  0  -0.219793  -0.252552  0  3.677603  0
I  I80  1  0.80159147  0.54853185  0.27246504  1  0  -0.006404  0  1.222537  0  0  0.006367  0  1.485571  0  0  0.000749  0  1.475256  0  0  0.065025  0.009796  0  1.493508  0
I  I81  1  0.19841464  0.45146640  0.72753800  1  0  -0.006386  0  1.222627  0  0  0.006382  0  1.485675  0  0  0.000761  0  1.475349  0  0  0.065047  0.009809  0  1.493615  0
I  I82  1  0.57358287  0.65777150  0.46148315  1  0  0.059906  0  1.388635  0  0  0.054276  0  1.706492  0  0  0.049652  0  1.698134  0  0  0.085463  0.058558  0  1.713494  0
I  I83  1  0.42641352  0.34223325  0.53851583  1  0  0.059907  0  1.388573  0  0  0.054262  0  1.706443  0  0  0.049637  0  1.698077  0  0  0.085474  0.058535  0  1.713465  0
Br  Br84  1  0.87369284  0.29073767  0.43475634  1  0  -0.508057  0  1.070063  0  0  -0.449334  0  1.391823  0  0  -0.466617  0  1.367438  0  0  -0.250502  -0.436094  0  1.409058  0
Br  Br85  1  0.12635914  0.70935951  0.56528337  1  0  -0.508057  0  1.07023  0  0  -0.44929  0  1.391924  0  0  -0.466579  0  1.367539  0  0  -0.25049  -0.436051  0  1.40916  0
Br  Br86  1  0.97300025  0.05841215  0.15450001  1  0  -0.526143  0  0.943173  0  0  -0.469132  0  1.220543  0  0  -0.485329  0  1.195332  0  0  -0.293824  -0.45795  0  1.236356  0
Br  Br87  1  0.02697990  0.94161373  0.84550677  1  0  -0.526168  0  0.943189  0  0  -0.469156  0  1.220545  0  0  -0.485346  0  1.195337  0  0  -0.293856  -0.457979  0  1.23636  0
N  N88  1  0.12555159  0.10083300  0.42118181  1  0  -0.30764  0  3.348843  0  0  -0.218925  0  3.614536  0  0  -0.237712  0  3.632761  0  0  -0.331835  -0.206869  0  3.602993  0
N  N89  1  0.87444564  0.89917720  0.57882691  1  0  -0.307381  0  3.34872  0  0  -0.218538  0  3.614227  0  0  -0.23733  0  3.632475  0  0  -0.331678  -0.206484  0  3.602685  0
N  N90  1  0.15329416  0.33607018  0.29697090  1  0  -0.301328  0  3.325548  0  0  -0.214  0  3.587767  0  0  -0.232145  0  3.604418  0  0  -0.325409  -0.20174  0  3.576608  0
N  N91  1  0.84670831  0.66392993  0.70304244  1  0  -0.301401  0  3.325444  0  0  -0.214105  0  3.587713  0  0  -0.232251  0  3.604362  0  0  -0.325476  -0.201832  0  3.576546  0
O  O92  1  0.45613371  0.87392530  0.57770125  1  0  -0.500185  0  2.010669  0  0  -0.459014  0  2.244046  0  0  -0.477923  0  2.237538  0  0  -0.270261  -0.446165  0  2.249059  0
O  O93  1  0.54389033  0.12608099  0.42229361  1  0  -0.500245  0  2.010803  0  0  -0.459015  0  2.244199  0  0  -0.477919  0  2.237691  0  0  -0.270286  -0.446171  0  2.249213  0
O  O94  1  0.35337363  0.96484446  0.71994892  1  0  -0.332911  0  2.368204  0  0  -0.260152  0  2.59695  0  0  -0.283062  0  2.598411  0  0  -0.133223  -0.244073  0  2.595161  0
O  O95  1  0.64665632  0.03517453  0.28005119  1  0  -0.332944  0  2.367833  0  0  -0.260164  0  2.596682  0  0  -0.283075  0  2.598139  0  0  -0.133236  -0.244089  0  2.594904  0
O  O96  1  0.42755679  0.59510339  0.10950003  1  0  -0.325258  0  2.298994  0  0  -0.258891  0  2.527957  0  0  -0.279448  0  2.525367  0  0  -0.138781  -0.244494  0  2.528575  0
O  O97  1  0.57243163  0.40488139  0.89047416  1  0  -0.325427  0  2.29873  0  0  -0.258992  0  2.527564  0  0  -0.279553  0  2.524958  0  0  -0.138845  -0.244597  0  2.528183  0
O  O98  1  0.34327178  0.73799034  0.23152407  1  0  -0.494456  0  1.953994  0  0  -0.456793  0  2.164004  0  0  -0.475445  0  2.156673  0  0  -0.259781  -0.443829  0  2.168606  0
O  O99  1  0.65672759  0.26198976  0.76846711  1  0  -0.494391  0  1.954075  0  0  -0.456815  0  2.163997  0  0  -0.475476  0  2.156652  0  0  -0.25982  -0.443856  0  2.168604  0
