# generated using pymatgen
data_NiH18C22N3O5
_symmetry_space_group_name_H-M   'P 1'
_cell_length_a   9.57360693
_cell_length_b   14.22830040
_cell_length_c   15.45745947
_cell_angle_alpha   99.29417444
_cell_angle_beta   90.26314629
_cell_angle_gamma   108.38833927
_symmetry_Int_Tables_number   1
_chemical_formula_structural   NiH18C22N3O5
_chemical_formula_sum   'Ni4 H72 C88 N12 O20'
_cell_volume   1968.34563412
_cell_formula_units_Z   4
loop_
 _symmetry_equiv_pos_site_id
 _symmetry_equiv_pos_as_xyz
  1  'x, y, z'
loop_
 _atom_site_type_symbol
 _atom_site_label
 _atom_site_symmetry_multiplicity
 _atom_site_fract_x
 _atom_site_fract_y
 _atom_site_fract_z
 _atom_site_occupancy
 _atom_site_pbe_bader_charge
 _atom_site_pbe_bader_spin_density
 _atom_site_pbe_cm5_charge
 _atom_site_pbe_ddec_charge
 _atom_site_pbe_ddec_spin_density
 _atom_site_pbe_ddec_sum_bond_order
 _atom_site_pbe_magmom
Ni  Ni0  1  0.07160564  0.78370118  0.59348666  1  1.149947  -1.540315  0.65032  0.743081  -1.846224  2.568328  -1.524
Ni  Ni1  1  0.30603634  0.21273578  0.90038852  1  1.155106  1.547841  0.646362  0.755342  1.797203  2.534085  1.533
Ni  Ni2  1  0.94090369  0.22420569  0.40297295  1  0.967483  0.000205  0.643244  0.535937  0.000238  2.88351  0.0
Ni  Ni3  1  0.70924408  0.78682497  0.09923323  1  1.149298  1.543607  0.647214  0.748926  1.792005  2.522631  1.529
H  H4  1  0.23241505  0.87765529  0.43992039  1  0.137793  -0.002414  0.122286  0.097071  -0.000936  1.002362  -0.002
H  H5  1  0.36228283  0.10320176  0.04708024  1  0.107977  0.002406  0.121215  0.094523  0.000916  0.998065  0.002
H  H6  1  0.75587597  0.12951952  0.53606782  1  0.149233  -0.0  0.129024  0.111226  -3e-06  1.011838  0.0
H  H7  1  0.63988318  0.88723746  0.94965944  1  0.125423  0.002408  0.121726  0.095348  0.000914  1.000491  0.002
H  H8  1  0.16543577  0.95793800  0.32042476  1  0.07717  -0.001155  0.109666  0.115238  -0.000544  0.993618  -0.001
H  H9  1  0.22357338  0.03986417  0.17457596  1  0.074793  0.001137  0.111918  0.117314  0.000511  0.988964  0.001
H  H10  1  0.81066725  0.05762294  0.66530454  1  0.078502  3.6e-05  0.113654  0.120536  2.2e-05  0.981136  0.0
H  H11  1  0.77419011  0.95221141  0.82132073  1  0.085646  0.001221  0.111529  0.117366  0.000568  0.98458  0.001
H  H12  1  0.90666732  0.96975349  0.31183814  1  0.108046  0.000289  0.110468  0.113326  0.000201  1.011744  0.0
H  H13  1  0.96769958  0.05414614  0.19222950  1  0.130116  8.5e-05  0.111144  0.115874  5.7e-05  1.014009  0.0
H  H14  1  0.07037141  0.05214893  0.69031560  1  0.137647  -1.7e-05  0.113662  0.125067  -2.6e-05  1.000465  0.0
H  H15  1  0.03558217  0.94783164  0.80497422  1  0.10739  -7e-06  0.114196  0.123946  2.2e-05  1.002141  0.0
H  H16  1  0.73426412  0.90555240  0.42275021  1  0.098048  -0.001168  0.110504  0.118856  -0.000522  1.030745  -0.001
H  H17  1  0.86391297  0.12657223  0.08268852  1  0.059311  0.001287  0.109896  0.115841  0.000553  1.009671  0.001
H  H18  1  0.25625671  0.11278367  0.58426409  1  0.120486  -1.2e-05  0.113342  0.124473  -3e-06  1.015298  0.0
H  H19  1  0.14666420  0.88036697  0.91456840  1  0.100456  0.001147  0.108286  0.11652  0.000489  1.025774  0.001
H  H20  1  0.59321836  0.83012509  0.51324062  1  0.104176  -0.001264  0.11267  0.122853  -0.000628  1.006821  -0.001
H  H21  1  0.78792869  0.18487068  0.98166150  1  0.093863  0.001429  0.108152  0.114475  0.000722  1.021478  0.001
H  H22  1  0.40071610  0.16840172  0.47770948  1  0.108967  7e-06  0.118286  0.131583  4e-06  0.989507  0.0
H  H23  1  0.22694158  0.82331038  0.01564049  1  0.071025  0.001354  0.109688  0.117186  0.000651  1.015748  0.001
H  H24  1  0.45122819  0.75503124  0.63179069  1  0.143081  -1.7e-05  0.110416  0.118478  1.2e-05  1.011825  0.0
H  H25  1  0.72121385  0.26022766  0.86198809  1  0.136989  -4e-05  0.111615  0.117137  -6.8e-05  1.008053  0.0
H  H26  1  0.53842871  0.23761520  0.35439260  1  0.106317  0.0  0.113206  0.117027  -6e-06  1.01104  0.0
H  H27  1  0.30013930  0.75037881  0.13527359  1  0.144731  1e-06  0.110376  0.118086  -3.5e-05  1.01227  0.0
H  H28  1  0.58181731  0.69685584  0.74536839  1  0.112494  -0.000926  0.105417  0.108684  -0.000475  1.040897  0.0
H  H29  1  0.90717779  0.31441966  0.74892012  1  0.116876  0.00091  0.106408  0.110851  0.00043  1.039468  0.0
H  H30  1  0.40584065  0.29469584  0.24188350  1  0.114709  -1.6e-05  0.10743  0.111409  -3.4e-05  1.035011  0.0
H  H31  1  0.11729164  0.69463715  0.24987157  1  0.101178  0.000942  0.104999  0.107447  0.00047  1.048818  0.0
H  H32  1  0.84803949  0.71317191  0.72919740  1  0.124527  -0.00252  0.117042  0.086256  -0.001027  1.026452  -0.002
H  H33  1  0.15476514  0.29224974  0.76604429  1  0.122363  0.002523  0.118272  0.08718  0.000981  1.027014  0.002
H  H34  1  0.14037309  0.27897382  0.25889637  1  0.136949  -3.7e-05  0.121495  0.093144  -3.3e-05  1.035865  0.0
H  H35  1  0.86704798  0.71290989  0.23400740  1  0.118748  0.002605  0.119286  0.090322  0.00103  1.01398  0.002
H  H36  1  0.37325350  0.78930882  0.90781057  1  0.076823  0.000339  0.094808  0.09773  0.000265  1.054052  0.0
H  H37  1  0.60856190  0.22604527  0.58521233  1  0.080585  3.7e-05  0.099182  0.105763  1.3e-05  1.039542  0.0
H  H38  1  0.63456953  0.20067478  0.10102020  1  0.059879  0.00038  0.093831  0.096913  0.000262  1.04505  0.0
H  H39  1  0.40822506  0.78059353  0.40758626  1  0.089183  -0.000369  0.099381  0.103831  -0.000308  1.046197  0.0
H  H40  1  0.47063430  0.51075276  0.87539318  1  0.118991  0.000512  0.110112  0.1268  0.000355  1.004856  0.0
H  H41  1  0.96190173  0.50787172  0.63193091  1  0.108772  2.4e-05  0.109985  0.126312  4.1e-05  1.020154  0.0
H  H42  1  0.54055882  0.47992156  0.12403368  1  0.092127  0.000581  0.109795  0.126872  0.000394  1.004301  0.0
H  H43  1  0.04664788  0.50389433  0.37380702  1  0.12237  -0.000417  0.110557  0.129764  -0.000325  1.013281  0.0
H  H44  1  0.22483416  0.57582555  0.66905241  1  0.080838  -3.2e-05  0.110243  0.126251  9e-06  1.012544  0.0
H  H45  1  0.65195012  0.42542799  0.83180249  1  0.103098  5.4e-05  0.106732  0.120395  8e-06  1.02029  0.0
H  H46  1  0.78059333  0.42118126  0.33654200  1  0.106637  -8e-06  0.109069  0.125269  -4e-06  1.014788  0.0
H  H47  1  0.35312455  0.56773855  0.16833899  1  0.058371  5.9e-05  0.107643  0.121519  7e-06  1.016475  0.0
H  H48  1  0.18678321  0.41794838  0.61085858  1  0.077459  2.5e-05  0.105134  0.091145  1.7e-05  1.000856  0.0
H  H49  1  0.76074922  0.58578287  0.89691198  1  0.074924  0.000113  0.104254  0.089321  0.000111  1.006305  0.0
H  H50  1  0.82265730  0.58517475  0.39019301  1  0.09618  -8.7e-05  0.104088  0.089688  -8.6e-05  1.002874  0.0
H  H51  1  0.24011265  0.40851004  0.10931086  1  0.061888  9.8e-05  0.103815  0.088483  7.8e-05  0.99742  0.0
H  H52  1  0.27492209  0.32675751  0.60947456  1  0.061039  1.8e-05  0.10003  0.076534  1e-05  1.000964  0.0
H  H53  1  0.93308906  0.67801390  0.90109906  1  0.055803  -6.5e-05  0.100098  0.077052  -6.5e-05  1.012457  0.0
H  H54  1  0.72814134  0.67206678  0.38737821  1  0.019466  6.7e-05  0.10242  0.081569  5.9e-05  0.991317  0.0
H  H55  1  0.06395239  0.32063715  0.10750044  1  0.046306  -5.4e-05  0.099218  0.074695  -4.7e-05  1.014858  0.0
H  H56  1  0.59647812  0.48974791  0.64617513  1  0.067261  2.6e-05  0.089338  0.084744  1.3e-05  1.074443  0.0
H  H57  1  0.11619800  0.52814882  0.86217864  1  0.089548  -2.8e-05  0.088835  0.084549  -2.6e-05  1.075135  0.0
H  H58  1  0.41110476  0.50863382  0.35195786  1  0.076985  2.5e-05  0.088444  0.084566  2e-05  1.074201  0.0
H  H59  1  0.88961291  0.47152928  0.14475308  1  0.072228  -1.1e-05  0.089049  0.08414  -1.8e-05  1.076288  0.0
H  H60  1  0.23454616  0.43828092  0.45997482  1  0.107325  1.5e-05  0.096633  0.109469  2.3e-05  1.036352  0.0
H  H61  1  0.77992620  0.54818962  0.04078448  1  0.072736  1.4e-05  0.098599  0.110025  -3.6e-05  1.020119  0.0
H  H62  1  0.77284205  0.56008491  0.53815931  1  0.094007  4.5e-05  0.098673  0.110835  7.3e-05  1.024034  0.0
H  H63  1  0.22557975  0.45134034  0.96607204  1  0.081967  8e-06  0.097583  0.108182  -3.7e-05  1.019153  0.0
H  H64  1  0.39009807  0.39743442  0.74508684  1  0.471893  0.000223  0.296276  0.248506  0.000196  1.023078  0.0
H  H65  1  0.98383841  0.61313274  0.76395632  1  0.485855  -0.000239  0.296249  0.248884  -0.000226  1.020219  0.0
H  H66  1  0.62426842  0.59877267  0.25082330  1  0.471389  0.000248  0.295877  0.24975  0.000213  1.023955  0.0
H  H67  1  0.02077492  0.39016369  0.24418384  1  0.474453  4e-06  0.296181  0.24837  1.1e-05  1.023912  0.0
H  H68  1  0.23055563  0.90304139  0.71479479  1  0.65436  0.00025  0.283625  0.367371  5e-05  0.99418  0.0
H  H69  1  0.34060490  0.10083245  0.76852070  1  0.655251  -9.8e-05  0.283074  0.371666  5.1e-05  0.985012  0.0
H  H70  1  0.62390511  0.07156890  0.35013377  1  0.617532  8e-06  0.277446  0.374211  2.7e-05  0.958824  0.0
H  H71  1  0.67013833  0.89891842  0.22816874  1  0.650964  -7.8e-05  0.284358  0.367929  0.000204  0.992717  0.0
H  H72  1  0.27472300  0.95406856  0.62957562  1  0.607843  -0.000623  0.325411  0.403407  -0.000736  0.862485  -0.001
H  H73  1  0.31665824  0.03159537  0.84325334  1  0.602648  0.001006  0.320205  0.401058  0.000862  0.875403  0.001
H  H74  1  0.54609280  0.95979533  0.35461559  1  0.644897  -1e-06  0.275461  0.37278  1.8e-05  0.964129  0.0
H  H75  1  0.70683770  0.97491875  0.15960089  1  0.606374  0.001139  0.317086  0.400461  0.00096  0.878717  0.001
C  C76  1  0.12308211  0.88496502  0.43324951  1  0.444729  0.005854  0.049624  0.093394  0.002551  3.931977  0.004
C  C77  1  0.25078486  0.10547676  0.05733731  1  0.492528  -0.005303  0.050219  0.096477  -0.002401  3.941407  -0.004
C  C78  1  0.86436569  0.12459458  0.55031231  1  0.466659  -2.1e-05  0.055436  0.0961  -1.8e-05  3.891534  0.0
C  C79  1  0.75313165  0.88881699  0.93970267  1  0.395016  -0.005165  0.049482  0.09594  -0.002409  3.942148  -0.004
C  C80  1  0.08441600  0.92936621  0.36699690  1  -0.007237  -0.005745  -0.082226  -0.130455  -0.003524  3.985358  -0.005
C  C81  1  0.17324958  0.07119166  0.12799252  1  -0.037115  0.005364  -0.081738  -0.130015  0.003149  3.98564  0.004
C  C82  1  0.89707654  0.08477341  0.62128583  1  -0.013996  7.4e-05  -0.078728  -0.127602  5e-05  3.972269  0.0
C  C83  1  0.82842883  0.92412681  0.86862564  1  0.037081  0.005585  -0.081575  -0.131276  0.003353  3.983855  0.005
C  C84  1  0.94239855  0.93621621  0.36278853  1  -0.029055  0.008608  -0.066535  -0.022407  0.004897  3.944357  0.005
C  C85  1  0.03257303  0.07941395  0.13783847  1  -0.030875  -0.007806  -0.066595  -0.018837  -0.004636  3.947411  -0.005
C  C86  1  0.03957936  0.08165131  0.63509496  1  0.000571  2e-05  -0.063248  -0.01545  1.7e-05  3.928035  0.0
C  C87  1  0.97194845  0.92114584  0.85938685  1  0.00087  -0.007817  -0.064078  -0.014017  -0.004626  3.931232  -0.005
C  C88  1  0.84439431  0.89897988  0.42484890  1  -0.006031  -0.003911  -0.076203  -0.148637  -0.00247  3.923966  -0.003
C  C89  1  0.97348111  0.11939179  0.07585266  1  0.028208  0.003684  -0.0777  -0.154266  0.002266  3.930047  0.003
C  C90  1  0.14441503  0.11484973  0.57508929  1  -0.030541  -8e-06  -0.074638  -0.146011  -4e-06  3.920378  0.0
C  C91  1  0.03540288  0.88418684  0.92190794  1  -0.02955  0.003793  -0.077912  -0.153429  0.002319  3.925183  0.003
C  C92  1  0.89019691  0.85468880  0.48937114  1  0.471765  0.003262  0.120336  0.157093  0.001368  3.999167  0.002
C  C93  1  0.05712853  0.15188394  0.00588106  1  0.464219  -0.003008  0.12313  0.163874  -0.001448  3.998504  -0.002
C  C94  1  0.10520659  0.15262860  0.50425374  1  0.437323  4.6e-05  0.116133  0.147073  4.4e-05  4.013152  0.0
C  C95  1  0.95371607  0.85024126  0.99204612  1  0.466873  -0.002897  0.121499  0.161659  -0.001331  4.000315  -0.002
C  C96  1  0.79662612  0.81287809  0.55849032  1  0.450982  0.004365  0.117754  0.157233  0.002047  3.995437  0.003
C  C97  1  0.00645892  0.19611844  0.93692323  1  0.47771  -0.003833  0.116677  0.153326  -0.001791  3.994393  -0.002
C  C98  1  0.19839920  0.18733275  0.43403556  1  0.425444  7e-06  0.113491  0.14075  8e-06  4.00129  0.0
C  C99  1  0.00864973  0.80861370  0.06150839  1  0.445196  -0.003555  0.115752  0.149854  -0.001695  3.998635  -0.002
C  C100  1  0.64776600  0.80520724  0.56272179  1  -0.041717  -0.004121  -0.073441  -0.145982  -0.00261  3.92302  -0.003
C  C101  1  0.86697861  0.20752833  0.93248729  1  -0.031767  0.004223  -0.075482  -0.147921  0.002591  3.932588  0.003
C  C102  1  0.34585795  0.19308210  0.42818064  1  -0.006953  -1.7e-05  -0.065268  -0.132938  -1.2e-05  3.914302  0.0
C  C103  1  0.14970656  0.79976623  0.06545665  1  0.040027  0.004054  -0.073806  -0.146219  0.002522  3.930869  0.003
C  C104  1  0.56813905  0.76329086  0.63003515  1  -0.026999  0.009901  -0.061196  -0.015645  0.00563  3.927392  0.006
C  C105  1  0.82911893  0.25008450  0.86463405  1  -0.008484  -0.009332  -0.059894  -0.012838  -0.005498  3.926469  -0.006
C  C106  1  0.42269720  0.23142676  0.35862714  1  8.7e-05  9e-06  -0.055405  -0.008796  2e-06  3.914895  0.0
C  C107  1  0.19098616  0.75863803  0.13331338  1  -0.019345  -0.00896  -0.059661  -0.013625  -0.005262  3.923463  -0.005
C  C108  1  0.63986554  0.73069119  0.69200340  1  -0.026917  -0.005839  -0.076007  -0.114231  -0.003517  3.950896  -0.005
C  C109  1  0.93179010  0.28013100  0.80266783  1  -0.032756  0.005779  -0.073687  -0.112232  0.00339  3.945997  0.005
C  C110  1  0.34937377  0.26277878  0.29653658  1  -0.039006  9e-06  -0.071731  -0.107118  6e-06  3.939426  0.0
C  C111  1  0.09017692  0.72771315  0.19599469  1  -0.021091  0.005809  -0.074245  -0.11067  0.00342  3.945615  0.005
C  C112  1  0.78823102  0.74003371  0.68378939  1  0.47302  0.007809  0.053603  0.105409  0.003805  3.929809  0.005
C  C113  1  0.06937874  0.26742817  0.81136941  1  0.459053  -0.007449  0.054127  0.105471  -0.003832  3.922713  -0.005
C  C114  1  0.20122267  0.25383723  0.30485199  1  0.483222  -4.4e-05  0.053012  0.094604  -3.7e-05  3.898338  0.0
C  C115  1  0.95104652  0.73815190  0.18799381  1  0.458569  -0.00718  0.055056  0.104807  -0.003664  3.921927  -0.005
C  C116  1  0.22343988  0.75754075  0.75226797  1  1.539603  -0.002969  0.211095  0.573816  -0.002846  4.173588  -0.002
C  C117  1  0.48416188  0.24831950  0.74183107  1  1.539909  0.002122  0.209222  0.569847  0.002186  4.173302  0.001
C  C118  1  0.77855809  0.23660781  0.26156880  1  1.534106  0.000167  0.208399  0.558729  8.7e-05  4.183268  0.0
C  C119  1  0.52624554  0.74940670  0.25264465  1  1.538261  0.002336  0.215831  0.575448  0.002213  4.166812  0.002
C  C120  1  0.28936374  0.68734983  0.78617036  1  -0.005564  -0.002893  -0.02718  -0.03199  -0.001969  4.057821  -0.002
C  C121  1  0.61662409  0.32082391  0.71052417  1  -0.068105  0.003938  -0.026992  -0.035911  0.002457  4.042693  0.003
C  C122  1  0.71746245  0.30601138  0.22158424  1  -0.090907  0.000586  -0.024866  -0.025134  0.000271  4.039013  0.0
C  C123  1  0.39480706  0.67904247  0.28561230  1  -0.004283  0.002879  -0.027327  -0.035595  0.00191  4.067433  0.002
C  C124  1  0.36289120  0.71641181  0.86898643  1  -0.102175  -0.001295  -0.106113  -0.175587  -0.000591  4.021207  -0.001
C  C125  1  0.66584331  0.29712802  0.62730110  1  -0.006113  0.001811  -0.102345  -0.168088  0.00103  3.995766  0.001
C  C126  1  0.64572672  0.27472482  0.13804164  1  -0.010463  0.000872  -0.108105  -0.179816  0.000631  4.01074  0.001
C  C127  1  0.34902338  0.70821431  0.36817232  1  -0.026037  0.001129  -0.102231  -0.170596  0.000427  4.007847  0.001
C  C128  1  0.42713186  0.65192815  0.90073332  1  -0.032588  0.00382  -0.021391  -0.014651  0.002469  4.041426  0.003
C  C129  1  0.79091190  0.36582727  0.60010437  1  -0.027158  0.000142  -0.021774  -0.01811  7.9e-05  4.034246  0.0
C  C130  1  0.58356242  0.33883077  0.10347077  1  0.004257  0.003488  -0.021327  -0.013457  0.00228  4.03781  0.002
C  C131  1  0.22322673  0.64443086  0.39908542  1  -0.02877  -0.003511  -0.019121  -0.010514  -0.002347  4.031795  -0.002
C  C132  1  0.41954447  0.55994787  0.84973114  1  -0.031656  -0.001245  -0.087824  -0.199735  -0.000605  3.887708  -0.001
C  C133  1  0.86524389  0.45596495  0.65524354  1  -0.03032  0.001204  -0.087626  -0.199136  0.000696  3.903037  0.001
C  C134  1  0.59059241  0.43177850  0.15224354  1  -0.003558  0.000599  -0.088513  -0.204363  0.000478  3.901965  0.0
C  C135  1  0.14356450  0.55278679  0.34798680  1  -0.025228  0.001268  -0.084776  -0.192272  0.000594  3.876122  0.001
C  C136  1  0.34632300  0.52999173  0.76508422  1  0.402158  0.000542  0.104173  0.243292  0.000273  4.08308  0.001
C  C137  1  0.81767865  0.48032930  0.73971404  1  0.418489  -0.00011  0.101462  0.24249  -8.1e-05  4.092286  0.0
C  C138  1  0.66267759  0.46439435  0.23699715  1  0.378398  0.000431  0.104738  0.247406  0.000192  4.084369  0.0
C  C139  1  0.18927696  0.52240375  0.26410899  1  0.428082  -0.000595  0.103538  0.242544  -0.000319  4.082733  -0.001
C  C140  1  0.28046676  0.59524656  0.73415476  1  -0.00851  -0.002495  -0.095015  -0.213028  -0.001504  3.906526  -0.001
C  C141  1  0.69170587  0.41092903  0.76673397  1  -0.062271  0.001527  -0.097745  -0.218675  0.000887  3.92261  0.001
C  C142  1  0.72641555  0.39971384  0.27095574  1  -0.018565  -0.000437  -0.095963  -0.216996  -0.00027  3.900059  0.0
C  C143  1  0.31628865  0.58723077  0.23331895  1  -0.06793  0.002197  -0.095804  -0.215877  0.001277  3.918223  0.001
C  C144  1  0.51522875  0.68932891  0.98607780  1  1.510748  -0.003294  0.195985  0.547754  -0.001078  4.172446  -0.006
C  C145  1  0.85905672  0.34254684  0.51576785  1  1.520336  7.4e-05  0.200088  0.536791  3.2e-05  4.164432  0.0
C  C146  1  0.49799482  0.30274122  0.01716064  1  1.498779  -0.003323  0.193783  0.547089  -0.001159  4.176559  -0.006
C  C147  1  0.16979445  0.68252886  0.48343532  1  1.525338  0.003498  0.196882  0.54905  0.00098  4.167543  0.006
C  C148  1  0.29432799  0.40838998  0.62403474  1  0.327549  2.5e-05  -0.056939  -0.050446  3.5e-05  3.943229  0.0
C  C149  1  0.87718563  0.59650861  0.88372148  1  0.327355  0.000172  -0.059217  -0.050938  6.1e-05  3.950101  0.0
C  C150  1  0.71343620  0.59096912  0.37479698  1  0.32752  -0.000125  -0.057234  -0.052282  -3.4e-05  3.94714  0.0
C  C151  1  0.12481977  0.40157265  0.12324919  1  0.349877  9.5e-05  -0.058947  -0.052607  2.6e-05  3.954642  0.0
C  C152  1  0.40339059  0.45835922  0.56063849  1  -0.069879  1.8e-05  -0.023907  0.071004  5e-06  3.964035  0.0
C  C153  1  0.94072144  0.54383317  0.94421315  1  -0.093026  1.9e-05  -0.022549  0.073388  1.3e-05  3.963875  0.0
C  C154  1  0.60422349  0.54020025  0.43762631  1  0.018143  1.1e-05  -0.023471  0.0717  -0.0  3.967973  0.0
C  C155  1  0.06446117  0.45548939  0.06253306  1  -0.03401  3e-06  -0.023711  0.071354  1e-06  3.975882  0.0
C  C156  1  0.55520011  0.49388505  0.58159490  1  -0.010363  6.3e-05  -0.105536  -0.134251  4e-05  4.018681  0.0
C  C157  1  0.06604575  0.51592244  0.92427540  1  -0.053949  -8.1e-05  -0.103491  -0.131975  -6.4e-05  4.005381  0.0
C  C158  1  0.45230051  0.50433130  0.41651229  1  -0.147334  4.6e-05  -0.105873  -0.134727  3.6e-05  4.014063  0.0
C  C159  1  0.93965327  0.48389764  0.08267691  1  -0.074739  -5.2e-05  -0.104434  -0.132613  -5.1e-05  4.011553  0.0
C  C160  1  0.35287393  0.46427013  0.47712655  1  -0.038077  7.4e-05  -0.102612  -0.141834  5.8e-05  3.983321  0.0
C  C161  1  0.87803449  0.52711643  0.02428348  1  0.000606  -5.1e-05  -0.101282  -0.140607  -5.3e-05  3.986863  0.0
C  C162  1  0.65456142  0.53384004  0.52090648  1  -0.129336  -1.2e-05  -0.101892  -0.140743  4e-06  3.9864  0.0
C  C163  1  0.12762416  0.47257875  0.98273736  1  -0.106423  -5.4e-05  -0.101441  -0.142448  -5.6e-05  3.991558  0.0
N  N164  1  0.02816160  0.84810289  0.49243850  1  -1.201437  -0.078068  -0.325046  -0.253299  -0.04893  3.584951  -0.07
N  N165  1  0.19486249  0.14561366  0.99830613  1  -1.205954  0.075098  -0.324357  -0.25698  0.045488  3.576789  0.067
N  N166  1  0.96775212  0.16023647  0.49446935  1  -1.172487  6.6e-05  -0.342572  -0.213115  4.6e-05  3.684978  0.0
N  N167  1  0.81386861  0.85242761  0.99954036  1  -1.207653  0.076712  -0.326471  -0.259608  0.046469  3.588636  0.068
N  N168  1  0.86500781  0.77989217  0.61880936  1  -1.205576  -0.067839  -0.331007  -0.266815  -0.042733  3.596987  -0.06
N  N169  1  0.10640640  0.22659508  0.87667866  1  -1.218479  0.070794  -0.324009  -0.2574  0.042979  3.574531  0.063
N  N170  1  0.12615699  0.21629917  0.37162849  1  -1.178964  1.1e-05  -0.339336  -0.219088  8e-06  3.657384  0.0
N  N171  1  0.91080773  0.77737431  0.12256047  1  -1.211491  0.070224  -0.326442  -0.254857  0.042631  3.576852  0.062
N  N172  1  0.34020650  0.43926538  0.71653870  1  -1.255316  0.000705  -0.445895  -0.337571  0.000377  3.603452  0.001
N  N173  1  0.89400616  0.57031537  0.79086543  1  -1.261355  -0.000523  -0.446804  -0.337171  -0.000303  3.598932  0.0
N  N174  1  0.67033802  0.55691623  0.28214645  1  -1.236101  0.000529  -0.443926  -0.337592  0.000268  3.601727  0.0
N  N175  1  0.11078508  0.43100856  0.21606163  1  -1.271989  -0.000105  -0.448219  -0.339639  -4.7e-05  3.603308  0.0
O  O176  1  0.18937263  0.92477524  0.66196144  1  -1.22029  -0.062017  -0.565958  -0.740748  -0.037984  2.213602  -0.055
O  O177  1  0.27519490  0.07688321  0.81914112  1  -1.218289  0.059141  -0.568146  -0.747511  0.035202  2.218997  0.053
O  O178  1  0.57014569  0.02727416  0.38990422  1  -1.283933  0.000196  -0.629474  -0.787739  9e-05  1.827417  0.0
O  O179  1  0.74333817  0.92611708  0.18171237  1  -1.226637  0.058232  -0.566828  -0.754518  0.034502  2.187535  0.051
O  O180  1  0.11307028  0.71764093  0.69616674  1  -1.149458  -0.052237  -0.314913  -0.55011  -0.032079  2.358973  -0.047
O  O181  1  0.41756568  0.28576360  0.80354320  1  -1.169154  0.054594  -0.318931  -0.556319  0.032345  2.353249  0.049
O  O182  1  0.90252178  0.28282319  0.30860319  1  -1.093961  4.1e-05  -0.310408  -0.490507  2.3e-05  2.445494  0.0
O  O183  1  0.59948124  0.71181502  0.19575711  1  -1.157019  0.052848  -0.31101  -0.542722  0.031339  2.353701  0.048
O  O184  1  0.28011154  0.85161524  0.78079832  1  -1.190256  -0.002755  -0.333323  -0.566255  -0.001355  2.174128  -0.003
O  O185  1  0.44561501  0.15583580  0.70681325  1  -1.178111  0.001934  -0.332556  -0.556404  0.000808  2.155016  0.002
O  O186  1  0.71218789  0.14409278  0.25039927  1  -1.197375  0.000979  -0.324873  -0.569536  0.000609  2.144926  0.0
O  O187  1  0.55840072  0.84314677  0.28291727  1  -1.193312  0.00233  -0.312756  -0.551251  0.001059  2.256837  0.002
O  O188  1  0.50427361  0.76820643  0.03587735  1  -1.140984  0.084093  -0.322395  -0.54447  0.048797  2.211443  0.075
O  O189  1  0.78621414  0.25831392  0.46279321  1  -1.063733  -3.7e-05  -0.308038  -0.464798  -2.8e-05  2.29503  0.0
O  O190  1  0.50847959  0.22427313  0.96678739  1  -1.141419  0.083673  -0.322918  -0.546919  0.048515  2.191269  0.075
O  O191  1  0.25618294  0.76125443  0.53318568  1  -1.14567  -0.088089  -0.322796  -0.545214  -0.052744  2.223421  -0.079
O  O192  1  0.61204256  0.65056365  0.00599897  1  -1.1221  0.097911  -0.302195  -0.512603  0.056452  2.18688  0.087
O  O193  1  0.98410728  0.39706251  0.50136027  1  -1.165423  -0.000115  -0.300658  -0.517445  -9.9e-05  2.181883  0.0
O  O194  1  0.40436605  0.34404047  0.99681725  1  -1.11894  0.091636  -0.307117  -0.517633  0.052984  2.183805  0.082
O  O195  1  0.03608492  0.64541664  0.50221391  1  -1.132145  -0.093559  -0.298793  -0.508055  -0.055911  2.193709  -0.084
