# generated using pymatgen
data_H4PbC7SN2O3
_symmetry_space_group_name_H-M   'P 1'
_cell_length_a   7.65127067
_cell_length_b   9.28630701
_cell_length_c   13.42034659
_cell_angle_alpha   104.24001072
_cell_angle_beta   89.99951250
_cell_angle_gamma   89.99918635
_symmetry_Int_Tables_number   1
_chemical_formula_structural   H4PbC7SN2O3
_chemical_formula_sum   'H16 Pb4 C28 S4 N8 O12'
_cell_volume   924.24436974
_cell_formula_units_Z   4
loop_
 _symmetry_equiv_pos_site_id
 _symmetry_equiv_pos_as_xyz
  1  'x, y, z'
loop_
 _atom_site_type_symbol
 _atom_site_label
 _atom_site_symmetry_multiplicity
 _atom_site_fract_x
 _atom_site_fract_y
 _atom_site_fract_z
 _atom_site_occupancy
 _atom_site_hle17_bader_spin_density
 _atom_site_hle17_ddec_charge
 _atom_site_hle17_ddec_spin_density
 _atom_site_hle17_ddec_sum_bond_order
 _atom_site_hle17_magmom
 _atom_site_hse06_10hf_bader_spin_density
 _atom_site_hse06_10hf_ddec_charge
 _atom_site_hse06_10hf_ddec_spin_density
 _atom_site_hse06_10hf_ddec_sum_bond_order
 _atom_site_hse06_10hf_magmom
 _atom_site_hse06_bader_spin_density
 _atom_site_hse06_ddec_charge
 _atom_site_hse06_ddec_spin_density
 _atom_site_hse06_ddec_sum_bond_order
 _atom_site_hse06_magmom
 _atom_site_pbe_bader_spin_density
 _atom_site_pbe_cm5_charge
 _atom_site_pbe_ddec_charge
 _atom_site_pbe_ddec_spin_density
 _atom_site_pbe_ddec_sum_bond_order
 _atom_site_pbe_magmom
H  H0  1  0.33253902  0.55077437  0.48692228  1  0  0.133184  0  0.950335  0  0  0.134801  0  1.022483  0  0  0.13911  0  1.017747  0  0  0.132173  0.131659  0  1.025893  0
H  H1  1  0.83253094  0.44923025  0.01307510  1  0  0.133167  0  0.950205  0  0  0.134772  0  1.022415  0  0  0.139081  0  1.017676  0  0  0.132191  0.131635  0  1.025827  0
H  H2  1  0.66746447  0.44922218  0.51307169  1  0  0.133182  0  0.950314  0  0  0.134823  0  1.022411  0  0  0.139137  0  1.017674  0  0  0.132167  0.131684  0  1.02583  0
H  H3  1  0.16747124  0.55076848  0.98692297  1  0  0.133208  0  0.950108  0  0  0.134817  0  1.022293  0  0  0.13913  0  1.017551  0  0  0.132199  0.131674  0  1.02571  0
H  H4  1  0.12194450  0.88688673  0.37174509  1  0  0.131197  0  0.939794  0  0  0.139287  0  0.999596  0  0  0.143247  0  0.995878  0  0  0.133978  0.136365  0  1.002358  0
H  H5  1  0.62196535  0.11310869  0.12825022  1  0  0.131207  0  0.939845  0  0  0.139282  0  0.999672  0  0  0.143237  0  0.995955  0  0  0.134031  0.136366  0  1.002421  0
H  H6  1  0.87801847  0.11309976  0.62825458  1  0  0.131148  0  0.939916  0  0  0.139255  0  0.999723  0  0  0.143204  0  0.996002  0  0  0.134031  0.136338  0  1.002472  0
H  H7  1  0.37804467  0.88688120  0.87174185  1  0  0.131179  0  0.939793  0  0  0.139287  0  0.999592  0  0  0.143248  0  0.995871  0  0  0.133986  0.136365  0  1.002357  0
H  H8  1  0.23791537  0.08518474  0.52088166  1  0  0.113884  0  0.969189  0  0  0.120745  0  1.03094  0  0  0.123835  0  1.030772  0  0  0.109051  0.118558  0  1.031244  0
H  H9  1  0.73793288  0.91481828  0.97911034  1  0  0.113823  0  0.969328  0  0  0.120767  0  1.03098  0  0  0.123858  0  1.030809  0  0  0.109057  0.118579  0  1.031283  0
H  H10  1  0.76206590  0.91481179  0.47911380  1  0  0.113952  0  0.969263  0  0  0.120827  0  1.030975  0  0  0.123917  0  1.030807  0  0  0.10911  0.118637  0  1.031284  0
H  H11  1  0.26208107  0.08517828  0.02088214  1  0  0.113857  0  0.969212  0  0  0.120803  0  1.03086  0  0  0.123893  0  1.030691  0  0  0.109058  0.118614  0  1.031169  0
H  H12  1  0.40987209  0.00523634  0.66060316  1  0  0.110401  0  0.966339  0  0  0.113674  0  1.038723  0  0  0.118029  0  1.034462  0  0  0.100222  0.110479  0  1.041813  0
H  H13  1  0.90988766  0.99476534  0.83938777  1  0  0.110414  0  0.96632  0  0  0.113775  0  1.038587  0  0  0.118134  0  1.034331  0  0  0.100238  0.110583  0  1.041669  0
H  H14  1  0.59010787  0.99475796  0.33939266  1  0  0.110449  0  0.966315  0  0  0.113793  0  1.038601  0  0  0.11815  0  1.034347  0  0  0.100239  0.110591  0  1.0417  0
H  H15  1  0.09012105  0.00523233  0.16060490  1  0  0.110363  0  0.966332  0  0  0.113669  0  1.038671  0  0  0.118026  0  1.034413  0  0  0.100216  0.110472  0  1.041764  0
Pb  Pb16  1  0.67274792  0.57348119  0.80835284  1  0  1.227975  0  1.477781  0  0  1.049173  0  1.872223  0  0  1.107285  0  1.834773  0  0  0.584798  1.007355  0  1.898397  0
Pb  Pb17  1  0.17275467  0.42653042  0.69165660  1  0  1.227962  0  1.47779  0  0  1.049162  0  1.872222  0  0  1.10727  0  1.834774  0  0  0.58478  1.007341  0  1.898399  0
Pb  Pb18  1  0.32725557  0.42652864  0.19165013  1  0  1.227995  0  1.477762  0  0  1.049209  0  1.872195  0  0  1.107316  0  1.834745  0  0  0.584802  1.007395  0  1.898377  0
Pb  Pb19  1  0.82725667  0.57348265  0.30835812  1  0  1.227991  0  1.477792  0  0  1.049211  0  1.872225  0  0  1.107316  0  1.834777  0  0  0.584796  1.007399  0  1.898401  0
C  C20  1  0.31740184  0.67021308  0.50024967  1  0  0.016886  0  3.547765  0  0  -0.035426  0  3.809051  0  0  -0.025731  0  3.819094  0  0  0.052778  -0.041445  0  3.802407  0
C  C21  1  0.81740040  0.32978759  0.99975494  1  0  0.016916  0  3.547668  0  0  -0.0354  0  3.808995  0  0  -0.025711  0  3.819039  0  0  0.05277  -0.04142  0  3.802358  0
C  C22  1  0.68259903  0.32978561  0.49975510  1  0  0.016927  0  3.547911  0  0  -0.035405  0  3.809179  0  0  -0.025716  0  3.819221  0  0  0.05283  -0.041428  0  3.802543  0
C  C23  1  0.18259787  0.67020780  0.00024404  1  0  0.016822  0  3.547586  0  0  -0.03546  0  3.808948  0  0  -0.025761  0  3.818978  0  0  0.05271  -0.041479  0  3.802308  0
C  C24  1  0.19777347  0.86325722  0.43457625  1  0  0.023703  0  3.550916  0  0  -0.018545  0  3.807325  0  0  -0.010383  0  3.819033  0  0  0.048888  -0.023578  0  3.799553  0
C  C25  1  0.69778309  0.13674041  0.06542355  1  0  0.023797  0  3.550912  0  0  -0.018457  0  3.807358  0  0  -0.01029  0  3.819057  0  0  0.048883  -0.023486  0  3.799583  0
C  C26  1  0.80221172  0.13673257  0.56542698  1  0  0.023787  0  3.550622  0  0  -0.018541  0  3.807132  0  0  -0.010367  0  3.818822  0  0  0.048833  -0.023574  0  3.799355  0
C  C27  1  0.30222040  0.86325501  0.93457245  1  0  0.023822  0  3.550775  0  0  -0.018465  0  3.807217  0  0  -0.010303  0  3.818924  0  0  0.048924  -0.023503  0  3.799446  0
C  C28  1  0.26281343  0.96865684  0.51791848  1  0  -0.092082  0  3.738461  0  0  -0.097938  0  3.989007  0  0  -0.105997  0  4.010007  0  0  -0.074105  -0.093062  0  3.974999  0
C  C29  1  0.76282655  0.03134468  0.98207760  1  0  -0.092104  0  3.738455  0  0  -0.098041  0  3.989045  0  0  -0.106099  0  4.010044  0  0  -0.074148  -0.093167  0  3.975043  0
C  C30  1  0.73716130  0.03133633  0.48208086  1  0  -0.092054  0  3.738438  0  0  -0.097911  0  3.98902  0  0  -0.105968  0  4.010017  0  0  -0.074148  -0.093041  0  3.975026  0
C  C31  1  0.23717694  0.96865185  0.01791785  1  0  -0.09211  0  3.738419  0  0  -0.098026  0  3.988971  0  0  -0.106087  0  4.00997  0  0  -0.074123  -0.093151  0  3.974968  0
C  C32  1  0.35812291  0.92470978  0.59395192  1  0  -0.009769  0  3.6661  0  0  -0.045827  0  3.920115  0  0  -0.03839  0  3.93395  0  0  -0.061743  -0.050222  0  3.910591  0
C  C33  1  0.85813378  0.07529372  0.90604330  1  0  -0.009919  0  3.665998  0  0  -0.046014  0  3.920025  0  0  -0.038583  0  3.933858  0  0  -0.061794  -0.050406  0  3.910504  0
C  C34  1  0.64186490  0.07529007  0.40604635  1  0  -0.009974  0  3.666545  0  0  -0.04609  0  3.920507  0  0  -0.03866  0  3.934348  0  0  -0.061752  -0.050484  0  3.910985  0
C  C35  1  0.14186971  0.92470283  0.09395066  1  0  -0.00975  0  3.666038  0  0  -0.045794  0  3.920097  0  0  -0.038356  0  3.933929  0  0  -0.061748  -0.050188  0  3.910576  0
C  C36  1  0.38599156  0.77319196  0.58416021  1  0  -0.085915  0  3.766058  0  0  -0.060149  0  4.005471  0  0  -0.071748  0  4.027225  0  0  -0.006777  -0.053105  0  3.991098  0
C  C37  1  0.88598790  0.22681223  0.91583871  1  0  -0.085865  0  3.765865  0  0  -0.060134  0  4.005381  0  0  -0.07173  0  4.02714  0  0  -0.006738  -0.053089  0  3.991013  0
C  C38  1  0.61399886  0.22680009  0.41584042  1  0  -0.085998  0  3.766215  0  0  -0.060178  0  4.005576  0  0  -0.071778  0  4.027336  0  0  -0.006871  -0.053133  0  3.9912  0
C  C39  1  0.11401167  0.77318538  0.08416140  1  0  -0.085771  0  3.76597  0  0  -0.060134  0  4.005548  0  0  -0.071738  0  4.027309  0  0  -0.006709  -0.05309  0  3.991172  0
C  C40  1  0.48599445  0.71720177  0.66326857  1  0  0.64365  0  3.925754  0  0  0.588963  0  4.220271  0  0  0.624097  0  4.214891  0  0  0.207709  0.565231  0  4.222945  0
C  C41  1  0.98600930  0.28280098  0.83672962  1  0  0.64368  0  3.92563  0  0  0.588937  0  4.220249  0  0  0.624069  0  4.214876  0  0  0.207696  0.565202  0  4.222928  0
C  C42  1  0.51400120  0.28280254  0.33672823  1  0  0.643528  0  3.925913  0  0  0.588833  0  4.220429  0  0  0.623971  0  4.21505  0  0  0.207684  0.565101  0  4.2231  0
C  C43  1  0.01400857  0.71719554  0.16326807  1  0  0.643522  0  3.925942  0  0  0.588875  0  4.220449  0  0  0.62401  0  4.215071  0  0  0.20765  0.565147  0  4.223125  0
C  C44  1  0.41357316  0.29228994  0.89299409  1  0  0.316744  0  3.973309  0  0  0.294153  0  4.277183  0  0  0.315613  0  4.293214  0  0  0.151276  0.279427  0  4.265931  0
C  C45  1  0.91358275  0.70771819  0.60701955  1  0  0.316594  0  3.973071  0  0  0.294007  0  4.276956  0  0  0.31547  0  4.29299  0  0  0.15121  0.279279  0  4.265698  0
C  C46  1  0.58643164  0.70771875  0.10701242  1  0  0.316565  0  3.973089  0  0  0.293979  0  4.276978  0  0  0.315443  0  4.293018  0  0  0.151185  0.279254  0  4.265719  0
C  C47  1  0.08642597  0.29230600  0.39299636  1  0  0.316855  0  3.973042  0  0  0.294273  0  4.276909  0  0  0.315732  0  4.292939  0  0  0.151326  0.279551  0  4.265646  0
S  S48  1  0.50256202  0.27095311  0.77892236  1  0  -0.373331  0  2.154952  0  0  -0.319807  0  2.464829  0  0  -0.344064  0  2.462322  0  0  -0.095007  -0.302602  0  2.466238  0
S  S49  1  0.00256050  0.72905093  0.72108660  1  0  -0.373146  0  2.155428  0  0  -0.31965  0  2.465362  0  0  -0.343906  0  2.462859  0  0  -0.094946  -0.302447  0  2.466766  0
S  S50  1  0.49745454  0.72905886  0.22109143  1  0  -0.373212  0  2.155055  0  0  -0.319715  0  2.464967  0  0  -0.34395  0  2.462419  0  0  -0.094967  -0.302507  0  2.466364  0
S  S51  1  0.99743907  0.27096780  0.27891569  1  0  -0.373402  0  2.154783  0  0  -0.31992  0  2.464723  0  0  -0.34417  0  2.462199  0  0  -0.095047  -0.302708  0  2.46611  0
N  N52  1  0.22566559  0.71612933  0.42749043  1  0  0.280807  0  3.690662  0  0  0.332441  0  3.951318  0  0  0.331294  0  3.972234  0  0  -0.109675  0.332384  0  3.937143  0
N  N53  1  0.72566602  0.28386792  0.07250693  1  0  0.280885  0  3.690828  0  0  0.332532  0  3.951469  0  0  0.331388  0  3.972382  0  0  -0.109696  0.332466  0  3.9373  0
N  N54  1  0.77431960  0.28386495  0.57250836  1  0  0.280955  0  3.690674  0  0  0.332603  0  3.951332  0  0  0.331462  0  3.972248  0  0  -0.109658  0.332546  0  3.937156  0
N  N55  1  0.27433616  0.71612527  0.92748943  1  0  0.280793  0  3.690668  0  0  0.332438  0  3.951314  0  0  0.331291  0  3.972225  0  0  -0.109658  0.332384  0  3.937133  0
N  N56  1  0.34933083  0.30524566  0.97494490  1  0  -0.544553  0  2.703415  0  0  -0.495608  0  2.952838  0  0  -0.516621  0  2.963121  0  0  -0.352511  -0.481038  0  2.945864  0
N  N57  1  0.84933401  0.69476459  0.52505600  1  0  -0.544576  0  2.70267  0  0  -0.495617  0  2.952062  0  0  -0.516634  0  2.962346  0  0  -0.352504  -0.481044  0  2.945082  0
N  N58  1  0.65066874  0.69475979  0.02504763  1  0  -0.544473  0  2.702997  0  0  -0.49552  0  2.952401  0  0  -0.516538  0  2.962687  0  0  -0.352459  -0.48095  0  2.945419  0
N  N59  1  0.15066164  0.30525968  0.47494799  1  0  -0.544564  0  2.70329  0  0  -0.495608  0  2.952709  0  0  -0.516619  0  2.96299  0  0  -0.352491  -0.48104  0  2.945722  0
O  O60  1  0.16020210  0.61489741  0.34853976  1  0  -0.605349  0  1.903568  0  0  -0.543877  0  2.151128  0  0  -0.573396  0  2.15532  0  0  -0.220818  -0.522636  0  2.14747  0
O  O61  1  0.66021138  0.38509855  0.15145919  1  0  -0.605469  0  1.903668  0  0  -0.543943  0  2.15111  0  0  -0.573454  0  2.155291  0  0  -0.220811  -0.522718  0  2.147506  0
O  O62  1  0.83978570  0.38509019  0.65146011  1  0  -0.60552  0  1.903434  0  0  -0.544045  0  2.151014  0  0  -0.573542  0  2.155151  0  0  -0.220881  -0.522805  0  2.147361  0
O  O63  1  0.33980126  0.61489354  0.84853624  1  0  -0.605395  0  1.903557  0  0  -0.543914  0  2.151108  0  0  -0.573446  0  2.155331  0  0  -0.220848  -0.522674  0  2.147452  0
O  O64  1  0.49259206  0.57496659  0.65061547  1  0  -0.678476  0  2.03116  0  0  -0.601623  0  2.270618  0  0  -0.634252  0  2.265624  0  0  -0.299656  -0.578665  0  2.273277  0
O  O65  1  0.99260688  0.42503938  0.84938623  1  0  -0.678525  0  2.031264  0  0  -0.601633  0  2.270766  0  0  -0.634261  0  2.265773  0  0  -0.299668  -0.578674  0  2.273429  0
O  O66  1  0.50741404  0.42504436  0.34938621  1  0  -0.678397  0  2.031407  0  0  -0.601596  0  2.270947  0  0  -0.634227  0  2.265953  0  0  -0.299624  -0.578638  0  2.273611  0
O  O67  1  0.00742406  0.57496154  0.15061744  1  0  -0.678475  0  2.031305  0  0  -0.601656  0  2.270831  0  0  -0.634283  0  2.265835  0  0  -0.29969  -0.578703  0  2.273497  0
O  O68  1  0.55680880  0.80904785  0.73719102  1  0  -0.608946  0  1.930095  0  0  -0.554421  0  2.15416  0  0  -0.58192  0  2.147832  0  0  -0.300579  -0.53509  0  2.157747  0
O  O69  1  0.05680942  0.19095554  0.76280191  1  0  -0.608917  0  1.929983  0  0  -0.554385  0  2.154117  0  0  -0.581882  0  2.147789  0  0  -0.300564  -0.53505  0  2.157695  0
O  O70  1  0.44318031  0.19095869  0.26280543  1  0  -0.608869  0  1.930066  0  0  -0.554339  0  2.154137  0  0  -0.581842  0  2.147813  0  0  -0.300549  -0.535009  0  2.157722  0
O  O71  1  0.94320322  0.80903985  0.23719781  1  0  -0.608876  0  1.930132  0  0  -0.554355  0  2.154209  0  0  -0.58186  0  2.147887  0  0  -0.300512  -0.53501  0  2.157762  0
