# generated using pymatgen
data_Zn2H12C27(NO5)2
_symmetry_space_group_name_H-M   'P 1'
_cell_length_a   9.88031204
_cell_length_b   10.96353289
_cell_length_c   11.86654496
_cell_angle_alpha   90.12037316
_cell_angle_beta   89.63368555
_cell_angle_gamma   89.70316358
_symmetry_Int_Tables_number   1
_chemical_formula_structural   Zn2H12C27(NO5)2
_chemical_formula_sum   'Zn2 H12 C27 N2 O10'
_cell_volume   1285.37479701
_cell_formula_units_Z   1
loop_
 _symmetry_equiv_pos_site_id
 _symmetry_equiv_pos_as_xyz
  1  'x, y, z'
loop_
 _atom_site_type_symbol
 _atom_site_label
 _atom_site_symmetry_multiplicity
 _atom_site_fract_x
 _atom_site_fract_y
 _atom_site_fract_z
 _atom_site_occupancy
 _atom_site_pbe_bader_charge
 _atom_site_pbe_bader_spin_density
 _atom_site_pbe_cm5_charge
 _atom_site_pbe_ddec_charge
 _atom_site_pbe_ddec_spin_density
 _atom_site_pbe_ddec_sum_bond_order
 _atom_site_pbe_magmom
Zn  Zn0  1  0.35584004  0.49501574  0.50119615  1  1.292553  0  0.678315  0.839026  0  2.365394  0
Zn  Zn1  1  0.65024235  0.49220186  0.50406767  1  1.295002  0  0.677402  0.839674  0  2.36601  0
H  H2  1  0.54408721  0.86553923  0.66432531  1  0.107645  0  0.108426  0.120059  0  0.996605  0
H  H3  1  0.12638146  0.82974479  0.74826930  1  0.085542  0  0.115177  0.110925  0  0.970895  0
H  H4  1  0.25429365  0.67781337  0.63515225  1  0.114612  0  0.113139  0.133249  0  1.035221  0
H  H5  1  0.13312165  0.35711122  0.40060858  1  0.15162  0  0.140484  0.12022  0  0.955977  0
H  H6  1  0.43786291  0.78398856  0.27738550  1  0.073908  0  0.104631  0.114532  0  1.003828  0
H  H7  1  0.39791897  0.91232682  0.11025144  1  0.086329  0  0.1036  0.099204  0  0.990887  0
H  H8  1  0.39649340  0.14004069  0.12761393  1  0.066816  0  0.10249  0.09962  0  0.993987  0
H  H9  1  0.43748869  0.23758015  0.31109521  1  0.048203  0  0.099727  0.109222  0  1.037237  0
H  H10  1  0.87658402  0.35735007  0.40051796  1  0.124595  0  0.140481  0.11977  0  0.953692  0
H  H11  1  0.74884730  0.67259002  0.64218070  1  0.153497  0  0.113905  0.135858  0  1.041255  0
H  H12  1  0.87353241  0.82609213  0.75286948  1  0.097684  0  0.114049  0.110893  0  0.97586  0
H  H13  1  0.59469519  0.07462547  0.86211610  1  0.608327  0  0.345263  0.382219  0  0.857141  0
C  C14  1  0.49234527  0.72882379  0.48583492  1  1.546049  0  0.222108  0.606587  0  4.170422  0
C  C15  1  0.41618487  0.95503722  0.19182507  1  -0.085446  0  -0.08996  -0.079113  0  4.041238  0
C  C16  1  0.41576029  0.08364095  0.20150431  1  -0.039603  0  -0.093959  -0.08939  0  4.043413  0
C  C17  1  0.43929282  0.13843678  0.30414927  1  -0.009588  0  -0.089018  -0.121473  0  3.956257  0
C  C18  1  0.46478987  0.06705001  0.40179083  1  0.05186  0  -0.000895  0.050561  0  3.951222  0
C  C19  1  0.46383466  0.93646738  0.39191191  1  -0.035452  0  0.004179  0.068143  0  3.957085  0
C  C20  1  0.49269568  0.86547427  0.48948000  1  0.000564  0  -0.010039  -0.062739  0  3.956377  0
C  C21  1  0.52115765  0.92095328  0.59078665  1  -0.006322  0  -0.085327  -0.122942  0  3.970402  0
C  C22  1  0.51896485  0.04970741  0.60184805  1  0.033874  0  -0.019212  -0.07233  0  3.999824  0
C  C23  1  0.49195762  0.12204254  0.50826868  1  0.028184  0  0.011736  -0.045127  0  3.860534  0
C  C24  1  0.85853759  0.67391537  0.64122236  1  -0.050591  0  -0.076299  -0.142403  0  3.923033  0
C  C25  1  0.51062224  0.50459854  0.72085083  1  1.638977  0  0.225596  0.664245  0  4.237995  0
C  C26  1  0.92914032  0.75929346  0.70219249  1  -0.043307  0  -0.067  -0.047911  0  3.975347  0
C  C27  1  0.07228003  0.76137839  0.69948481  1  -0.005903  0  -0.066257  -0.047531  0  3.977382  0
C  C28  1  0.14454286  0.67773296  0.63627301  1  0.03596  0  -0.076041  -0.141407  0  3.925983  0
C  C29  1  0.07513282  0.58903753  0.57239678  1  0.511861  0  0.129153  0.175831  0  3.924483  0
C  C30  1  0.92943644  0.58761887  0.57419874  1  0.412686  0  0.130476  0.176949  0  3.920382  0
C  C31  1  0.93270184  0.42361312  0.45028013  1  0.588642  0  0.080589  0.066619  0  3.882957  0
C  C32  1  0.07551778  0.42373505  0.44997335  1  0.519572  0  0.080391  0.068518  0  3.880424  0
C  C33  1  0.49382382  0.25949968  0.51330013  1  1.578184  0  0.220777  0.609983  0  4.195281  0
C  C34  1  0.51190770  0.48320957  0.28346305  1  1.652456  0  0.217821  0.649699  0  4.264801  0
C  C35  1  0.50577005  0.50435767  0.84243760  1  0.288611  0  -0.010778  -0.129832  0  3.860119  0
C  C36  1  0.50675416  0.50158862  0.94548458  1  -0.366639  0  -0.022078  0.008024  0  4.259022  0
C  C37  1  0.50861848  0.49595015  0.05901499  1  -0.371654  0  -0.02065  0.0184  0  4.261495  0
C  C38  1  0.51145560  0.48947306  0.16193532  1  0.261767  0  -0.021026  -0.152808  0  3.878538  0
C  C39  1  0.43902134  0.88303034  0.28503747  1  -0.020035  0  -0.087437  -0.125539  0  3.96563  0
C  C40  1  0.54318363  0.10788657  0.71262663  1  1.446136  0  0.22629  0.566425  0  4.12471  0
N  N41  1  0.86145995  0.50328638  0.51085788  1  -1.197703  0  -0.283037  -0.188482  0  3.445104  0
N  N42  1  0.14485664  0.50453106  0.50925705  1  -1.232601  0  -0.284948  -0.190837  0  3.452463  0
O  O43  1  0.38116754  0.67650974  0.46314008  1  -1.166814  0  -0.310381  -0.545357  0  2.328588  0
O  O44  1  0.60313057  0.67583110  0.50944047  1  -1.173163  0  -0.308265  -0.550309  0  2.371012  0
O  O45  1  0.39952785  0.52460041  0.66991686  1  -1.156014  0  -0.307085  -0.548537  0  2.299812  0
O  O46  1  0.62633355  0.48652562  0.67654613  1  -1.125867  0  -0.299456  -0.521805  0  2.288366  0
O  O47  1  0.37965144  0.31219863  0.52399657  1  -1.162126  0  -0.314002  -0.542401  0  2.317128  0
O  O48  1  0.60834456  0.30916303  0.49755781  1  -1.157518  0  -0.314207  -0.547683  0  2.309238  0
O  O49  1  0.39815149  0.46186813  0.33054620  1  -1.142175  0  -0.311377  -0.546029  0  2.26592  0
O  O50  1  0.62559717  0.49979544  0.33103621  1  -1.131264  0  -0.312524  -0.537951  0  2.250865  0
O  O51  1  0.52924626  0.21636470  0.73396848  1  -1.117166  0  -0.276956  -0.463224  0  2.134185  0
O  O52  1  0.58313148  0.02609254  0.79347835  1  -1.104764  0  -0.347991  -0.501301  0  2.2091  0
