# generated using pymatgen
data_ZnH7C10N3O2
_symmetry_space_group_name_H-M   'P 1'
_cell_length_a   9.69994176
_cell_length_b   9.73055277
_cell_length_c   19.98735834
_cell_angle_alpha   99.79419233
_cell_angle_beta   104.03177710
_cell_angle_gamma   89.99842503
_symmetry_Int_Tables_number   1
_chemical_formula_structural   ZnH7C10N3O2
_chemical_formula_sum   'Zn4 H28 C40 N12 O8'
_cell_volume   1801.87919314
_cell_formula_units_Z   4
loop_
 _symmetry_equiv_pos_site_id
 _symmetry_equiv_pos_as_xyz
  1  'x, y, z'
loop_
 _atom_site_type_symbol
 _atom_site_label
 _atom_site_symmetry_multiplicity
 _atom_site_fract_x
 _atom_site_fract_y
 _atom_site_fract_z
 _atom_site_occupancy
 _atom_site_hle17_bader_spin_density
 _atom_site_hle17_ddec_charge
 _atom_site_hle17_ddec_spin_density
 _atom_site_hle17_ddec_sum_bond_order
 _atom_site_hle17_magmom
 _atom_site_hse06_10hf_bader_spin_density
 _atom_site_hse06_10hf_ddec_charge
 _atom_site_hse06_10hf_ddec_spin_density
 _atom_site_hse06_10hf_ddec_sum_bond_order
 _atom_site_hse06_10hf_magmom
 _atom_site_hse06_bader_spin_density
 _atom_site_hse06_ddec_charge
 _atom_site_hse06_ddec_spin_density
 _atom_site_hse06_ddec_sum_bond_order
 _atom_site_hse06_magmom
 _atom_site_pbe_bader_spin_density
 _atom_site_pbe_cm5_charge
 _atom_site_pbe_ddec_charge
 _atom_site_pbe_ddec_spin_density
 _atom_site_pbe_ddec_sum_bond_order
 _atom_site_pbe_magmom
Zn  Zn0  1  0.46357368  0.40012011  0.56818752  1  0  0.909354  0  1.994258  0  0  0.708891  0  2.476311  0  0  0.752462  0  2.428016  0  0  0.712849  0.678761  0  2.509406  0
Zn  Zn1  1  0.89543866  0.09990167  0.43180478  1  0  0.909409  0  1.994923  0  0  0.708797  0  2.476853  0  0  0.75238  0  2.428554  0  0  0.712603  0.678651  0  2.509938  0
Zn  Zn2  1  0.53642136  0.59987756  0.43181073  1  0  0.909363  0  1.994278  0  0  0.708824  0  2.476368  0  0  0.752399  0  2.428075  0  0  0.712799  0.678692  0  2.509447  0
Zn  Zn3  1  0.10455959  0.90009716  0.56819644  1  0  0.909427  0  1.994824  0  0  0.70882  0  2.476743  0  0  0.752403  0  2.428444  0  0  0.712619  0.678676  0  2.509821  0
H  H4  1  0.49405146  0.54192529  0.79794080  1  0  0.1046  0  0.940748  0  0  0.113842  0  1.000479  0  0  0.117226  0  0.998492  0  0  0.104495  0.111326  0  1.002032  0
H  H5  1  0.69629751  0.95789090  0.20188375  1  0  0.104769  0  0.940321  0  0  0.113697  0  1.000309  0  0  0.117196  0  0.99818  0  0  0.104917  0.111182  0  1.001848  0
H  H6  1  0.50595189  0.45806710  0.20205555  1  0  0.104621  0  0.940618  0  0  0.113855  0  1.000365  0  0  0.117244  0  0.998373  0  0  0.104474  0.111344  0  1.001919  0
H  H7  1  0.30370630  0.04211417  0.79811759  1  0  0.104762  0  0.940315  0  0  0.113722  0  1.000266  0  0  0.117189  0  0.998176  0  0  0.1049  0.11121  0  1.001806  0
H  H8  1  0.54175275  0.52603879  0.92457472  1  0  0.08787  0  0.958542  0  0  0.098608  0  1.019985  0  0  0.101406  0  1.019501  0  0  0.097012  0.09661  0  1.020416  0
H  H9  1  0.61725339  0.97418332  0.07535822  1  0  0.088379  0  0.958849  0  0  0.098833  0  1.020539  0  0  0.101628  0  1.020044  0  0  0.097128  0.096851  0  1.020971  0
H  H10  1  0.45824243  0.47396191  0.07542127  1  0  0.087889  0  0.95857  0  0  0.098621  0  1.02002  0  0  0.101418  0  1.019537  0  0  0.097001  0.096632  0  1.020441  0
H  H11  1  0.38275263  0.02582390  0.92464454  1  0  0.088315  0  0.958846  0  0  0.098764  0  1.020548  0  0  0.101564  0  1.020047  0  0  0.097121  0.096788  0  1.020977  0
H  H12  1  0.68327481  0.10746901  0.87927315  1  0  0.091833  0  0.945635  0  0  0.104905  0  0.999657  0  0  0.107763  0  0.999082  0  0  0.102767  0.10289  0  1.000135  0
H  H13  1  0.80396736  0.39276486  0.12081177  1  0  0.091669  0  0.94551  0  0  0.104462  0  0.999867  0  0  0.107302  0  0.999321  0  0  0.102578  0.102454  0  1.000346  0
H  H14  1  0.31672863  0.89252676  0.12072947  1  0  0.091825  0  0.945722  0  0  0.104951  0  0.999685  0  0  0.10781  0  0.999107  0  0  0.102819  0.102937  0  1.000164  0
H  H15  1  0.19602400  0.60724869  0.87919321  1  0  0.09163  0  0.945597  0  0  0.104463  0  0.99989  0  0  0.107303  0  0.999343  0  0  0.102562  0.102452  0  1.000364  0
H  H16  1  0.63950861  0.12721700  0.75375717  1  0  0.102672  0  0.938212  0  0  0.112236  0  0.995814  0  0  0.116145  0  0.992965  0  0  0.104937  0.109395  0  0.99793  0
H  H17  1  0.88604233  0.37258398  0.24627735  1  0  0.103891  0  0.93746  0  0  0.112468  0  0.99602  0  0  0.11643  0  0.993089  0  0  0.105325  0.109629  0  0.998132  0
H  H18  1  0.36049685  0.87277553  0.24624244  1  0  0.102758  0  0.938245  0  0  0.112312  0  0.995847  0  0  0.116222  0  0.992997  0  0  0.104951  0.109468  0  0.997964  0
H  H19  1  0.11395305  0.62742322  0.75372514  1  0  0.103828  0  0.937486  0  0  0.112421  0  0.996027  0  0  0.116382  0  0.993098  0  0  0.105308  0.10958  0  0.998135  0
H  H20  1  0.65664795  0.41031044  0.02058119  1  0  0.085693  0  0.954424  0  0  0.098841  0  1.014307  0  0  0.101731  0  1.012545  0  0  0.100223  0.096777  0  1.01565  0
H  H21  1  0.63559331  0.09002180  0.97942246  1  0  0.085203  0  0.954289  0  0  0.098609  0  1.014032  0  0  0.101418  0  1.012353  0  0  0.100177  0.096582  0  1.015339  0
H  H22  1  0.34335154  0.58969243  0.97941697  1  0  0.085662  0  0.954393  0  0  0.09881  0  1.014277  0  0  0.1017  0  1.012514  0  0  0.100209  0.096751  0  1.015613  0
H  H23  1  0.36440841  0.90998439  0.02058071  1  0  0.085257  0  0.954351  0  0  0.098658  0  1.014103  0  0  0.101467  0  1.012426  0  0  0.100225  0.096637  0  1.015404  0
H  H24  1  0.28316271  0.80865440  0.44088289  1  0  0.115459  0  0.914878  0  0  0.126758  0  0.970374  0  0  0.129246  0  0.967315  0  0  0.146988  0.124835  0  0.972678  0
H  H25  1  0.84237110  0.69100744  0.55890909  1  0  0.116064  0  0.914252  0  0  0.127282  0  0.969884  0  0  0.129779  0  0.966809  0  0  0.14716  0.125356  0  0.972191  0
H  H26  1  0.71683457  0.19134643  0.55911636  1  0  0.115432  0  0.914773  0  0  0.12673  0  0.970271  0  0  0.129215  0  0.967211  0  0  0.146987  0.124806  0  0.972581  0
H  H27  1  0.15762499  0.30899029  0.44109079  1  0  0.116048  0  0.914256  0  0  0.127265  0  0.969899  0  0  0.129762  0  0.966824  0  0  0.147171  0.125342  0  0.972205  0
H  H28  1  0.22838598  0.61068190  0.60502279  1  0  0.116257  0  0.927551  0  0  0.127386  0  0.982687  0  0  0.129909  0  0.979673  0  0  0.146101  0.125412  0  0.984965  0
H  H29  1  0.62327612  0.88954512  0.39505409  1  0  0.115943  0  0.928992  0  0  0.127778  0  0.983302  0  0  0.130199  0  0.980397  0  0  0.146337  0.125866  0  0.985512  0
H  H30  1  0.77161123  0.38931681  0.39497529  1  0  0.116258  0  0.927608  0  0  0.127404  0  0.982735  0  0  0.129923  0  0.979716  0  0  0.146134  0.125433  0  0.985016  0
H  H31  1  0.37672424  0.11045257  0.60494479  1  0  0.115908  0  0.929041  0  0  0.127753  0  0.98334  0  0  0.130171  0  0.980438  0  0  0.146326  0.125846  0  0.985547  0
C  C32  1  0.54284094  0.34353483  0.69264747  1  0  0.624161  0  3.921214  0  0  0.580754  0  4.20506  0  0  0.614829  0  4.198919  0  0  0.191006  0.557669  0  4.208376  0
C  C33  1  0.85047659  0.15623676  0.30730705  1  0  0.62422  0  3.921751  0  0  0.581314  0  4.204813  0  0  0.615374  0  4.198685  0  0  0.191707  0.558228  0  4.208128  0
C  C34  1  0.45716231  0.65645557  0.30735123  1  0  0.624209  0  3.921223  0  0  0.58077  0  4.205091  0  0  0.614847  0  4.198947  0  0  0.19094  0.55767  0  4.208422  0
C  C35  1  0.14952825  0.84376732  0.69269534  1  0  0.624163  0  3.921857  0  0  0.581204  0  4.20493  0  0  0.615266  0  4.198799  0  0  0.191635  0.558123  0  4.208243  0
C  C36  1  0.56431255  0.33534855  0.76817116  1  0  -0.068596  0  3.769073  0  0  -0.045025  0  3.999358  0  0  -0.055014  0  4.024817  0  0  -0.021488  -0.03848  0  3.982071  0
C  C37  1  0.79642071  0.16448031  0.23178563  1  0  -0.068453  0  3.770611  0  0  -0.044998  0  4.000444  0  0  -0.054986  0  4.025938  0  0  -0.021771  -0.038458  0  3.983168  0
C  C38  1  0.43568876  0.66464594  0.23182561  1  0  -0.06846  0  3.768876  0  0  -0.044879  0  3.999153  0  0  -0.054867  0  4.024613  0  0  -0.021429  -0.03833  0  3.981867  0
C  C39  1  0.20358523  0.83552477  0.76821596  1  0  -0.068398  0  3.770506  0  0  -0.044817  0  4.000179  0  0  -0.054806  0  4.025667  0  0  -0.021709  -0.038283  0  3.982911  0
C  C40  1  0.53554309  0.44736576  0.81642678  1  0  -0.060087  0  3.746622  0  0  -0.085353  0  3.993942  0  0  -0.083957  0  4.014715  0  0  -0.083316  -0.085972  0  3.979734  0
C  C41  1  0.71938293  0.05254242  0.18348231  1  0  -0.060263  0  3.746315  0  0  -0.085225  0  3.993653  0  0  -0.083929  0  4.014392  0  0  -0.083857  -0.085833  0  3.979458  0
C  C42  1  0.46445613  0.55262976  0.18356981  1  0  -0.060104  0  3.746486  0  0  -0.085363  0  3.993809  0  0  -0.083972  0  4.014581  0  0  -0.083275  -0.085989  0  3.979613  0
C  C43  1  0.28062514  0.94746268  0.81651954  1  0  -0.060195  0  3.7461  0  0  -0.085221  0  3.993371  0  0  -0.083899  0  4.01412  0  0  -0.08377  -0.085824  0  3.979179  0
C  C44  1  0.56157222  0.43747543  0.88701833  1  0  -0.127531  0  3.739379  0  0  -0.144085  0  3.984119  0  0  -0.149748  0  4.006612  0  0  -0.092494  -0.140304  0  3.968759  0
C  C45  1  0.67473392  0.06262505  0.11292366  1  0  -0.127454  0  3.740464  0  0  -0.143996  0  3.984981  0  0  -0.149669  0  4.007515  0  0  -0.09226  -0.140232  0  3.969608  0
C  C46  1  0.43842499  0.56252327  0.11297975  1  0  -0.127603  0  3.739497  0  0  -0.144172  0  3.98422  0  0  -0.149836  0  4.006713  0  0  -0.092519  -0.140388  0  3.968855  0
C  C47  1  0.32527308  0.93738008  0.88707906  1  0  -0.127456  0  3.740447  0  0  -0.143992  0  3.98497  0  0  -0.149666  0  4.007492  0  0  -0.092292  -0.140231  0  3.969605  0
C  C48  1  0.61342906  0.31472552  0.91121641  1  0  0.097619  0  3.830597  0  0  0.11586  0  4.06115  0  0  0.117857  0  4.086526  0  0  -0.009908  0.114685  0  4.043775  0
C  C49  1  0.70231473  0.18546839  0.08878038  1  0  0.096215  0  3.829753  0  0  0.115221  0  4.059368  0  0  0.11723  0  4.084709  0  0  -0.010317  0.114045  0  4.041997  0
C  C50  1  0.38657051  0.68527954  0.08878442  1  0  0.097704  0  3.830819  0  0  0.115995  0  4.061294  0  0  0.117993  0  4.086668  0  0  -0.009846  0.114815  0  4.043931  0
C  C51  1  0.29768497  0.81453976  0.91121970  1  0  0.096311  0  3.829667  0  0  0.1153  0  4.059278  0  0  0.117306  0  4.084612  0  0  -0.010344  0.114118  0  4.041921  0
C  C52  1  0.63952648  0.20219192  0.86180446  1  0  -0.117305  0  3.738683  0  0  -0.133602  0  3.98167  0  0  -0.138873  0  4.004364  0  0  -0.089725  -0.13012  0  3.96618  0
C  C53  1  0.77779921  0.29795381  0.13823510  1  0  -0.115599  0  3.73554  0  0  -0.131782  0  3.977974  0  0  -0.137049  0  4.000669  0  0  -0.088705  -0.12831  0  3.962506  0
C  C54  1  0.36047714  0.79780792  0.13819597  1  0  -0.117376  0  3.739084  0  0  -0.133729  0  3.982045  0  0  -0.139002  0  4.00474  0  0  -0.089829  -0.13025  0  3.96656  0
C  C55  1  0.22220055  0.70205653  0.86176765  1  0  -0.115669  0  3.735582  0  0  -0.131876  0  3.978012  0  0  -0.13714  0  4.0007  0  0  -0.088709  -0.128397  0  3.962533  0
C  C56  1  0.61617262  0.21274054  0.79166693  1  0  -0.061615  0  3.756975  0  0  -0.085754  0  4.003983  0  0  -0.08485  0  4.024835  0  0  -0.081939  -0.086096  0  3.989708  0
C  C57  1  0.82470579  0.28718678  0.20834086  1  0  -0.063833  0  3.757289  0  0  -0.087109  0  4.004348  0  0  -0.086253  0  4.025125  0  0  -0.082956  -0.087441  0  3.990143  0
C  C58  1  0.38383076  0.78725300  0.20833201  1  0  -0.061799  0  3.757236  0  0  -0.085947  0  4.00426  0  0  -0.085045  0  4.025113  0  0  -0.081999  -0.086279  0  3.989977  0
C  C59  1  0.17529487  0.71281938  0.79166169  1  0  -0.06374  0  3.757174  0  0  -0.087074  0  4.004204  0  0  -0.086218  0  4.024982  0  0  -0.082912  -0.087404  0  3.989992  0
C  C60  1  0.64406828  0.30893499  0.98575219  1  0  -0.116369  0  3.761875  0  0  -0.138328  0  4.016617  0  0  -0.140589  0  4.037185  0  0  -0.091202  -0.136668  0  4.002399  0
C  C61  1  0.65824158  0.19136814  0.01425964  1  0  -0.116141  0  3.760863  0  0  -0.138488  0  4.015423  0  0  -0.140684  0  4.036023  0  0  -0.092255  -0.136863  0  4.001185  0
C  C62  1  0.35593238  0.69107112  0.01424885  1  0  -0.116292  0  3.761744  0  0  -0.138264  0  4.016471  0  0  -0.140528  0  4.037041  0  0  -0.091154  -0.136606  0  4.002255  0
C  C63  1  0.34175806  0.80863900  0.98574136  1  0  -0.116218  0  3.760757  0  0  -0.138575  0  4.015334  0  0  -0.140769  0  4.035933  0  0  -0.0923  -0.136949  0  4.00109  0
C  C64  1  0.29135614  0.73860980  0.47839317  1  0  0.223238  0  3.682229  0  0  0.163953  0  3.947132  0  0  0.178016  0  3.96066  0  0  0.15595  0.154815  0  3.937745  0
C  C65  1  0.81302810  0.76118349  0.52146822  1  0  0.222513  0  3.684804  0  0  0.162991  0  3.949519  0  0  0.177067  0  3.963092  0  0  0.155456  0.153853  0  3.940103  0
C  C66  1  0.70864004  0.26139001  0.52160637  1  0  0.223364  0  3.682031  0  0  0.164108  0  3.946941  0  0  0.178177  0  3.960466  0  0  0.156018  0.154976  0  3.937559  0
C  C67  1  0.18697008  0.23881319  0.47853133  1  0  0.222597  0  3.684787  0  0  0.163075  0  3.949516  0  0  0.177149  0  3.96309  0  0  0.155461  0.153936  0  3.940097  0
C  C68  1  0.26499849  0.63648199  0.56129578  1  0  0.227864  0  3.666694  0  0  0.171135  0  3.925435  0  0  0.18483  0  3.93917  0  0  0.156623  0.162221  0  3.916  0
C  C69  1  0.70366022  0.86360874  0.43871595  1  0  0.227018  0  3.667889  0  0  0.16972  0  3.926607  0  0  0.183501  0  3.940382  0  0  0.155829  0.160756  0  3.917146  0
C  C70  1  0.73499655  0.36351566  0.43870197  1  0  0.227875  0  3.66664  0  0  0.171121  0  3.92537  0  0  0.184826  0  3.9391  0  0  0.156576  0.162207  0  3.915934  0
C  C71  1  0.29634013  0.13638895  0.56128294  1  0  0.227049  0  3.667838  0  0  0.169744  0  3.926578  0  0  0.183529  0  3.940351  0  0  0.155843  0.160773  0  3.917119  0
N  N72  1  0.21871468  0.74498409  0.52864071  1  0  -0.415808  0  3.254992  0  0  -0.331283  0  3.552125  0  0  -0.354123  0  3.5627  0  0  -0.355056  -0.315959  0  3.544566  0
N  N73  1  0.69007884  0.75500391  0.47130730  1  0  -0.415579  0  3.256806  0  0  -0.330897  0  3.553909  0  0  -0.353768  0  3.564483  0  0  -0.355168  -0.315572  0  3.546374  0
N  N74  1  0.78128036  0.25501360  0.47135804  1  0  -0.415883  0  3.254944  0  0  -0.331356  0  3.552081  0  0  -0.354204  0  3.562658  0  0  -0.355099  -0.316033  0  3.544526  0
N  N75  1  0.30992041  0.24499273  0.52869138  1  0  -0.415605  0  3.256724  0  0  -0.330954  0  3.553869  0  0  -0.353819  0  3.564438  0  0  -0.355189  -0.315622  0  3.546332  0
N  N76  1  0.37791641  0.63231061  0.47987665  1  0  -0.270836  0  3.256915  0  0  -0.19942  0  3.557733  0  0  -0.216029  0  3.570335  0  0  -0.256886  -0.188408  0  3.549266  0
N  N77  1  0.89809238  0.86750009  0.52000520  1  0  -0.271903  0  3.258905  0  0  -0.199742  0  3.55919  0  0  -0.216391  0  3.571829  0  0  -0.256555  -0.188701  0  3.550691  0
N  N78  1  0.62207973  0.36768811  0.52012181  1  0  -0.27087  0  3.256939  0  0  -0.199539  0  3.557831  0  0  -0.216148  0  3.570431  0  0  -0.256932  -0.188533  0  3.549371  0
N  N79  1  0.10190477  0.13249767  0.47999531  1  0  -0.271942  0  3.258886  0  0  -0.199761  0  3.559135  0  0  -0.21641  0  3.571777  0  0  -0.256534  -0.188713  0  3.550629  0
N  N80  1  0.36121765  0.56708871  0.53326300  1  0  -0.273382  0  3.228353  0  0  -0.203599  0  3.524192  0  0  -0.22003  0  3.53785  0  0  -0.254457  -0.192667  0  3.514989  0
N  N81  1  0.82794858  0.93291597  0.46671799  1  0  -0.27134  0  3.227833  0  0  -0.201975  0  3.523662  0  0  -0.218375  0  3.537321  0  0  -0.253693  -0.191064  0  3.514454  0
N  N82  1  0.63877739  0.43290894  0.46673474  1  0  -0.273417  0  3.228334  0  0  -0.203587  0  3.524168  0  0  -0.220018  0  3.537825  0  0  -0.254444  -0.192649  0  3.514955  0
N  N83  1  0.17205070  0.06708180  0.53328278  1  0  -0.271354  0  3.227601  0  0  -0.201983  0  3.523416  0  0  -0.218388  0  3.537077  0  0  -0.253713  -0.191069  0  3.514206  0
O  O84  1  0.58128166  0.24636881  0.65125752  1  0  -0.639469  0  1.903588  0  0  -0.592416  0  2.123778  0  0  -0.616061  0  2.112544  0  0  -0.336496  -0.575855  0  2.130949  0
O  O85  1  0.93026475  0.25340349  0.34870134  1  0  -0.639732  0  1.903402  0  0  -0.592612  0  2.123173  0  0  -0.616268  0  2.111948  0  0  -0.337142  -0.576054  0  2.130344  0
O  O86  1  0.41872266  0.75362162  0.34874181  1  0  -0.639399  0  1.903703  0  0  -0.592331  0  2.123896  0  0  -0.615978  0  2.112662  0  0  -0.336387  -0.575762  0  2.131065  0
O  O87  1  0.06973795  0.74660060  0.65130130  1  0  -0.639706  0  1.903376  0  0  -0.592579  0  2.123161  0  0  -0.616235  0  2.111936  0  0  -0.337122  -0.576019  0  2.130329  0
O  O88  1  0.48142135  0.45203252  0.67060904  1  0  -0.63522  0  1.976876  0  0  -0.564114  0  2.223653  0  0  -0.591921  0  2.209639  0  0  -0.345317  -0.544698  0  2.232567  0
O  O89  1  0.81105598  0.04777999  0.32935465  1  0  -0.635376  0  1.978046  0  0  -0.564485  0  2.224692  0  0  -0.592298  0  2.210681  0  0  -0.345208  -0.545066  0  2.23361  0
O  O90  1  0.51858178  0.54795475  0.32938942  1  0  -0.635371  0  1.976918  0  0  -0.564219  0  2.223685  0  0  -0.592027  0  2.209671  0  0  -0.345337  -0.544799  0  2.232603  0
O  O91  1  0.18894776  0.95222300  0.67064653  1  0  -0.63542  0  1.978081  0  0  -0.564529  0  2.224747  0  0  -0.592341  0  2.210729  0  0  -0.345234  -0.545113  0  2.233666  0
