# generated using pymatgen
data_CuH8C5N3ClO6
_symmetry_space_group_name_H-M   'P 1'
_cell_length_a   7.13644793
_cell_length_b   8.56632425
_cell_length_c   16.81127148
_cell_angle_alpha   90.00728247
_cell_angle_beta   89.99611604
_cell_angle_gamma   104.16077847
_symmetry_Int_Tables_number   1
_chemical_formula_structural   CuH8C5N3ClO6
_chemical_formula_sum   'Cu4 H32 C20 N12 Cl4 O24'
_cell_volume   996.49613504
_cell_formula_units_Z   4
loop_
 _symmetry_equiv_pos_site_id
 _symmetry_equiv_pos_as_xyz
  1  'x, y, z'
loop_
 _atom_site_type_symbol
 _atom_site_label
 _atom_site_symmetry_multiplicity
 _atom_site_fract_x
 _atom_site_fract_y
 _atom_site_fract_z
 _atom_site_occupancy
 _atom_site_hle17_ddec_charge
 _atom_site_hle17_ddec_spin_density
 _atom_site_hle17_ddec_sum_bond_order
 _atom_site_hle17_magmom
 _atom_site_hse06_10hf_bader_charge
 _atom_site_hse06_10hf_bader_spin_density
 _atom_site_hse06_10hf_ddec_charge
 _atom_site_hse06_10hf_ddec_spin_density
 _atom_site_hse06_10hf_ddec_sum_bond_order
 _atom_site_hse06_10hf_magmom
 _atom_site_hse06_ddec_charge
 _atom_site_hse06_ddec_spin_density
 _atom_site_hse06_ddec_sum_bond_order
 _atom_site_hse06_magmom
 _atom_site_pbe_cm5_charge
 _atom_site_pbe_ddec_charge
 _atom_site_pbe_ddec_spin_density
 _atom_site_pbe_ddec_sum_bond_order
 _atom_site_pbe_magmom
Cu  Cu0  1  0.23528683  0.87817870  0.20295090  1  0.87196  0.715919  1.782573  0.519  1.123698  0.635588  0.847377  0.800262  2.177053  0.632  0.934084  0.872091  2.111956  0.712  0.745754  0.791181  0.742606  2.224072  0.576
Cu  Cu1  1  0.26479920  0.62129452  0.70277464  1  0.871398  -0.716214  1.783892  -0.519  1.123704  -0.635724  0.847069  -0.800386  2.178359  -0.632  0.933665  -0.872177  2.113374  -0.712  0.745849  0.790786  -0.742589  2.225498  -0.576
Cu  Cu2  1  0.76481407  0.12129994  0.79722531  1  0.871586  0.716217  1.783442  0.519  1.123416  0.635717  0.847049  0.800403  2.178201  0.632  0.933807  0.872198  2.113011  0.712  0.745783  0.790756  0.742607  2.225348  0.576
Cu  Cu3  1  0.73529956  0.37817204  0.29706251  1  0.872269  -0.715962  1.782824  -0.519  1.123663  -0.63558  0.847724  -0.800272  2.177378  -0.632  0.934384  -0.872086  2.112347  -0.712  0.74609  0.791656  -0.742612  2.224244  -0.576
H  H4  1  0.65863542  0.98746509  0.16321727  1  0.306425  -0.000238  0.896815  0.0  0.558412  3.4e-05  0.284654  -6.8e-05  0.963409  0.0  0.291961  -6.3e-05  0.957541  0.0  0.327312  0.279364  -6.5e-05  0.967827  0.0
H  H5  1  0.84126671  0.51213959  0.66302279  1  0.306586  0.000236  0.896685  0.0  0.55004  -3.9e-05  0.284847  6.7e-05  0.963399  0.0  0.292188  6.2e-05  0.957434  0.0  0.327341  0.279556  6.4e-05  0.967876  0.0
H  H6  1  0.34127257  0.01215720  0.83697798  1  0.306424  -0.000238  0.896847  0.0  0.550131  3.9e-05  0.28485  -6.7e-05  0.963376  0.0  0.292175  -6.2e-05  0.957402  0.0  0.327345  0.279556  -6.4e-05  0.967838  0.0
H  H7  1  0.15865614  0.48750913  0.33676262  1  0.306487  0.000239  0.897009  0.0  0.558115  -3.4e-05  0.284972  6.8e-05  0.963228  0.0  0.292285  6.3e-05  0.957343  0.0  0.327294  0.279671  6.5e-05  0.967674  0.0
H  H8  1  0.96485436  0.87077093  0.30523819  1  0.31848  -0.00089  0.915823  -0.003  0.47066  -0.000808  0.306269  6.6e-05  0.97485  -0.001  0.313272  -8e-05  0.970607  -0.001  0.29531  0.301394  0.000173  0.97797  -0.001
H  H9  1  0.53543799  0.62787079  0.80486436  1  0.317672  0.000886  0.916377  0.003  0.467277  0.000808  0.305774  -7e-05  0.975198  0.001  0.312841  7.7e-05  0.970882  0.001  0.295232  0.300855  -0.000177  0.978361  0.001
H  H10  1  0.03543900  0.12784739  0.69511347  1  0.31782  -0.000887  0.916138  -0.003  0.466786  -0.000807  0.305727  7.1e-05  0.975203  -0.001  0.312786  -7.7e-05  0.970908  -0.001  0.295214  0.30085  0.000179  0.978274  -0.001
H  H11  1  0.46483642  0.37073062  0.19479966  1  0.3185  0.00089  0.916068  0.003  0.470771  0.000809  0.306339  -6.6e-05  0.975028  0.001  0.313349  8e-05  0.97078  0.001  0.295355  0.30146  -0.000173  0.978151  0.001
H  H12  1  0.14307856  0.79315951  0.33733847  1  0.301352  -0.000792  0.894482  -0.002  0.464073  -0.000173  0.289345  0.000281  0.959286  0.0  0.294855  4.6e-05  0.95703  -0.001  0.299441  0.285431  0.000469  0.961108  0.0
H  H13  1  0.35860329  0.70730918  0.83673264  1  0.300914  0.00081  0.894585  0.002  0.466976  0.000205  0.289205  -0.000268  0.958889  0.0  0.294775  -3.4e-05  0.956497  0.001  0.299397  0.285268  -0.000453  0.960789  0.0
H  H14  1  0.85858941  0.20725858  0.66326425  1  0.300916  -0.000812  0.894813  -0.002  0.466918  -0.000205  0.289184  0.000268  0.959117  0.0  0.294755  3.4e-05  0.956733  -0.001  0.299495  0.285246  0.000453  0.961018  0.0
H  H15  1  0.64302014  0.29308596  0.16266434  1  0.301347  0.000793  0.894291  0.002  0.464999  0.000169  0.289291  -0.000283  0.959194  0.0  0.294839  -4.7e-05  0.956886  0.001  0.299444  0.285374  -0.00047  0.961023  0.0
H  H16  1  0.22016566  0.02637425  0.41353452  1  0.108513  0.002614  0.909197  0.003  0.087559  0.003471  0.125029  0.001772  0.960817  0.002  0.12564  0.001319  0.96135  0.002  0.117961  0.124416  0.002053  0.960639  0.002
H  H17  1  0.27819389  0.47531896  0.91357232  1  0.108332  -0.002604  0.908351  -0.003  0.084791  -0.003457  0.125036  -0.001759  0.96034  -0.002  0.125591  -0.001311  0.960892  -0.002  0.118176  0.12445  -0.002038  0.960151  -0.002
H  H18  1  0.77818926  0.97524039  0.58642169  1  0.108383  0.002601  0.908588  0.003  0.085045  0.003457  0.12504  0.00176  0.960524  0.002  0.125608  0.00131  0.961093  0.002  0.118173  0.124455  0.002038  0.960334  0.002
H  H19  1  0.72014032  0.52628730  0.08648502  1  0.108535  -0.002612  0.909387  -0.003  0.087964  -0.003468  0.124967  -0.001771  0.961187  -0.002  0.125568  -0.001318  0.961721  -0.002  0.118009  0.12436  -0.002052  0.961007  -0.002
H  H20  1  0.11060123  0.12580981  0.34089640  1  0.117114  0.000126  0.930862  0.0  0.139265  0.000174  0.127497  2.4e-05  0.992848  0.0  0.128082  3.9e-05  0.99428  0.0  0.120449  0.126938  9e-06  0.992131  0.0
H  H21  1  0.38846185  0.37413961  0.84195299  1  0.117388  -0.000147  0.930229  0.0  0.101612  -0.000188  0.127654  -3.3e-05  0.992495  0.0  0.12823  -4.5e-05  0.993885  0.0  0.120521  0.127095  -2e-05  0.991795  0.0
H  H22  1  0.88847945  0.87409914  0.65802830  1  0.117511  0.000147  0.930301  0.0  0.101434  0.000189  0.127786  3.3e-05  0.992483  0.0  0.128383  4.5e-05  0.993861  0.0  0.120552  0.127227  2e-05  0.991786  0.0
H  H23  1  0.61058433  0.62575278  0.15913216  1  0.117337  -0.000126  0.930633  0.0  0.139167  -0.000173  0.127495  -2.4e-05  0.992898  0.0  0.128069  -3.8e-05  0.994331  0.0  0.120479  0.126943  -9e-06  0.99218  0.0
H  H24  1  0.83498434  0.92852633  0.03979205  1  0.120902  0.00053  0.940536  0.001  0.160424  0.000674  0.132104  0.000359  0.998269  0.0  0.134752  0.000283  0.995079  0.0  0.128925  0.130033  0.000409  1.000707  0.001
H  H25  1  0.66512891  0.57157363  0.53967252  1  0.121144  -0.000531  0.940169  -0.001  0.161425  -0.000672  0.13219  -0.000359  0.998106  0.0  0.134841  -0.000283  0.994915  0.0  0.128895  0.13012  -0.000408  1.000517  -0.001
H  H26  1  0.16511090  0.07163889  0.96032410  1  0.121078  0.000527  0.940196  0.001  0.161044  0.000673  0.132189  0.000359  0.998021  0.0  0.134845  0.000283  0.994821  0.0  0.128953  0.130104  0.000408  1.000467  0.001
H  H27  1  0.33502245  0.42860592  0.46017477  1  0.120811  -0.000527  0.940424  -0.001  0.159761  -0.000672  0.132047  -0.000359  0.998129  0.0  0.134699  -0.000283  0.994934  0.0  0.128846  0.129972  -0.000408  1.00057  -0.001
H  H28  1  0.55874968  0.73237158  0.94660269  1  0.121943  3.4e-05  0.979822  0.001  0.102267  7e-05  0.133624  -0.000184  1.035499  0.0  0.136818  -0.000136  1.034974  0.0  0.104899  0.13131  -0.00022  1.036133  0.0
H  H29  1  0.94149708  0.76832875  0.44674680  1  0.12213  -3.1e-05  0.979818  -0.001  0.100051  -7.1e-05  0.133935  0.000184  1.035343  0.0  0.13716  0.000136  1.034787  0.0  0.104917  0.131594  0.000221  1.036008  0.0
H  H30  1  0.44142698  0.26838610  0.05326901  1  0.122163  3.1e-05  0.979705  0.001  0.100156  7e-05  0.133928  -0.000184  1.035293  0.0  0.137152  -0.000136  1.034738  0.0  0.104824  0.131603  -0.000221  1.03594  0.0
H  H31  1  0.05879888  0.23241070  0.55335866  1  0.121949  -3.5e-05  0.979768  -0.001  0.102348  -7e-05  0.133697  0.000183  1.035369  0.0  0.136895  0.000135  1.034834  0.0  0.104906  0.131389  0.00022  1.036  0.0
H  H32  1  0.21997164  0.69947792  0.03411394  1  0.118407  1.3e-05  0.941732  0.0  0.141938  0.000217  0.129259  4.8e-05  0.998743  0.0  0.132094  3.6e-05  0.995345  0.0  0.124041  0.127039  6e-05  1.001287  0.0
H  H33  1  0.28010195  0.80087562  0.53432661  1  0.118479  -1.3e-05  0.942197  0.0  0.141697  -0.000217  0.12936  -4.8e-05  0.999085  0.0  0.132209  -3.6e-05  0.995707  0.0  0.12403  0.127138  -6.1e-05  1.001633  0.0
H  H34  1  0.78007787  0.30092101  0.96570301  1  0.118574  1.7e-05  0.94203  0.0  0.141421  0.000218  0.129443  4.9e-05  0.99891  0.0  0.132289  3.6e-05  0.995537  0.0  0.124093  0.127221  6.1e-05  1.001463  0.0
H  H35  1  0.72002958  0.19947384  0.46584904  1  0.11822  -1.3e-05  0.941972  0.0  0.142874  -0.000217  0.129112  -4.8e-05  0.998917  0.0  0.131951  -3.6e-05  0.995523  0.0  0.123888  0.126886  -6.1e-05  1.001459  0.0
C  C36  1  0.68114312  0.88338247  0.04916568  1  0.084369  -0.002059  3.647425  -0.001  0.412288  -0.000882  0.035666  -0.000135  3.911372  0.0  0.047089  -0.000742  3.922718  0.0  0.031217  0.028332  0.000316  3.903547  0.001
C  C37  1  0.81895482  0.61670402  0.54911603  1  0.083587  0.002045  3.646974  0.001  0.411624  0.000874  0.035005  0.00013  3.911094  0.0  0.046435  0.000739  3.922423  0.0  0.03096  0.027718  -0.00032  3.903257  -0.001
C  C38  1  0.31892300  0.11676953  0.95089218  1  0.084016  -0.00203  3.647438  -0.001  0.41394  -0.00088  0.03546  -0.000132  3.91142  0.0  0.046855  -0.000738  3.922732  0.0  0.030962  0.028159  0.00032  3.903605  0.001
C  C39  1  0.18119355  0.38344182  0.45080799  1  0.085186  0.002016  3.647099  0.001  0.411964  0.000879  0.036501  0.000133  3.911008  0.0  0.047924  0.000739  3.922356  0.0  0.031578  0.029169  -0.000318  3.903154  -0.001
C  C40  1  0.53783561  0.78348193  0.00370928  1  -0.211216  0.003242  3.763533  0.004  0.008057  0.001981  -0.224547  0.00133  4.023077  0.002  -0.234802  0.001202  4.042303  0.002  -0.118663  -0.2178  0.001403  4.00993  0.002
C  C41  1  0.96232233  0.71690118  0.50378692  1  -0.21138  -0.003254  3.762609  -0.004  -0.055665  -0.002043  -0.224733  -0.00133  4.021829  -0.002  -0.235016  -0.001202  4.041085  -0.002  -0.118751  -0.217963  -0.001406  4.00867  -0.002
C  C42  1  0.46226066  0.21695669  0.99622546  1  -0.211565  0.003246  3.763658  0.004  -0.057475  0.002048  -0.224914  0.001333  4.022879  0.002  -0.235206  0.001201  4.042148  0.002  -0.118611  -0.21816  0.001407  4.009721  0.002
C  C43  1  0.03789959  0.28352640  0.49625370  1  -0.211559  -0.003214  3.763814  -0.004  0.009181  -0.001983  -0.224994  -0.001331  4.023409  -0.002  -0.235261  -0.001204  4.042664  -0.002  -0.118895  -0.218252  -0.001405  4.010245  -0.002
C  C44  1  0.36664435  0.76518510  0.04764061  1  0.055774  -0.002738  3.70602  -0.002  0.409891  -0.000999  0.018644  -0.000274  3.977192  0.0  0.030568  -0.001105  3.990797  -0.001  0.02027  0.011186  0.000348  3.967947  0.001
C  C45  1  0.13344584  0.73502818  0.54774079  1  0.055468  0.002733  3.706988  0.002  0.472741  0.001055  0.018199  0.000274  3.978162  0.0  0.030086  0.001105  3.991786  0.001  0.020137  0.010735  -0.000346  3.968913  -0.001
C  C46  1  0.63341879  0.23507049  0.95227866  1  0.055352  -0.002741  3.707895  -0.002  0.474091  -0.001057  0.018144  -0.000278  3.978994  0.0  0.030029  -0.001107  3.992646  -0.001  0.020118  0.010688  0.000345  3.969731  0.001
C  C47  1  0.86668968  0.26520683  0.45231766  1  0.055853  0.002713  3.706278  0.002  0.40949  0.000998  0.018623  0.000273  3.977419  0.0  0.030549  0.001104  3.99101  0.001  0.020374  0.011161  -0.000349  3.968184  -0.001
C  C48  1  0.39678475  0.11715813  0.31195011  1  0.681217  0.001861  3.799375  0.004  1.612993  0.001339  0.639515  0.001422  4.10863  0.003  0.678603  0.001375  4.103642  0.003  0.218474  0.612615  0.001317  4.111125  0.003
C  C49  1  0.10297629  0.38289421  0.81194598  1  0.679788  -0.001895  3.801725  -0.004  1.610967  -0.001353  0.638762  -0.001433  4.110064  -0.003  0.677773  -0.001381  4.10512  -0.003  0.217722  0.611908  -0.001332  4.112519  -0.003
C  C50  1  0.60298899  0.88285341  0.68804767  1  0.679491  0.001883  3.802285  0.004  1.621795  0.001392  0.638384  0.001431  4.11072  0.003  0.677436  0.00138  4.105721  0.003  0.217607  0.611486  0.001331  4.113249  0.003
C  C51  1  0.89679460  0.61710771  0.18807441  1  0.680557  -0.001867  3.800598  -0.004  1.612178  -0.001348  0.639573  -0.001428  4.108796  -0.003  0.67861  -0.001378  4.103863  -0.003  0.218401  0.612674  -0.001322  4.111315  -0.003
C  C52  1  0.20240182  0.04135211  0.34940686  1  -0.091401  -0.008576  3.642275  -0.013  0.278082  -0.006156  -0.144662  -0.003751  3.901129  -0.007  -0.145537  -0.002843  3.912185  -0.006  -0.07341  -0.14406  -0.004465  3.894098  -0.008
C  C53  1  0.29694873  0.45909497  0.84959718  1  -0.090774  0.008586  3.642694  0.013  0.324312  0.006136  -0.144475  0.003729  3.902457  0.007  -0.145245  0.002826  3.913478  0.006  -0.073451  -0.143887  0.004441  3.895352  0.008
C  C54  1  0.79695338  0.95905397  0.65039048  1  -0.090822  -0.008582  3.643762  -0.013  0.312796  -0.006177  -0.144387  -0.00373  3.903328  -0.007  -0.145235  -0.002823  3.914444  -0.006  -0.073416  -0.143805  -0.004441  3.896253  -0.008
C  C55  1  0.70239064  0.54130034  0.15061476  1  -0.091013  0.008574  3.642289  0.013  0.278365  0.00616  -0.144333  0.003759  3.901168  0.007  -0.145149  0.002846  3.912195  0.006  -0.073487  -0.143744  0.004472  3.894152  0.008
N  N56  1  0.40393850  0.84872874  0.11596540  1  -0.235802  0.057415  3.264273  0.071  -0.741816  0.060556  -0.210138  0.041279  3.587587  0.054  -0.23605  0.03586  3.606942  0.049  -0.28854  -0.194291  0.043567  3.576376  0.055
N  N57  1  0.09604909  0.65114625  0.61594761  1  -0.235733  -0.05743  3.265353  -0.071  -0.74228  -0.06058  -0.209978  -0.041294  3.588658  -0.054  -0.23585  -0.035869  3.607997  -0.049  -0.288537  -0.19409  -0.043587  3.577464  -0.055
N  N58  1  0.59603326  0.15118010  0.88406866  1  -0.235607  0.057456  3.265571  0.071  -0.742222  0.060589  -0.209829  0.041303  3.588912  0.054  -0.23577  0.035874  3.608246  0.049  -0.288648  -0.19394  0.043595  3.577707  0.055
N  N59  1  0.90394705  0.34873605  0.38400437  1  -0.235734  -0.057347  3.264886  -0.071  -0.743976  -0.060551  -0.209935  -0.041274  3.588175  -0.054  -0.235833  -0.035857  3.607515  -0.049  -0.288548  -0.19412  -0.043561  3.576953  -0.055
N  N60  1  0.59539136  0.91950046  0.11577875  1  -0.159258  0.00281  3.492425  0.003  -0.869183  0.003633  -0.095146  0.002051  3.732152  0.002  -0.106593  0.001694  3.752946  0.002  -0.283796  -0.087505  0.002241  3.71849  0.002
N  N61  1  0.90464576  0.58030752  0.61567193  1  -0.159013  -0.002807  3.492354  -0.003  -0.857798  -0.003621  -0.095133  -0.002047  3.732065  -0.002  -0.106569  -0.001693  3.75284  -0.002  -0.283927  -0.087596  -0.002238  3.718493  -0.002
N  N62  1  0.40462772  0.08035050  0.88433204  1  -0.1592  0.002801  3.492599  0.003  -0.859181  0.003624  -0.095462  0.002048  3.732256  0.002  -0.106808  0.001693  3.752962  0.002  -0.283925  -0.087902  0.002238  3.718646  0.002
N  N63  1  0.09541707  0.41953491  0.38420093  1  -0.159845  -0.002821  3.492314  -0.003  -0.867887  -0.003633  -0.095973  -0.002053  3.731899  -0.002  -0.107431  -0.001695  3.75268  -0.002  -0.283961  -0.088328  -0.002243  3.718239  -0.002
N  N64  1  0.11265236  0.88952119  0.30882129  1  -0.584928  0.093777  3.192407  0.116  -1.150998  0.09064  -0.571912  0.058558  3.478171  0.075  -0.604038  0.047073  3.481622  0.064  -0.64856  -0.551686  0.063929  3.477253  0.079
N  N65  1  0.38774357  0.61003847  0.80856878  1  -0.583135  -0.093708  3.193082  -0.115  -1.152637  -0.090566  -0.570611  -0.058501  3.479382  -0.075  -0.602698  -0.047032  3.482768  -0.063  -0.648272  -0.550411  -0.063858  3.47846  -0.079
N  N66  1  0.88775134  0.11000996  0.69141975  1  -0.583408  0.093704  3.193821  0.115  -1.151524  0.090558  -0.570663  0.058498  3.48021  0.075  -0.602765  0.047029  3.483638  0.063  -0.648365  -0.550451  0.063852  3.47928  0.079
N  N67  1  0.61262045  0.38946740  0.19119817  1  -0.585395  -0.093807  3.19264  -0.116  -1.151729  -0.090667  -0.572266  -0.058573  3.478305  -0.075  -0.604455  -0.047084  3.481739  -0.064  -0.648653  -0.552062  -0.063953  3.477384  -0.079
Cl  Cl68  1  0.04254866  0.22814545  0.15656783  1  1.380437  8e-06  6.190437  0.0  3.160062  -4.6e-05  1.315941  -4.7e-05  6.761089  0.0  1.367686  -2.1e-05  6.738686  0.0  0.725727  1.280515  -7e-05  6.774993  0.0
Cl  Cl69  1  0.45759761  0.27154778  0.65675208  1  1.380111  -1e-06  6.189916  0.0  3.15841  5e-05  1.315967  4.9e-05  6.759746  0.0  1.367791  2.4e-05  6.737263  0.0  0.725559  1.280482  7.3e-05  6.773679  0.0
Cl  Cl70  1  0.95756510  0.77158969  0.84325327  1  1.380135  1e-06  6.189863  0.0  3.158297  -5.1e-05  1.316266  -5.1e-05  6.759439  0.0  1.368114  -2.4e-05  6.736914  0.0  0.725479  1.280735  -7.3e-05  6.773415  0.0
Cl  Cl71  1  0.54249781  0.72823441  0.34344139  1  1.380356  -6e-06  6.191045  0.0  3.156743  4.5e-05  1.315657  4.6e-05  6.761972  0.0  1.367393  2.2e-05  6.739562  0.0  0.72537  1.280213  7e-05  6.775883  0.0
O  O72  1  0.50530419  0.23611863  0.34726562  1  -0.55018  -0.071771  2.055701  -0.097  -1.154205  -0.07667  -0.52719  -0.049729  2.336901  -0.073  -0.572053  -0.04016  2.329623  -0.062  -0.303372  -0.495354  -0.05426  2.340865  -0.078
O  O73  1  0.99449901  0.26396521  0.84728531  1  -0.549964  0.071695  2.056663  0.097  -1.153656  0.076609  -0.527159  0.049679  2.337776  0.073  -0.571985  0.040132  2.330455  0.062  -0.303245  -0.495261  0.054186  2.341674  0.077
O  O74  1  0.49451871  0.76392174  0.65271194  1  -0.549719  -0.07167  2.057257  -0.097  -1.153917  -0.076593  -0.526852  -0.049672  2.338286  -0.073  -0.571667  -0.040128  2.330988  -0.062  -0.303045  -0.494933  -0.054178  2.342194  -0.077
O  O75  1  0.00531039  0.73603423  0.15275470  1  -0.550328  0.071767  2.055913  0.097  -1.154226  0.076661  -0.527485  0.049721  2.336794  0.073  -0.572335  0.040152  2.329536  0.062  -0.303559  -0.495647  0.054253  2.340805  0.078
O  O76  1  0.43771190  0.06132354  0.24545541  1  -0.581464  0.081197  2.084212  0.108  -1.156856  0.088549  -0.556221  0.057127  2.376537  0.082  -0.598309  0.045963  2.368891  0.069  -0.314856  -0.527941  0.06337  2.381764  0.088
O  O77  1  0.06224859  0.43837231  0.74533710  1  -0.580527  -0.081037  2.085643  -0.108  -1.158455  -0.088448  -0.555381  -0.057047  2.377373  -0.082  -0.597516  -0.045915  2.369953  -0.069  -0.314099  -0.527093  -0.06327  2.382568  -0.088
O  O78  1  0.56225760  0.93834562  0.75466311  1  -0.580515  0.081036  2.085357  0.108  -1.157955  0.088438  -0.555444  0.057041  2.377307  0.082  -0.597651  0.045904  2.369945  0.069  -0.314245  -0.527137  0.06326  2.382522  0.088
O  O79  1  0.93766167  0.56128126  0.25457322  1  -0.58095  -0.081152  2.085315  -0.108  -1.157332  -0.088514  -0.556201  -0.05711  2.377683  -0.082  -0.598247  -0.045958  2.36999  -0.069  -0.314574  -0.527926  -0.063348  2.382897  -0.088
O  O80  1  0.88331322  0.15255854  0.21060629  1  -0.563834  0.000432  1.87621  0.0  -1.007321  0.000327  -0.542547  0.000298  2.145026  0.0  -0.55733  0.000414  2.127646  0.0  -0.311881  -0.532232  0.00015  2.156924  0.0
O  O81  1  0.61781107  0.34721350  0.71033355  1  -0.564361  -0.00041  1.877184  0.0  -1.008021  -0.000353  -0.542897  -0.000318  2.1456  0.0  -0.557694  -0.000418  2.128257  0.0  -0.311915  -0.532596  -0.000169  2.157531  0.0
O  O82  1  0.11778938  0.84718469  0.78966807  1  -0.564399  0.000434  1.877337  0.0  -1.007759  0.000349  -0.5431  0.000315  2.145745  0.0  -0.557892  0.000422  2.128397  0.0  -0.31191  -0.532785  0.000167  2.157671  0.0
O  O83  1  0.38330628  0.65260311  0.28938166  1  -0.564011  -0.000441  1.876074  0.0  -1.006609  -0.000331  -0.54271  -0.0003  2.14487  0.0  -0.557493  -0.000414  2.127492  0.0  -0.311942  -0.532358  -0.000151  2.156744  0.0
O  O84  1  0.19576434  0.33168833  0.20393840  1  -0.53503  1.2e-05  1.891348  0.0  -1.01238  -0.000145  -0.496604  -1.2e-05  2.13029  0.0  -0.512447  6.1e-05  2.118685  0.0  -0.305664  -0.485577  -9.5e-05  2.137996  0.0
O  O85  1  0.30495199  0.16861236  0.70461704  1  -0.535007  7e-06  1.891758  0.0  -1.014818  0.000139  -0.496551  9e-06  2.130686  0.0  -0.51262  -6e-05  2.119242  0.0  -0.305639  -0.485383  9.3e-05  2.138275  0.0
O  O86  1  0.80491151  0.66862040  0.79539673  1  -0.535071  1.8e-05  1.89188  0.0  -1.016113  -0.00014  -0.496828  -1e-05  2.130899  0.0  -0.512872  6.2e-05  2.119363  0.0  -0.305773  -0.485543  -9.4e-05  2.138429  0.0
O  O87  1  0.69573992  0.83176997  0.29607730  1  -0.535363  -2.5e-05  1.89168  0.0  -1.011767  0.000147  -0.496564  1.4e-05  2.130402  0.0  -0.512388  -6.4e-05  2.11879  0.0  -0.305793  -0.485543  9.5e-05  2.138124  0.0
O  O88  1  0.97174289  0.32373107  0.09724616  1  -0.528454  1.3e-05  1.822519  0.0  -1.015262  -0.000127  -0.492435  -3.6e-05  2.049232  0.0  -0.507592  -2.4e-05  2.036691  0.0  -0.310127  -0.48178  -4.4e-05  2.057362  0.0
O  O89  1  0.52709108  0.17540436  0.59730629  1  -0.527722  -2e-05  1.822536  0.0  -1.015581  0.000135  -0.491878  4.3e-05  2.049138  0.0  -0.506982  2.7e-05  2.036541  0.0  -0.30969  -0.481216  4.9e-05  2.057255  0.0
O  O90  1  0.02702504  0.67547627  0.90270700  1  -0.52735  -2e-05  1.82248  0.0  -1.014019  -0.000131  -0.49176  -4e-05  2.049184  0.0  -0.506867  -3.4e-05  2.036569  0.0  -0.309517  -0.481128  -4.8e-05  2.057371  0.0
O  O91  1  0.47162659  0.82383680  0.40274858  1  -0.528058  7e-06  1.822605  0.0  -1.013913  0.000125  -0.492109  3.5e-05  2.049503  0.0  -0.507274  2.7e-05  2.036968  0.0  -0.309782  -0.481432  4.4e-05  2.057632  0.0
O  O92  1  0.11566486  0.10259139  0.11760491  1  -0.5454  -0.000896  1.895116  0.0  -1.021455  -0.001233  -0.523623  -0.00085  2.159195  0.0  -0.540855  -0.00089  2.144544  0.0  -0.3009  -0.511639  -0.000794  2.16903  0.0
O  O93  1  0.38427557  0.39708601  0.61789222  1  -0.545413  0.000854  1.89443  0.0  -1.016501  0.001248  -0.524102  0.000859  2.158813  0.0  -0.541327  0.000888  2.144106  0.0  -0.301292  -0.512135  0.000796  2.168726  0.0
O  O94  1  0.88426241  0.89717174  0.88210377  1  -0.545523  -0.000868  1.89431  0.0  -1.016944  -0.001248  -0.524096  -0.000859  2.158499  0.0  -0.541362  -0.000889  2.143822  0.0  -0.301223  -0.512132  -0.000796  2.168436  0.0
O  O95  1  0.61559305  0.60271583  0.38240714  1  -0.545311  0.000894  1.895402  0.0  -1.020721  0.001234  -0.523549  0.000852  2.159512  0.0  -0.540772  0.000888  2.144866  0.0  -0.300689  -0.511651  0.000794  2.169512  0.0
