# generated using pymatgen
data_AgH6C4N3
_symmetry_space_group_name_H-M   'P 1'
_cell_length_a   11.77842555
_cell_length_b   12.02354184
_cell_length_c   12.21688509
_cell_angle_alpha   106.31024845
_cell_angle_beta   105.38506626
_cell_angle_gamma   116.02673555
_symmetry_Int_Tables_number   1
_chemical_formula_structural   AgH6C4N3
_chemical_formula_sum   'Ag8 H48 C32 N24'
_cell_volume   1332.11392479
_cell_formula_units_Z   8
loop_
 _symmetry_equiv_pos_site_id
 _symmetry_equiv_pos_as_xyz
  1  'x, y, z'
loop_
 _atom_site_type_symbol
 _atom_site_label
 _atom_site_symmetry_multiplicity
 _atom_site_fract_x
 _atom_site_fract_y
 _atom_site_fract_z
 _atom_site_occupancy
 _atom_site_hle17_bader_spin_density
 _atom_site_hle17_ddec_charge
 _atom_site_hle17_ddec_spin_density
 _atom_site_hle17_ddec_sum_bond_order
 _atom_site_hle17_magmom
 _atom_site_hse06_10hf_bader_spin_density
 _atom_site_hse06_10hf_ddec_charge
 _atom_site_hse06_10hf_ddec_spin_density
 _atom_site_hse06_10hf_ddec_sum_bond_order
 _atom_site_hse06_10hf_magmom
 _atom_site_hse06_bader_spin_density
 _atom_site_hse06_ddec_charge
 _atom_site_hse06_ddec_spin_density
 _atom_site_hse06_ddec_sum_bond_order
 _atom_site_hse06_magmom
 _atom_site_pbe_bader_spin_density
 _atom_site_pbe_cm5_charge
 _atom_site_pbe_ddec_charge
 _atom_site_pbe_ddec_spin_density
 _atom_site_pbe_ddec_sum_bond_order
 _atom_site_pbe_magmom
Ag  Ag0  1  0.80634775  0.63394084  0.40215587  1  0  0.430795  0  1.630658  0  0  0.278336  0  2.122792  0  0  0.307356  0  2.073917  0  0  0.457393  0.256881  0  2.158004  0
Ag  Ag1  1  0.09540775  0.76802497  0.40239664  1  0  0.431476  0  1.631437  0  0  0.279006  0  2.123562  0  0  0.307985  0  2.074743  0  0  0.45775  0.257566  0  2.15875  0
Ag  Ag2  1  0.19365649  0.36606187  0.59784638  1  0  0.430817  0  1.630669  0  0  0.278347  0  2.122823  0  0  0.307368  0  2.073945  0  0  0.457405  0.256891  0  2.158031  0
Ag  Ag3  1  0.90459242  0.23197353  0.59760337  1  0  0.431491  0  1.631448  0  0  0.279038  0  2.123566  0  0  0.308015  0  2.074745  0  0  0.457774  0.257597  0  2.158754  0
Ag  Ag4  1  0.84134138  0.39926192  0.12220654  1  0  0.449362  0  1.561456  0  0  0.289536  0  2.014979  0  0  0.317241  0  1.97376  0  0  0.459449  0.270063  0  2.043385  0
Ag  Ag5  1  0.78064942  0.72280448  0.12172126  1  0  0.449491  0  1.561317  0  0  0.289838  0  2.01468  0  0  0.317503  0  1.973528  0  0  0.459834  0.270383  0  2.043063  0
Ag  Ag6  1  0.15866109  0.60074077  0.87779443  1  0  0.449331  0  1.561496  0  0  0.289492  0  2.015033  0  0  0.317199  0  1.973809  0  0  0.459433  0.270019  0  2.043435  0
Ag  Ag7  1  0.21935067  0.27719711  0.87828042  1  0  0.44949  0  1.561261  0  0  0.289832  0  2.014615  0  0  0.317503  0  1.973461  0  0  0.459824  0.270374  0  2.042995  0
H  H8  1  0.49982090  0.24009366  0.90416794  1  0  0.074994  0  0.946278  0  0  0.090662  0  1.005457  0  0  0.091802  0  1.004118  0  0  0.12508  0.089864  0  1.006298  0
H  H9  1  0.90487325  0.66392864  0.90417124  1  0  0.075271  0  0.94519  0  0  0.090877  0  1.00442  0  0  0.092022  0  1.003072  0  0  0.125358  0.090058  0  1.005306  0
H  H10  1  0.50017984  0.75990589  0.09583252  1  0  0.075004  0  0.946275  0  0  0.090672  0  1.005452  0  0  0.091812  0  1.004112  0  0  0.125083  0.089877  0  1.006291  0
H  H11  1  0.09512209  0.33607389  0.09582865  1  0  0.075276  0  0.945145  0  0  0.090854  0  1.004402  0  0  0.091999  0  1.003053  0  0  0.125322  0.090033  0  1.005287  0
H  H12  1  0.53401747  0.63069097  0.26233649  1  0  0.090443  0  0.939261  0  0  0.10421  0  1.000519  0  0  0.10549  0  1.001066  0  0  0.095753  0.103318  0  1.00017  0
H  H13  1  0.22782100  0.63124818  0.26258423  1  0  0.090739  0  0.940404  0  0  0.104269  0  1.002001  0  0  0.105561  0  1.002536  0  0  0.095935  0.10336  0  1.001645  0
H  H14  1  0.46598358  0.36930755  0.73766457  1  0  0.090435  0  0.939252  0  0  0.104205  0  1.000527  0  0  0.105478  0  1.001072  0  0  0.095752  0.103311  0  1.000178  0
H  H15  1  0.77217395  0.36874719  0.73740863  1  0  0.090741  0  0.940453  0  0  0.104277  0  1.002016  0  0  0.10556  0  1.002565  0  0  0.095919  0.10336  0  1.001659  0
H  H16  1  0.36117563  0.50245026  0.13667177  1  0  0.07281  0  0.959428  0  0  0.085553  0  1.033391  0  0  0.08712  0  1.032065  0  0  0.089378  0.084496  0  1.034295  0
H  H17  1  0.27516453  0.63379641  0.13689048  1  0  0.07326  0  0.958979  0  0  0.086043  0  1.032785  0  0  0.08752  0  1.031607  0  0  0.089864  0.085006  0  1.033642  0
H  H18  1  0.63882365  0.49754822  0.86332882  1  0  0.07286  0  0.959462  0  0  0.085616  0  1.033409  0  0  0.087176  0  1.032079  0  0  0.089402  0.084559  0  1.034316  0
H  H19  1  0.72483352  0.36620622  0.86310606  1  0  0.073225  0  0.958983  0  0  0.086014  0  1.032765  0  0  0.087493  0  1.031588  0  0  0.089858  0.08497  0  1.03362  0
H  H20  1  0.36762218  0.51602960  0.34746736  1  0  0.0989  0  0.946505  0  0  0.122333  0  1.001457  0  0  0.123489  0  1.002502  0  0  0.085452  0.121458  0  1.000794  0
H  H21  1  0.47923110  0.83120130  0.34749525  1  0  0.098345  0  0.945873  0  0  0.121755  0  1.000975  0  0  0.122942  0  1.001989  0  0  0.085364  0.120863  0  1.000329  0
H  H22  1  0.63237986  0.48396272  0.65253468  1  0  0.098853  0  0.94654  0  0  0.122295  0  1.001488  0  0  0.123451  0  1.002536  0  0  0.085426  0.12142  0  1.000825  0
H  H23  1  0.52076582  0.16879611  0.65250443  1  0  0.098311  0  0.945907  0  0  0.121747  0  1.000989  0  0  0.122932  0  1.002004  0  0  0.085348  0.120849  0  1.000351  0
H  H24  1  0.50198566  0.48154539  0.37569097  1  0  0.086531  0  0.966458  0  0  0.105419  0  1.037195  0  0  0.107272  0  1.036049  0  0  0.08115  0.103976  0  1.038194  0
H  H25  1  0.37291421  0.89373650  0.37579243  1  0  0.086708  0  0.966355  0  0  0.105271  0  1.037497  0  0  0.107203  0  1.036272  0  0  0.081156  0.103791  0  1.038523  0
H  H26  1  0.49801729  0.51845013  0.62430565  1  0  0.086554  0  0.966458  0  0  0.105464  0  1.037165  0  0  0.107318  0  1.036018  0  0  0.08117  0.104019  0  1.038165  0
H  H27  1  0.62708150  0.10626191  0.62420721  1  0  0.086737  0  0.966284  0  0  0.105303  0  1.037428  0  0  0.107233  0  1.036205  0  0  0.081175  0.103826  0  1.038452  0
H  H28  1  0.32928202  0.35094170  0.24964924  1  0  0.089518  0  0.960375  0  0  0.111006  0  1.021354  0  0  0.112149  0  1.02169  0  0  0.084163  0.110135  0  1.021159  0
H  H29  1  0.41952568  0.89822502  0.24960634  1  0  0.088915  0  0.958665  0  0  0.11044  0  1.01979  0  0  0.111539  0  1.020188  0  0  0.083968  0.109581  0  1.019579  0
H  H30  1  0.67072237  0.64905485  0.75034968  1  0  0.089557  0  0.960267  0  0  0.111026  0  1.021277  0  0  0.11217  0  1.021612  0  0  0.084167  0.110157  0  1.021084  0
H  H31  1  0.58047587  0.10177762  0.75039683  1  0  0.08893  0  0.958735  0  0  0.110462  0  1.019852  0  0  0.111566  0  1.020245  0  0  0.083979  0.109602  0  1.019642  0
H  H32  1  0.78497655  0.01736191  0.28965848  1  0  0.071383  0  0.940303  0  0  0.08919  0  0.994969  0  0  0.09079  0  0.992604  0  0  0.126279  0.08786  0  0.997068  0
H  H33  1  0.00507932  0.27241885  0.28987682  1  0  0.070866  0  0.939691  0  0  0.088572  0  0.994448  0  0  0.090228  0  0.992007  0  0  0.12576  0.08721  0  0.996599  0
H  H34  1  0.21502817  0.98264490  0.71034751  1  0  0.071336  0  0.940361  0  0  0.089173  0  0.995007  0  0  0.090779  0  0.992634  0  0  0.126253  0.08784  0  0.997109  0
H  H35  1  0.99492381  0.72757865  0.71012614  1  0  0.070933  0  0.939781  0  0  0.088628  0  0.994529  0  0  0.090284  0  0.992089  0  0  0.125789  0.087266  0  0.996678  0
H  H36  1  0.94881389  0.04484148  0.71131253  1  0  0.081147  0  0.97223  0  0  0.08942  0  1.050883  0  0  0.092129  0  1.047981  0  0  0.087228  0.087581  0  1.052677  0
H  H37  1  0.26261194  0.66687573  0.71141811  1  0  0.080362  0  0.973519  0  0  0.089123  0  1.051812  0  0  0.091752  0  1.048925  0  0  0.08709  0.087292  0  1.053634  0
H  H38  1  0.05118460  0.95515079  0.28868774  1  0  0.081197  0  0.972196  0  0  0.089427  0  1.050865  0  0  0.092141  0  1.047958  0  0  0.087223  0.08759  0  1.052661  0
H  H39  1  0.73739322  0.33312704  0.28858113  1  0  0.080382  0  0.973474  0  0  0.089111  0  1.051797  0  0  0.091748  0  1.04891  0  0  0.087075  0.087281  0  1.053618  0
H  H40  1  0.92011133  0.87745037  0.65117818  1  0  0.067956  0  0.948075  0  0  0.082888  0  1.016011  0  0  0.084196  0  1.014654  0  0  0.088607  0.081874  0  1.017184  0
H  H41  1  0.23162310  0.77421234  0.65116003  1  0  0.067711  0  0.947451  0  0  0.082543  0  1.015625  0  0  0.083875  0  1.014192  0  0  0.088615  0.081543  0  1.016801  0
H  H42  1  0.07987890  0.12253968  0.34881851  1  0  0.06793  0  0.948174  0  0  0.082857  0  1.016092  0  0  0.084165  0  1.014736  0  0  0.0886  0.081832  0  1.017274  0
H  H43  1  0.76837501  0.22578719  0.34883647  1  0  0.067707  0  0.947543  0  0  0.082524  0  1.015699  0  0  0.083865  0  1.014268  0  0  0.088608  0.081524  0  1.016875  0
H  H44  1  0.76183411  0.88430031  0.75363239  1  0  0.093568  0  0.942153  0  0  0.117826  0  0.995824  0  0  0.118987  0  0.996248  0  0  0.087705  0.116905  0  0.995683  0
H  H45  1  0.49200655  0.86912659  0.75350948  1  0  0.093988  0  0.942002  0  0  0.118456  0  0.995423  0  0  0.119672  0  0.995771  0  0  0.087908  0.117501  0  0.995318  0
H  H46  1  0.23816041  0.11569597  0.24637043  1  0  0.09354  0  0.942157  0  0  0.117786  0  0.995857  0  0  0.118943  0  0.996285  0  0  0.08765  0.116865  0  0.995715  0
H  H47  1  0.50799438  0.13088126  0.24648845  1  0  0.09401  0  0.941963  0  0  0.118435  0  0.995433  0  0  0.119657  0  0.995772  0  0  0.087902  0.117481  0  0.995326  0
H  H48  1  0.68724409  0.93338213  0.64531961  1  0  0.094926  0  0.960047  0  0  0.11609  0  1.023139  0  0  0.117081  0  1.024138  0  0  0.08634  0.115312  0  1.022475  0
H  H49  1  0.45803655  0.71151601  0.64519723  1  0  0.095992  0  0.960645  0  0  0.11727  0  1.023448  0  0  0.118196  0  1.024529  0  0  0.08672  0.116518  0  1.022752  0
H  H50  1  0.31275218  0.06661731  0.35468129  1  0  0.094949  0  0.960042  0  0  0.116105  0  1.023142  0  0  0.117096  0  1.024143  0  0  0.086348  0.11533  0  1.022478  0
H  H51  1  0.54196967  0.28849505  0.35480135  1  0  0.095948  0  0.960756  0  0  0.117227  0  1.023554  0  0  0.118151  0  1.024639  0  0  0.08666  0.11648  0  1.02285  0
H  H52  1  0.65969342  0.76595965  0.58756244  1  0  0.089088  0  0.955033  0  0  0.110827  0  1.017865  0  0  0.11187  0  1.018411  0  0  0.084737  0.110007  0  1.017608  0
H  H53  1  0.42841134  0.82139291  0.58743199  1  0  0.089124  0  0.957718  0  0  0.111141  0  1.019945  0  0  0.112172  0  1.020515  0  0  0.084372  0.110288  0  1.019715  0
H  H54  1  0.34029902  0.23403764  0.41243768  1  0  0.089142  0  0.955001  0  0  0.110897  0  1.017803  0  0  0.111944  0  1.018341  0  0  0.084771  0.110074  0  1.017549  0
H  H55  1  0.57158812  0.17861387  0.41256608  1  0  0.089087  0  0.957765  0  0  0.111113  0  1.019984  0  0  0.112151  0  1.020539  0  0  0.084371  0.11026  0  1.019756  0
C  C56  1  0.50856986  0.44836310  0.13988202  1  0  0.340812  0  3.736636  0  0  0.324522  0  3.991202  0  0  0.336858  0  4.010693  0  0  0.201201  0.316449  0  3.977704  0
C  C57  1  0.13095653  0.69104450  0.13999356  1  0  0.339308  0  3.734912  0  0  0.324675  0  3.987162  0  0  0.337067  0  4.006576  0  0  0.200574  0.316566  0  3.973689  0
C  C58  1  0.49143263  0.55163960  0.86011732  1  0  0.340882  0  3.736671  0  0  0.324592  0  3.991256  0  0  0.33692  0  4.010742  0  0  0.201202  0.316521  0  3.977758  0
C  C59  1  0.86904417  0.30895816  0.86000612  1  0  0.339377  0  3.734933  0  0  0.324653  0  3.987285  0  0  0.337048  0  4.0067  0  0  0.2005  0.316534  0  3.973811  0
C  C60  1  0.52403657  0.31606228  0.99485159  1  0  0.174165  0  3.799059  0  0  0.122699  0  4.060699  0  0  0.13454  0  4.078277  0  0  0.11885  0.114728  0  4.04861  0
C  C61  1  0.97104108  0.67859433  0.99489902  1  0  0.177181  0  3.796732  0  0  0.125929  0  4.058256  0  0  0.137778  0  4.075828  0  0  0.11983  0.117951  0  4.046159  0
C  C62  1  0.47596533  0.68393936  0.00514893  1  0  0.174126  0  3.798981  0  0  0.12266  0  4.060621  0  0  0.134499  0  4.078199  0  0  0.118808  0.114687  0  4.048535  0
C  C63  1  0.02895550  0.32140722  0.00509846  1  0  0.177156  0  3.796712  0  0  0.125939  0  4.058223  0  0  0.137789  0  4.075795  0  0  0.119834  0.117962  0  4.046124  0
C  C64  1  0.45297288  0.51810138  0.20918570  1  0  -0.159165  0  3.730236  0  0  -0.193761  0  3.980268  0  0  -0.196128  0  3.992706  0  0  -0.161643  -0.19218  0  3.971616  0
C  C65  1  0.25575056  0.69064430  0.20939484  1  0  -0.157305  0  3.730747  0  0  -0.19231  0  3.980377  0  0  -0.194641  0  3.992807  0  0  -0.161004  -0.190726  0  3.971723  0
C  C66  1  0.54702638  0.48189708  0.79081652  1  0  -0.159184  0  3.730276  0  0  -0.193826  0  3.980389  0  0  -0.196159  0  3.992788  0  0  -0.161648  -0.192238  0  3.97172  0
C  C67  1  0.74424787  0.30935422  0.79060145  1  0  -0.157362  0  3.730923  0  0  -0.192295  0  3.980481  0  0  -0.194629  0  3.992924  0  0  -0.160951  -0.19068  0  3.971796  0
C  C68  1  0.41032149  0.46344380  0.30065064  1  0  -0.272591  0  3.713551  0  0  -0.344053  0  3.950347  0  0  -0.34683  0  3.961629  0  0  -0.243496  -0.341793  0  3.942632  0
C  C69  1  0.38964146  0.83680390  0.30073982  1  0  -0.272569  0  3.711508  0  0  -0.343729  0  3.948414  0  0  -0.346505  0  3.959614  0  0  -0.243748  -0.341474  0  3.940762  0
C  C70  1  0.58967906  0.53655059  0.69934913  1  0  -0.272631  0  3.71354  0  0  -0.344089  0  3.950342  0  0  -0.346877  0  3.961616  0  0  -0.243507  -0.34183  0  3.942631  0
C  C71  1  0.61035303  0.16319550  0.69926061  1  0  -0.27255  0  3.711619  0  0  -0.34378  0  3.948542  0  0  -0.346554  0  3.959744  0  0  -0.243785  -0.341519  0  3.940856  0
C  C72  1  0.84201360  0.92762208  0.50984587  1  0  0.346937  0  3.724348  0  0  0.330718  0  3.975322  0  0  0.343595  0  3.995547  0  0  0.206157  0.321775  0  3.961278  0
C  C73  1  0.16816728  0.58241293  0.50995160  1  0  0.347178  0  3.721851  0  0  0.331132  0  3.972732  0  0  0.343982  0  3.99288  0  0  0.206553  0.322182  0  3.958759  0
C  C74  1  0.15798068  0.07237214  0.49015549  1  0  0.346987  0  3.724519  0  0  0.330835  0  3.975347  0  0  0.343713  0  3.995569  0  0  0.206158  0.32189  0  3.961304  0
C  C75  1  0.83183764  0.41758777  0.49004699  1  0  0.347147  0  3.722004  0  0  0.331131  0  3.972792  0  0  0.343989  0  3.992947  0  0  0.206545  0.322182  0  3.958813  0
C  C76  1  0.79971635  0.96800630  0.34925938  1  0  0.164612  0  3.808168  0  0  0.114499  0  4.073129  0  0  0.125435  0  4.091081  0  0  0.119893  0.107379  0  4.060903  0
C  C77  1  0.04985140  0.38136952  0.34944498  1  0  0.166261  0  3.806754  0  0  0.11621  0  4.071861  0  0  0.127132  0  4.089784  0  0  0.120867  0.109093  0  4.059664  0
C  C78  1  0.20028373  0.03199527  0.65074392  1  0  0.164702  0  3.80817  0  0  0.114552  0  4.073131  0  0  0.125486  0  4.091085  0  0  0.119972  0.107433  0  4.060899  0
C  C79  1  0.95015510  0.61863732  0.65056148  1  0  0.166225  0  3.806582  0  0  0.116187  0  4.071687  0  0  0.12711  0  4.089605  0  0  0.120839  0.10907  0  4.059491  0
C  C80  1  0.87111753  0.93557337  0.63891678  1  0  -0.158764  0  3.751429  0  0  -0.194994  0  4.000048  0  0  -0.197398  0  4.012554  0  0  -0.163069  -0.193033  0  3.990913  0
C  C81  1  0.26813085  0.70362609  0.63894186  1  0  -0.156506  0  3.750903  0  0  -0.193472  0  4.000652  0  0  -0.195802  0  4.013144  0  0  -0.162469  -0.191445  0  3.991337  0
C  C82  1  0.12887971  0.06442301  0.36108269  1  0  -0.15888  0  3.751572  0  0  -0.195048  0  4.000077  0  0  -0.197457  0  4.01258  0  0  -0.163095  -0.19308  0  3.990955  0
C  C83  1  0.73187196  0.29637561  0.36105647  1  0  -0.156542  0  3.751136  0  0  -0.193433  0  4.000744  0  0  -0.195788  0  4.01325  0  0  -0.162451  -0.191405  0  3.991428  0
C  C84  1  0.73706908  0.87622575  0.65735310  1  0  -0.264648  0  3.708353  0  0  -0.336108  0  3.944357  0  0  -0.33886  0  3.956453  0  0  -0.241492  -0.333922  0  3.935996  0
C  C85  1  0.42052728  0.78095900  0.65723165  1  0  -0.267025  0  3.713326  0  0  -0.338902  0  3.949098  0  0  -0.341686  0  3.961201  0  0  -0.242016  -0.33666  0  3.940757  0
C  C86  1  0.26292956  0.12377478  0.34264791  1  0  -0.264624  0  3.708332  0  0  -0.336108  0  3.944329  0  0  -0.338862  0  3.956427  0  0  -0.241446  -0.333922  0  3.935966  0
C  C87  1  0.57947600  0.21904993  0.34276720  1  0  -0.266961  0  3.713556  0  0  -0.338834  0  3.949301  0  0  -0.341619  0  3.961413  0  0  -0.241957  -0.336598  0  3.940953  0
N  N88  1  0.63998825  0.47797112  0.19105147  1  0  -0.323302  0  3.159525  0  0  -0.255996  0  3.444036  0  0  -0.272075  0  3.458544  0  0  -0.272797  -0.245074  0  3.43375  0
N  N89  1  0.05053273  0.71260582  0.19103629  1  0  -0.324056  0  3.157796  0  0  -0.257085  0  3.44153  0  0  -0.27319  0  3.456036  0  0  -0.273037  -0.246142  0  3.431239  0
N  N90  1  0.36001250  0.52202844  0.80894817  1  0  -0.32338  0  3.159569  0  0  -0.256068  0  3.444083  0  0  -0.272149  0  3.458592  0  0  -0.272804  -0.245146  0  3.433793  0
N  N91  1  0.94946505  0.28739473  0.80896123  1  0  -0.324076  0  3.157721  0  0  -0.257099  0  3.441499  0  0  -0.273202  0  3.456002  0  0  -0.273018  -0.246157  0  3.431214  0
N  N92  1  0.64994198  0.39237702  0.09738387  1  0  -0.275574  0  3.353484  0  0  -0.198058  0  3.65994  0  0  -0.214532  0  3.675771  0  0  -0.288275  -0.186426  0  3.648538  0
N  N93  1  0.94726578  0.70470660  0.09730292  1  0  -0.278098  0  3.355442  0  0  -0.200837  0  3.66252  0  0  -0.217318  0  3.678352  0  0  -0.289422  -0.189191  0  3.65111  0
N  N94  1  0.35005936  0.60762359  0.90261540  1  0  -0.275549  0  3.353458  0  0  -0.198033  0  3.659911  0  0  -0.214504  0  3.675741  0  0  -0.288275  -0.186399  0  3.648506  0
N  N95  1  0.05273135  0.29529598  0.90269663  1  0  -0.278084  0  3.355388  0  0  -0.200818  0  3.662438  0  0  -0.217302  0  3.678274  0  0  -0.289416  -0.189174  0  3.651028  0
N  N96  1  0.43218403  0.34674333  0.01663981  1  0  -0.446641  0  3.255379  0  0  -0.366019  0  3.549878  0  0  -0.388588  0  3.562805  0  0  -0.378558  -0.350663  0  3.540864  0
N  N97  1  0.08455906  0.66958711  0.01678890  1  0  -0.446876  0  3.255108  0  0  -0.366863  0  3.549133  0  0  -0.389452  0  3.562039  0  0  -0.378595  -0.351494  0  3.540123  0
N  N98  1  0.56781703  0.65325519  0.98336044  1  0  -0.446632  0  3.255486  0  0  -0.366007  0  3.549985  0  0  -0.388575  0  3.562914  0  0  -0.378519  -0.350652  0  3.540974  0
N  N99  1  0.91543955  0.33041656  0.98320889  1  0  -0.44687  0  3.255109  0  0  -0.366852  0  3.549161  0  0  -0.38944  0  3.562066  0  0  -0.378548  -0.351484  0  3.540155  0
N  N100  1  0.81552534  0.82125749  0.41000733  1  0  -0.310828  0  3.252165  0  0  -0.238275  0  3.543097  0  0  -0.256654  0  3.560251  0  0  -0.278908  -0.224901  0  3.530772  0
N  N101  1  0.09450726  0.58878634  0.41024330  1  0  -0.310026  0  3.251086  0  0  -0.23728  0  3.54162  0  0  -0.255652  0  3.558819  0  0  -0.278873  -0.223929  0  3.529298  0
N  N102  1  0.18447183  0.17874198  0.58999300  1  0  -0.310933  0  3.252109  0  0  -0.238407  0  3.543025  0  0  -0.256785  0  3.560174  0  0  -0.278958  -0.225029  0  3.530697  0
N  N103  1  0.90549618  0.41121330  0.58975543  1  0  -0.310063  0  3.25116  0  0  -0.237331  0  3.541689  0  0  -0.255703  0  3.558885  0  0  -0.278901  -0.223978  0  3.529367  0
N  N104  1  0.78824100  0.84696253  0.30656171  1  0  -0.259669  0  3.23732  0  0  -0.195463  0  3.534711  0  0  -0.209491  0  3.551483  0  0  -0.271363  -0.185786  0  3.522623  0
N  N105  1  0.01831406  0.45957621  0.30684323  1  0  -0.262026  0  3.237762  0  0  -0.197847  0  3.535444  0  0  -0.211919  0  3.55223  0  0  -0.272364  -0.188141  0  3.523335  0
N  N106  1  0.21175764  0.15303800  0.69343848  1  0  -0.259621  0  3.23732  0  0  -0.1954  0  3.534697  0  0  -0.209431  0  3.551474  0  0  -0.271347  -0.185726  0  3.522606  0
N  N107  1  0.98168998  0.54042134  0.69315834  1  0  -0.261955  0  3.237698  0  0  -0.197782  0  3.535387  0  0  -0.211853  0  3.552174  0  0  -0.272305  -0.188073  0  3.523271  0
N  N108  1  0.83306492  0.02271690  0.47522852  1  0  -0.447279  0  3.31164  0  0  -0.363635  0  3.613224  0  0  -0.387435  0  3.627022  0  0  -0.385901  -0.346931  0  3.603348  0
N  N109  1  0.14268346  0.45275823  0.47530977  1  0  -0.44716  0  3.307539  0  0  -0.363568  0  3.609131  0  0  -0.387354  0  3.622919  0  0  -0.385296  -0.346875  0  3.599259  0
N  N110  1  0.16693433  0.97728156  0.52477370  1  0  -0.447306  0  3.311906  0  0  -0.363682  0  3.613466  0  0  -0.387483  0  3.627267  0  0  -0.385919  -0.346978  0  3.603589  0
N  N111  1  0.85732201  0.54724350  0.52469089  1  0  -0.447184  0  3.30748  0  0  -0.363614  0  3.609089  0  0  -0.387401  0  3.622875  0  0  -0.385306  -0.346924  0  3.59923  0
