# generated using pymatgen
data_AgH14C15S2N
_symmetry_space_group_name_H-M   'P 1'
_cell_length_a   4.83911522
_cell_length_b   15.54334617
_cell_length_c   15.54732215
_cell_angle_alpha   119.98310011
_cell_angle_beta   89.99682363
_cell_angle_gamma   89.99940760
_symmetry_Int_Tables_number   1
_chemical_formula_structural   AgH14C15S2N
_chemical_formula_sum   'Ag3 H42 C45 S6 N3'
_cell_volume   1012.90949783
_cell_formula_units_Z   3
loop_
 _symmetry_equiv_pos_site_id
 _symmetry_equiv_pos_as_xyz
  1  'x, y, z'
loop_
 _atom_site_type_symbol
 _atom_site_label
 _atom_site_symmetry_multiplicity
 _atom_site_fract_x
 _atom_site_fract_y
 _atom_site_fract_z
 _atom_site_occupancy
 _atom_site_pbe_bader_charge
 _atom_site_pbe_bader_spin_density
 _atom_site_pbe_cm5_charge
 _atom_site_pbe_ddec_charge
 _atom_site_pbe_ddec_spin_density
 _atom_site_pbe_ddec_sum_bond_order
 _atom_site_pbe_magmom
Ag  Ag0  1  0.08743968  0.89493381  0.96189449  1  0.361953  0  0.281524  0.187856  0  2.53431  0
Ag  Ag1  1  0.42101206  0.03815132  0.93308022  1  0.362817  0  0.281625  0.188022  0  2.534414  0
Ag  Ag2  1  0.75424837  0.06692238  0.10506682  1  0.36096  0  0.281525  0.18766  0  2.535005  0
H  H3  1  0.05314343  0.67237654  0.64997545  1  0.052221  0  0.104773  0.091303  0  1.013158  0
H  H4  1  0.38692721  0.35010237  0.02237464  1  0.038317  0  0.104806  0.091299  0  1.012941  0
H  H5  1  0.71989456  0.97754416  0.32763847  1  0.055936  0  0.104756  0.091269  0  1.013247  0
H  H6  1  0.96658254  0.67678805  0.76345390  1  0.105861  0  0.09911  0.096747  0  1.037396  0
H  H7  1  0.30047608  0.23664080  0.91333374  1  0.116481  0  0.099082  0.096696  0  1.037186  0
H  H8  1  0.63336758  0.08661007  0.32316851  1  0.085792  0  0.098914  0.096373  0  1.037511  0
H  H9  1  0.10718837  0.51086178  0.51835935  1  0.055392  0  0.095528  0.094549  0  1.029857  0
H  H10  1  0.44107992  0.48182094  0.99247284  1  0.074819  0  0.095526  0.094683  0  1.029596  0
H  H11  1  0.77433739  0.00752435  0.48920180  1  0.046781  0  0.095662  0.094734  0  1.029766  0
H  H12  1  0.97151567  0.33307788  0.42590313  1  0.058366  0  0.098297  0.096046  0  1.018724  0
H  H13  1  0.30516424  0.57435847  0.90721292  1  0.082227  0  0.098022  0.096017  0  1.018649  0
H  H14  1  0.63891021  0.09289846  0.66696944  1  0.080468  0  0.098331  0.096177  0  1.018525  0
H  H15  1  0.58484807  0.27295605  0.48808113  1  0.060493  0  0.094454  0.092332  0  1.047212  0
H  H16  1  0.91835804  0.51221417  0.78504123  1  0.063067  0  0.094218  0.092081  0  1.047175  0
H  H17  1  0.25215430  0.21515101  0.72704841  1  0.104058  0  0.094256  0.091762  0  1.047918  0
H  H18  1  0.33087427  0.39156694  0.64072404  1  0.077006  0  0.096758  0.090905  0  1.036655  0
H  H19  1  0.66459822  0.35947511  0.75098370  1  0.088609  0  0.096989  0.091334  0  1.036714  0
H  H20  1  0.99795624  0.24911467  0.60840097  1  0.068274  0  0.09699  0.091196  0  1.036719  0
H  H21  1  0.46557670  0.56983767  0.73285748  1  0.074781  0  0.095727  0.10231  0  1.020172  0
H  H22  1  0.79954471  0.26726616  0.83704542  1  0.059751  0  0.095601  0.102152  0  1.019825  0
H  H23  1  0.13242773  0.16294569  0.43015705  1  0.068181  0  0.09571  0.102192  0  1.020113  0
H  H24  1  0.38125227  0.77055744  0.63238006  1  0.101708  0  0.103128  0.100091  0  1.055125  0
H  H25  1  0.71485214  0.36772509  0.13798285  1  0.104823  0  0.103192  0.100058  0  1.055367  0
H  H26  1  0.04783720  0.86188084  0.22973938  1  0.102443  0  0.10304  0.099871  0  1.055219  0
H  H27  1  0.54795763  0.65439829  0.55833713  1  0.029877  0  0.106023  0.088731  0  1.004259  0
H  H28  1  0.88209718  0.44180602  0.09600411  1  0.05583  0  0.105889  0.088359  0  1.005042  0
H  H29  1  0.21503006  0.90391333  0.34578109  1  0.057666  0  0.105984  0.088208  0  1.004997  0
H  H30  1  0.90979505  0.64565519  0.45214363  1  0.013264  0  0.097731  0.099587  0  1.027895  0
H  H31  1  0.24397296  0.54785026  0.19356969  1  0.051627  0  0.09794  0.099921  0  1.028745  0
H  H32  1  0.57681597  0.80625676  0.35428898  1  0.06892  0  0.09779  0.099661  0  1.028526  0
H  H33  1  0.24720863  0.72821158  0.39736462  1  0.044649  0  0.093012  0.082423  0  1.057081  0
H  H34  1  0.58088258  0.60244088  0.33097924  1  0.089506  0  0.092942  0.082409  0  1.056957  0
H  H35  1  0.91404240  0.66891118  0.27155040  1  0.045196  0  0.092939  0.082233  0  1.057035  0
H  H36  1  0.32815321  0.91105935  0.50086100  1  0.066557  0  0.091056  0.082589  0  1.064055  0
H  H37  1  0.66081295  0.49877487  0.41023829  1  0.067088  0  0.090971  0.082647  0  1.064199  0
H  H38  1  0.99446157  0.58975764  0.08872281  1  0.075711  0  0.090934  0.082389  0  1.064108  0
H  H39  1  0.06677744  0.00945788  0.65706621  1  0.074537  0  0.09384  0.094829  0  1.032241  0
H  H40  1  0.39906421  0.34256304  0.35223465  1  0.062478  0  0.093896  0.094504  0  1.032982  0
H  H41  1  0.73265251  0.64775580  0.99052757  1  0.068784  0  0.093864  0.09465  0  1.032473  0
H  H42  1  0.71925451  0.92756700  0.71002274  1  0.099983  0  0.088789  0.099441  0  1.042367  0
H  H43  1  0.05198948  0.28981265  0.21733107  1  0.091432  0  0.08856  0.099136  0  1.042681  0
H  H44  1  0.38527843  0.78260507  0.07259348  1  0.092642  0  0.088606  0.099083  0  1.042892  0
C  C45  1  0.54822605  0.78646213  0.79702502  1  0.292667  0  0.123993  0.196793  0  4.018524  0
C  C46  1  0.88194591  0.20302189  0.98936226  1  0.29293  0  0.12378  0.196224  0  4.017937  0
C  C47  1  0.21498443  0.01051192  0.21355730  1  0.288665  0  0.123743  0.196275  0  4.018676  0
C  C48  1  0.88759134  0.65882034  0.69008303  1  0.284696  0  -0.063876  -0.121245  0  3.911358  0
C  C49  1  0.22143595  0.31001453  0.96871797  1  0.282169  0  -0.063899  -0.120943  0  3.91133  0
C  C50  1  0.55438244  0.03121944  0.34120027  1  0.289013  0  -0.063697  -0.120452  0  3.910348  0
C  C51  1  0.79562116  0.55195442  0.63176026  1  -0.040294  0  -0.019144  0.077267  0  3.98369  0
C  C52  1  0.12951187  0.36840509  0.92022399  1  -0.033605  0  -0.018794  0.077681  0  3.983409  0
C  C53  1  0.46258786  0.07976082  0.44807605  1  -0.043884  0  -0.018911  0.077475  0  3.983652  0
C  C54  1  0.93612925  0.48482080  0.54520200  1  -0.099862  0  -0.095003  -0.14307  0  3.99993  0
C  C55  1  0.27001195  0.45498358  0.93963195  1  -0.063681  0  -0.095297  -0.143667  0  3.999955  0
C  C56  1  0.60324976  0.06038031  0.51522946  1  -0.118937  0  -0.095483  -0.143864  0  4.001404  0
C  C57  1  0.86138114  0.38463321  0.49349732  1  -0.008399  0  -0.090051  -0.073014  0  4.006846  0
C  C58  1  0.19507451  0.50673137  0.89118072  1  -0.087538  0  -0.08975  -0.072972  0  4.005305  0
C  C59  1  0.52858645  0.10889835  0.61540709  1  0.012786  0  -0.089996  -0.073317  0  4.006224  0
C  C60  1  0.64465774  0.35095429  0.52808179  1  -0.016846  0  -0.094702  -0.089663  0  3.994716  0
C  C61  1  0.97827410  0.47216365  0.82298584  1  -0.02775  0  -0.094287  -0.089003  0  3.993384  0
C  C62  1  0.31180848  0.17713016  0.64905875  1  -0.095673  0  -0.094346  -0.088134  0  3.99401  0
C  C63  1  0.50128964  0.41764442  0.61391205  1  -0.101918  0  -0.090894  -0.075029  0  4.018105  0
C  C64  1  0.83507724  0.38626300  0.80381746  1  -0.061303  0  -0.091406  -0.07584  0  4.018046  0
C  C65  1  0.16836921  0.19623752  0.58233643  1  -0.019148  0  -0.091205  -0.07596  0  4.019138  0
C  C66  1  0.57547153  0.51767691  0.66530117  1  -0.059014  0  -0.094098  -0.133666  0  3.963154  0
C  C67  1  0.90938646  0.33485194  0.85243757  1  -0.093623  0  -0.093836  -0.133293  0  3.961955  0
C  C68  1  0.24243117  0.14756889  0.48232469  1  -0.095026  0  -0.094098  -0.133372  0  3.963711  0
C  C69  1  0.58004521  0.73190462  0.61717621  1  0.28776  0  -0.061952  -0.124203  0  3.896868  0
C  C70  1  0.91382858  0.38289626  0.11462367  1  0.263444  0  -0.061676  -0.123694  0  3.897674  0
C  C71  1  0.24677607  0.88527253  0.26826913  1  0.263165  0  -0.061864  -0.123142  0  3.896689  0
C  C72  1  0.78856862  0.78137573  0.58395561  1  -0.077267  0  -0.0162  0.08984  0  3.971823  0
C  C73  1  0.12204266  0.41598410  0.19734672  1  -0.100024  0  -0.016152  0.090272  0  3.971673  0
C  C74  1  0.45512501  0.80255350  0.21869413  1  -0.067571  0  -0.016239  0.089585  0  3.971913  0
C  C75  1  0.93901024  0.72591492  0.49621126  1  -0.023788  0  -0.098213  -0.148877  0  3.979659  0
C  C76  1  0.27281933  0.50370302  0.22971104  1  -0.055289  0  -0.098325  -0.149848  0  3.981506  0
C  C77  1  0.60582611  0.77015614  0.27404424  1  -0.058873  0  -0.097841  -0.148806  0  3.980312  0
C  C78  1  0.13017000  0.77232018  0.46541090  1  -0.027453  0  -0.099863  -0.0867  0  4.036026  0
C  C79  1  0.46364902  0.53439981  0.30696110  1  -0.055706  0  -0.10003  -0.086312  0  4.035711  0
C  C80  1  0.79683504  0.69293521  0.22752655  1  -0.120481  0  -0.099988  -0.08607  0  4.034932  0
C  C81  1  0.17531555  0.87432523  0.52294631  1  -0.053954  0  -0.097381  -0.09155  0  4.010714  0
C  C82  1  0.50824214  0.47676441  0.35137170  1  -0.108039  0  -0.097431  -0.092279  0  4.010774  0
C  C83  1  0.84172429  0.64858803  0.12554007  1  0.004521  0  -0.097256  -0.091756  0  4.008889  0
C  C84  1  0.02794059  0.93000588  0.61115486  1  -0.098846  0  -0.092173  -0.071324  0  3.989908  0
C  C85  1  0.36061068  0.38855744  0.31874659  1  -0.067086  0  -0.092197  -0.070301  0  3.988576  0
C  C86  1  0.69408781  0.68121440  0.06996878  1  -0.071398  0  -0.092277  -0.070832  0  3.98762  0
C  C87  1  0.83423285  0.88396431  0.64112665  1  -0.012285  0  -0.092971  -0.117593  0  3.943077  0
C  C88  1  0.16718545  0.35870055  0.24269008  1  0.020669  0  -0.092999  -0.117861  0  3.942085  0
C  C89  1  0.50045857  0.75724423  0.11612218  1  -0.036254  0  -0.09308  -0.117805  0  3.942458  0
S  S90  1  0.29213511  0.87030850  0.80600185  1  -0.179764  0  -0.193521  -0.222191  0  2.989441  0
S  S91  1  0.62580048  0.19404248  0.06421137  1  -0.178118  0  -0.193243  -0.221839  0  2.989252  0
S  S92  1  0.95892719  0.93564033  0.12975902  1  -0.179746  0  -0.193112  -0.221718  0  2.989202  0
S  S93  1  0.63421037  0.77534002  0.89735244  1  -0.208005  0  -0.208027  -0.36074  0  2.553863  0
S  S94  1  0.96792790  0.10269452  0.87794519  1  -0.217267  0  -0.20802  -0.360708  0  2.553393  0
S  S95  1  0.30104050  0.12192827  0.22456604  1  -0.207103  0  -0.208016  -0.360361  0  2.55455  0
N  N96  1  0.66521530  0.72980733  0.70706926  1  -1.134578  0  -0.255532  -0.004672  0  3.616859  0
N  N97  1  0.99898172  0.29299978  0.02266421  1  -1.118587  0  -0.255946  -0.005019  0  3.617643  0
N  N98  1  0.33191070  0.97724679  0.27028610  1  -1.12584  0  -0.25553  -0.005221  0  3.616958  0
