# generated using pymatgen
data_AlH16C23(ClO4)2
_symmetry_space_group_name_H-M   'P 1'
_cell_length_a   6.61442169
_cell_length_b   22.31872414
_cell_length_c   26.98791434
_cell_angle_alpha   102.27305593
_cell_angle_beta   89.99969522
_cell_angle_gamma   90.00043699
_symmetry_Int_Tables_number   1
_chemical_formula_structural   AlH16C23(ClO4)2
_chemical_formula_sum   'Al4 H64 C92 Cl8 O32'
_cell_volume   3893.04898201
_cell_formula_units_Z   4
loop_
 _symmetry_equiv_pos_site_id
 _symmetry_equiv_pos_as_xyz
  1  'x, y, z'
loop_
 _atom_site_type_symbol
 _atom_site_label
 _atom_site_symmetry_multiplicity
 _atom_site_fract_x
 _atom_site_fract_y
 _atom_site_fract_z
 _atom_site_occupancy
 _atom_site_pbe_bader_charge
 _atom_site_pbe_bader_spin_density
 _atom_site_pbe_cm5_charge
 _atom_site_pbe_ddec_charge
 _atom_site_pbe_ddec_spin_density
 _atom_site_pbe_ddec_sum_bond_order
 _atom_site_pbe_magmom
Al  Al0  1  0.19896256  0.74828938  0.24909214  1  2.500614  0  0.394406  1.643136  0  2.586695  0
Al  Al1  1  0.81404186  0.25221747  0.75079157  1  2.500874  0  0.394488  1.647046  0  2.581184  0
Al  Al2  1  0.69896398  0.75170585  0.25090841  1  2.50062  0  0.394355  1.643124  0  2.586803  0
Al  Al3  1  0.31402531  0.24778602  0.74920997  1  2.500972  0  0.394403  1.646995  0  2.581411  0
H  H4  1  0.09759555  0.61871646  0.10199686  1  0.100707  0  0.095676  0.106213  0  1.05644  0
H  H5  1  0.91601663  0.38154660  0.89870351  1  0.117529  0  0.096259  0.106417  0  1.052343  0
H  H6  1  0.59760881  0.88128842  0.39800198  1  0.100992  0  0.095708  0.106233  0  1.056503  0
H  H7  1  0.41600942  0.11845500  0.60129674  1  0.117439  0  0.096347  0.106642  0  1.052213  0
H  H8  1  0.25425771  0.88314341  0.16665335  1  0.105792  0  0.101657  0.112718  0  1.016167  0
H  H9  1  0.73972019  0.12725631  0.83871888  1  0.103933  0  0.105507  0.114566  0  1.006015  0
H  H10  1  0.75422876  0.61684373  0.33333760  1  0.105456  0  0.101697  0.112724  0  1.016233  0
H  H11  1  0.23973686  0.37274092  0.66128160  1  0.103802  0  0.105513  0.114482  0  1.00618  0
H  H12  1  0.25338973  0.95124684  0.10423947  1  0.096901  0  0.10332  0.105535  0  0.996893  0
H  H13  1  0.72415744  0.06114632  0.90168040  1  0.077255  0  0.10269  0.107467  0  1.017962  0
H  H14  1  0.75336266  0.54874559  0.39575833  1  0.096922  0  0.103339  0.105446  0  0.996812  0
H  H15  1  0.22416764  0.43885046  0.59832200  1  0.077326  0  0.102665  0.107413  0  1.018048  0
H  H16  1  0.65818523  0.82093961  0.11863152  1  0.092924  0  0.110368  0.128925  0  1.015422  0
H  H17  1  0.36609895  0.16538764  0.87571655  1  0.137553  0  0.11374  0.134878  0  0.9903  0
H  H18  1  0.15816653  0.67905313  0.38136301  1  0.092771  0  0.110376  0.12884  0  1.015527  0
H  H19  1  0.86611792  0.33462005  0.62428343  1  0.137641  0  0.113669  0.134887  0  0.990284  0
H  H20  1  0.66830077  0.99477462  0.04318882  1  0.08204  0  0.100766  0.103037  0  1.010039  0
H  H21  1  0.32269111  0.00113409  0.95417214  1  0.088089  0  0.103514  0.109078  0  1.011705  0
H  H22  1  0.16827498  0.50522048  0.45681328  1  0.081837  0  0.100737  0.102988  0  1.01008  0
H  H23  1  0.82268370  0.49887359  0.54582638  1  0.088028  0  0.103454  0.109058  0  1.011803  0
H  H24  1  0.70564731  0.06085956  0.98162716  1  0.054017  0  0.098701  0.097077  0  1.053604  0
H  H25  1  0.28644066  0.93567328  0.01612870  1  0.076491  0  0.097652  0.096079  0  1.039764  0
H  H26  1  0.20563750  0.43913874  0.51837792  1  0.053543  0  0.098636  0.097007  0  1.053732  0
H  H27  1  0.78642030  0.56433248  0.48386837  1  0.076204  0  0.09771  0.096258  0  1.039659  0
H  H28  1  0.33163160  0.67468918  0.98577242  1  0.029318  0  0.087843  0.081721  0  1.016951  0
H  H29  1  0.31265810  0.65183993  0.91752454  1  0.076064  0  0.097191  0.101188  0  1.000336  0
H  H30  1  0.55312665  0.67277677  0.94688574  1  0.065506  0  0.107114  0.115894  0  0.969538  0
H  H31  1  0.68553477  0.34886445  0.08064628  1  0.078895  0  0.09635  0.099844  0  0.999999  0
H  H32  1  0.66727942  0.32756497  0.01229571  1  0.077269  0  0.089287  0.083323  0  1.015582  0
H  H33  1  0.44446151  0.33027543  0.05076972  1  0.063842  0  0.106721  0.115554  0  0.9703  0
H  H34  1  0.83154607  0.82530605  0.51422445  1  0.028811  0  0.087876  0.081793  0  1.01712  0
H  H35  1  0.81256614  0.84814898  0.58247233  1  0.075834  0  0.097249  0.101262  0  1.000403  0
H  H36  1  0.05302273  0.82720806  0.55311148  1  0.065647  0  0.107093  0.115881  0  0.969821  0
H  H37  1  0.18560854  0.15113297  0.41934715  1  0.078185  0  0.09638  0.099742  0  1.00023  0
H  H38  1  0.16736032  0.17243962  0.48769968  1  0.076805  0  0.089325  0.083441  0  1.015367  0
H  H39  1  0.94453962  0.16973710  0.44922267  1  0.063859  0  0.106632  0.11557  0  0.9703  0
H  H40  1  0.61208277  0.49353063  0.81973860  1  0.09422  0  0.089393  0.091271  0  1.030487  0
H  H41  1  0.66899946  0.53913093  0.88165159  1  0.089961  0  0.09107  0.095647  0  1.023878  0
H  H42  1  0.65529993  0.57419150  0.82746374  1  0.057974  0  0.107341  0.11816  0  0.96633  0
H  H43  1  0.33933036  0.46297123  0.11759384  1  0.071609  0  0.091381  0.096676  0  1.024733  0
H  H44  1  0.39778156  0.50793127  0.17965413  1  0.070281  0  0.089162  0.090763  0  1.031148  0
H  H45  1  0.35089061  0.42741235  0.17152113  1  0.061537  0  0.106199  0.116886  0  0.968018  0
H  H46  1  0.11206096  0.00647847  0.68026213  1  0.094014  0  0.089388  0.091248  0  1.030439  0
H  H47  1  0.16898576  0.96087507  0.61834861  1  0.090037  0  0.091094  0.095684  0  1.02388  0
H  H48  1  0.15528606  0.92581712  0.67253990  1  0.058146  0  0.107309  0.118165  0  0.966195  0
H  H49  1  0.83936667  0.03702110  0.38241374  1  0.071806  0  0.091381  0.096704  0  1.02483  0
H  H50  1  0.89779274  0.99205662  0.32035291  1  0.069671  0  0.089123  0.09073  0  1.031089  0
H  H51  1  0.85088175  0.07257358  0.32848223  1  0.062022  0  0.106271  0.116885  0  0.968065  0
H  H52  1  0.40436312  0.83373438  0.06778852  1  0.051579  0  0.096468  0.099717  0  1.022885  0
H  H53  1  0.59150689  0.78690395  0.02937181  1  0.049677  0  0.097645  0.093687  0  0.998091  0
H  H54  1  0.41774947  0.83208997  0.00130979  1  0.069346  0  0.108733  0.115821  0  0.974959  0
H  H55  1  0.25116040  0.13610242  0.01832882  1  0.050528  0  0.0939  0.09051  0  1.005209  0
H  H56  1  0.36388516  0.19423509  0.98999859  1  0.035025  0  0.092555  0.086607  0  0.999686  0
H  H57  1  0.52123702  0.14194076  0.01477511  1  0.068151  0  0.103896  0.10867  0  0.989674  0
H  H58  1  0.90434915  0.66626454  0.43220342  1  0.051261  0  0.09641  0.099624  0  1.022963  0
H  H59  1  0.09149686  0.71309197  0.47062170  1  0.05002  0  0.097669  0.093732  0  0.998172  0
H  H60  1  0.91772250  0.66791112  0.49868176  1  0.069097  0  0.108744  0.115764  0  0.97515  0
H  H61  1  0.75113270  0.36389634  0.48167475  1  0.050092  0  0.093866  0.090365  0  1.005343  0
H  H62  1  0.86387629  0.30576892  0.51000819  1  0.035082  0  0.09259  0.086651  0  0.999574  0
H  H63  1  0.02121845  0.35806048  0.48521896  1  0.068423  0  0.103954  0.108641  0  0.989636  0
H  H64  1  0.45603859  0.70625477  0.18867673  1  0.635205  0  0.354346  0.431271  0  0.853259  0
H  H65  1  0.55699298  0.28999412  0.81295008  1  0.621327  0  0.355634  0.433715  0  0.848937  0
H  H66  1  0.95603570  0.79374560  0.31132233  1  0.635232  0  0.354336  0.431254  0  0.853378  0
H  H67  1  0.05699146  0.21000799  0.68705182  1  0.621415  0  0.355694  0.433781  0  0.848851  0
C  C68  1  0.44947606  0.69026846  0.31539237  1  1.581851  0  0.261402  0.635128  0  4.110217  0
C  C69  1  0.56281931  0.31076145  0.68539503  1  1.565176  0  0.261842  0.634774  0  4.112841  0
C  C70  1  0.94948295  0.80972876  0.18460669  1  1.582479  0  0.26132  0.634994  0  4.11051  0
C  C71  1  0.06280787  0.18924406  0.81460612  1  1.565225  0  0.261932  0.634982  0  4.112769  0
C  C72  1  0.44544308  0.85062977  0.30613755  1  1.609292  0  0.27129  0.662122  0  4.091223  0
C  C73  1  0.56794536  0.14984459  0.69321923  1  1.600509  0  0.271078  0.661802  0  4.092709  0
C  C74  1  0.94543964  0.64936555  0.19386833  1  1.610131  0  0.271332  0.662045  0  4.091369  0
C  C75  1  0.06795483  0.35016039  0.80678154  1  1.600024  0  0.271076  0.662024  0  4.092656  0
C  C76  1  0.08869943  0.41103278  0.84251201  1  0.016813  0  -0.018198  -0.072712  0  4.007303  0
C  C77  1  0.92487495  0.58866698  0.15788998  1  0.029065  0  -0.019856  -0.076511  0  4.009281  0
C  C78  1  0.58870552  0.08897475  0.65748798  1  0.017265  0  -0.018039  -0.072259  0  4.007125  0
C  C79  1  0.42489155  0.91133233  0.34210875  1  0.029603  0  -0.019735  -0.076397  0  4.009177  0
C  C80  1  0.26542042  0.50839012  0.86725324  1  0.628321  0  0.0821  0.1646  0  4.02072  0
C  C81  1  0.74427155  0.49209727  0.13222934  1  0.567907  0  0.080884  0.161635  0  4.021644  0
C  C82  1  0.76540554  0.99161158  0.63274680  1  0.62924  0  0.082078  0.164828  0  4.020567  0
C  C83  1  0.24429548  0.00790357  0.36777009  1  0.568295  0  0.080779  0.161627  0  4.021812  0
C  C84  1  0.20766593  0.45810601  0.82991117  1  0.058793  0  0.008725  0.016773  0  4.040127  0
C  C85  1  0.80423181  0.54160785  0.16998005  1  0.092457  0  0.007412  0.018168  0  4.040297  0
C  C86  1  0.70765702  0.04189600  0.67008901  1  0.057637  0  0.008651  0.016477  0  4.039938  0
C  C87  1  0.30424526  0.95839159  0.33001847  1  0.092498  0  0.007332  0.018017  0  4.040326  0
C  C88  1  0.00674644  0.41871563  0.89050659  1  0.017663  0  -0.094303  -0.153195  0  3.990372  0
C  C89  1  0.00621741  0.58150163  0.10985495  1  -0.053381  0  -0.094169  -0.154093  0  3.988074  0
C  C90  1  0.50674546  0.08128856  0.60949691  1  0.018117  0  -0.094407  -0.15353  0  3.990615  0
C  C91  1  0.50621965  0.91849805  0.39014362  1  -0.053952  0  -0.094214  -0.154075  0  3.988284  0
C  C92  1  0.04832871  0.47088311  0.92898040  1  -0.020478  0  -0.008199  0.055232  0  3.989361  0
C  C93  1  0.96298094  0.52991114  0.07089689  1  0.011572  0  -0.008  0.056527  0  3.98307  0
C  C94  1  0.54832391  0.02912156  0.57101925  1  -0.020336  0  -0.008111  0.055354  0  3.989313  0
C  C95  1  0.46300537  0.97009117  0.42909915  1  0.011513  0  -0.007943  0.05648  0  3.98319  0
C  C96  1  0.19603537  0.51344790  0.91831103  1  -0.025192  0  -0.014656  -0.099911  0  3.982366  0
C  C97  1  0.81353415  0.48758647  0.08122861  1  0.006148  0  -0.013774  -0.097101  0  3.979672  0
C  C98  1  0.69601051  0.98655180  0.58169061  1  -0.024832  0  -0.014754  -0.100171  0  3.982688  0
C  C99  1  0.31354688  0.01241334  0.41877147  1  0.006618  0  -0.013713  -0.097139  0  3.979749  0
C  C100  1  0.96006652  0.47969519  0.97918276  1  -0.007188  0  -0.006615  -0.006788  0  3.943779  0
C  C101  1  0.05080923  0.52147166  0.02064350  1  0.020629  0  -0.006512  -0.008641  0  3.943362  0
C  C102  1  0.46006398  0.02030151  0.52081362  1  -0.00733  0  -0.006573  -0.006738  0  3.943475  0
C  C103  1  0.55082233  0.97852870  0.47935198  1  0.020514  0  -0.006575  -0.008659  0  3.943367  0
C  C104  1  0.22808448  0.55368012  0.00954394  1  0.05625  0  0.00641  -0.003245  0  3.9752  0
C  C105  1  0.78133235  0.44800082  0.98998136  1  0.064468  0  0.007641  -0.002656  0  3.980075  0
C  C106  1  0.72807693  0.94631859  0.49045772  1  0.056772  0  0.006323  -0.0033  0  3.975668  0
C  C107  1  0.28133229  0.05200157  0.51001606  1  0.064623  0  0.007616  -0.002627  0  3.979901  0
C  C108  1  0.28676311  0.55460228  0.96042659  1  0.590791  0  0.076567  0.153024  0  4.05488  0
C  C109  1  0.72113129  0.44715633  0.03898627  1  0.637826  0  0.075334  0.151336  0  4.058075  0
C  C110  1  0.78674534  0.94539912  0.53957568  1  0.590687  0  0.076622  0.153147  0  4.054852  0
C  C111  1  0.22114144  0.05284848  0.46101132  1  0.637691  0  0.075296  0.151341  0  4.057997  0
C  C112  1  0.12466230  0.88455581  0.14203591  1  -0.029927  0  -0.100878  -0.129  0  4.028437  0
C  C113  1  0.87281700  0.12090734  0.86082729  1  -0.038495  0  -0.089337  -0.101984  0  3.995606  0
C  C114  1  0.62463901  0.61543411  0.35796017  1  -0.030698  0  -0.10095  -0.129159  0  4.028709  0
C  C115  1  0.37283868  0.37908974  0.63917679  1  -0.038756  0  -0.089499  -0.102135  0  3.996081  0
C  C116  1  0.12390560  0.92170014  0.10666341  1  -0.077207  0  -0.091714  -0.120418  0  4.020709  0
C  C117  1  0.86518598  0.08422648  0.89638366  1  -0.026703  0  -0.090267  -0.117609  0  3.991086  0
C  C118  1  0.62385665  0.57828687  0.39333001  1  -0.076182  0  -0.091684  -0.120123  0  4.020547  0
C  C119  1  0.36518795  0.41577382  0.60362082  1  -0.026515  0  -0.090178  -0.11747  0  3.991048  0
C  C120  1  0.96149985  0.92232942  0.07321648  1  -0.012165  0  -0.011973  -0.02633  0  3.97204  0
C  C121  1  0.03450835  0.07617203  0.92599459  1  -0.044469  0  -0.008504  -0.02069  0  3.970901  0
C  C122  1  0.46147032  0.57767242  0.42678486  1  -0.012036  0  -0.012015  -0.026437  0  3.97212  0
C  C123  1  0.53450012  0.42383201  0.57400811  1  -0.043757  0  -0.008522  -0.020701  0  3.9711  0
C  C124  1  0.79339998  0.88391238  0.07685944  1  0.447939  0  0.083419  0.206668  0  4.025135  0
C  C125  1  0.21429626  0.10726147  0.91804846  1  0.450456  0  0.077671  0.197514  0  4.015936  0
C  C126  1  0.29335033  0.61607969  0.42313300  1  0.446179  0  0.0834  0.206828  0  4.025027  0
C  C127  1  0.71429164  0.39274907  0.58195175  1  0.449054  0  0.07758  0.197319  0  4.016093  0
C  C128  1  0.78833608  0.84915610  0.11421880  1  0.018143  0  -0.10484  -0.234152  0  3.983245  0
C  C129  1  0.22498726  0.14241338  0.88125811  1  -0.021854  0  -0.090388  -0.202624  0  3.965503  0
C  C130  1  0.28832264  0.65083706  0.38577441  1  0.018533  0  -0.104884  -0.2342  0  3.98326  0
C  C131  1  0.72501144  0.35759539  0.61874208  1  -0.021722  0  -0.090227  -0.202588  0  3.965566  0
C  C132  1  0.95425058  0.84893564  0.14636223  1  -0.042136  0  -0.019346  -0.019599  0  4.018776  0
C  C133  1  0.05425456  0.14968401  0.85253250  1  -0.051714  0  -0.019934  -0.031251  0  4.008413  0
C  C134  1  0.45422248  0.65105180  0.35362996  1  -0.040961  0  -0.019387  -0.019544  0  4.018859  0
C  C135  1  0.55427664  0.35031887  0.64746714  1  -0.051691  0  -0.019791  -0.030915  0  4.008589  0
C  C136  1  0.81228479  0.99593048  0.02379157  1  -0.072275  0  -0.093411  -0.124276  0  3.993283  0
C  C137  1  0.17979411  0.00071585  0.97405995  1  -0.068978  0  -0.093891  -0.126162  0  3.991689  0
C  C138  1  0.31226020  0.50406105  0.47621106  1  -0.072091  0  -0.093402  -0.12424  0  3.993194  0
C  C139  1  0.67978398  0.49929517  0.52594069  1  -0.068914  0  -0.093821  -0.126128  0  3.991512  0
C  C140  1  0.83396046  0.03345631  0.98907091  1  0.029089  0  -0.094751  -0.136121  0  3.989417  0
C  C141  1  0.15858409  0.96361337  0.00911422  1  -0.080104  0  -0.095176  -0.137242  0  3.99765  0
C  C142  1  0.33396054  0.46654651  0.51093856  1  0.029625  0  -0.094697  -0.136152  0  3.99004  0
C  C143  1  0.65856441  0.53639062  0.49088226  1  -0.079869  0  -0.095284  -0.137599  0  3.997558  0
C  C144  1  0.01790447  0.03697788  0.96354688  1  -0.022354  0  -0.01234  0.07183  0  4.013597  0
C  C145  1  0.97521157  0.96054357  0.03491521  1  0.000772  0  -0.01119  0.078526  0  4.014966  0
C  C146  1  0.51791139  0.46302035  0.53645240  1  -0.022379  0  -0.012335  0.071982  0  4.013709  0
C  C147  1  0.47517748  0.53945322  0.46508192  1  0.000984  0  -0.011106  0.078697  0  4.014609  0
C  C148  1  0.40760190  0.65076903  0.95079917  1  0.380882  0  -0.139447  -0.170844  0  3.916229  0
C  C149  1  0.59211342  0.35133984  0.04740679  1  0.329995  0  -0.140043  -0.170094  0  3.9161  0
C  C150  1  0.90751498  0.84922044  0.54919908  1  0.38164  0  -0.139552  -0.171004  0  3.916942  0
C  C151  1  0.09217758  0.14866531  0.45258795  1  0.330736  0  -0.140014  -0.170086  0  3.916134  0
C  C152  1  0.59307471  0.53851187  0.84533802  1  0.311455  0  -0.143321  -0.17249  0  3.89035  0
C  C153  1  0.41506915  0.46300109  0.15384101  1  0.35758  0  -0.144187  -0.17379  0  3.893965  0
C  C154  1  0.09306353  0.96149472  0.65466342  1  0.311118  0  -0.143284  -0.17244  0  3.890103  0
C  C155  1  0.91508783  0.03698982  0.34616380  1  0.357528  0  -0.144304  -0.173847  0  3.89402  0
C  C156  1  0.50680159  0.83034153  0.03520716  1  0.379951  0  -0.13801  -0.176467  0  3.921072  0
C  C157  1  0.37852071  0.14680012  0.99534360  1  0.38368  0  -0.136807  -0.164553  0  3.928811  0
C  C158  1  0.00677994  0.66965718  0.46478572  1  0.380035  0  -0.137962  -0.176255  0  3.921298  0
C  C159  1  0.87850559  0.35320304  0.50465785  1  0.38379  0  -0.136806  -0.164365  0  3.928712  0
Cl  Cl160  1  0.73418296  0.54473446  0.23200500  1  -0.182136  0  0.023644  -0.037784  0  1.599268  0
Cl  Cl161  1  0.27786747  0.45400309  0.76778216  1  -0.180509  0  0.025252  -0.032919  0  1.586736  0
Cl  Cl162  1  0.23419268  0.95526293  0.26799134  1  -0.182146  0  0.023696  -0.037701  0  1.599241  0
Cl  Cl163  1  0.77783359  0.04600042  0.73221981  1  -0.180253  0  0.025228  -0.032922  0  1.586775  0
Cl  Cl164  1  0.39731481  0.58854190  0.05617961  1  -0.191489  0  0.025746  -0.032221  0  1.620866  0
Cl  Cl165  1  0.61247848  0.41400284  0.94303485  1  -0.190784  0  0.029433  -0.027628  0  1.626286  0
Cl  Cl166  1  0.89729947  0.91146167  0.44382562  1  -0.191881  0  0.025739  -0.032279  0  1.621309  0
Cl  Cl167  1  0.11246200  0.08599736  0.55696431  1  -0.190744  0  0.029416  -0.027683  0  1.626149  0
O  O168  1  0.62051789  0.82859047  0.29471363  1  -1.252675  0  -0.229724  -0.57662  0  2.296871  0
O  O169  1  0.39237314  0.17119309  0.70496854  1  -1.245955  0  -0.229348  -0.575534  0  2.297123  0
O  O170  1  0.12052721  0.67140039  0.20529344  1  -1.25289  0  -0.229712  -0.576588  0  2.296849  0
O  O171  1  0.89238801  0.32880771  0.79504310  1  -1.245661  0  -0.229351  -0.575633  0  2.297185  0
O  O172  1  0.27662224  0.70443308  0.30037577  1  -1.262196  0  -0.240122  -0.592  0  2.335513  0
O  O173  1  0.73663619  0.29754367  0.70050530  1  -1.255146  0  -0.240685  -0.594103  0  2.334473  0
O  O174  1  0.77662250  0.79557904  0.19962892  1  -1.262851  0  -0.240129  -0.591992  0  2.335499  0
O  O175  1  0.23662380  0.20247231  0.79949491  1  -1.255109  0  -0.240638  -0.594153  0  2.334509  0
O  O176  1  0.27862252  0.82465495  0.29171637  1  -1.261062  0  -0.229768  -0.592731  0  2.379131  0
O  O177  1  0.73438646  0.17639480  0.70709135  1  -1.254598  0  -0.230028  -0.59329  0  2.374775  0
O  O178  1  0.77863768  0.67535501  0.20827429  1  -1.261411  0  -0.229684  -0.592609  0  2.37946  0
O  O179  1  0.23438183  0.32360690  0.79289478  1  -1.254344  0  -0.229992  -0.593353  0  2.374883  0
O  O180  1  0.11987268  0.79259731  0.19864857  1  -1.261576  0  -0.239676  -0.598398  0  2.367422  0
O  O181  1  0.89379545  0.20783671  0.80096664  1  -1.256271  0  -0.239816  -0.601585  0  2.376227  0
O  O182  1  0.61987525  0.70738138  0.30134026  1  -1.261588  0  -0.239685  -0.598525  0  2.367283  0
O  O183  1  0.39381553  0.29214974  0.69903054  1  -1.255962  0  -0.239813  -0.601566  0  2.376246  0
O  O184  1  0.45025597  0.73847938  0.21903069  1  -1.436937  0  -0.448966  -0.987336  0  2.210157  0
O  O185  1  0.56287845  0.26064687  0.78088844  1  -1.422773  0  -0.448318  -0.990268  0  2.21493  0
O  O186  1  0.95024512  0.76152017  0.28096876  1  -1.436999  0  -0.448944  -0.987317  0  2.210191  0
O  O187  1  0.06287875  0.23935470  0.71911307  1  -1.422913  0  -0.448331  -0.990309  0  2.215019  0
O  O188  1  0.45316968  0.58841794  0.95321378  1  -1.070698  0  -0.204925  -0.186908  0  2.610852  0
O  O189  1  0.55213947  0.41433925  0.04599917  1  -1.066459  0  -0.205609  -0.188776  0  2.614507  0
O  O190  1  0.95312977  0.91157249  0.54678972  1  -1.0707  0  -0.204872  -0.186879  0  2.610678  0
O  O191  1  0.05216569  0.08566961  0.45399641  1  -1.066027  0  -0.205626  -0.188836  0  2.614386  0
O  O192  1  0.38148264  0.55347659  0.85432369  1  -1.071119  0  -0.207832  -0.192882  0  2.583366  0
O  O193  1  0.62601564  0.44720318  0.14477895  1  -1.081062  0  -0.207901  -0.192178  0  2.583412  0
O  O194  1  0.88146943  0.94652669  0.64567808  1  -1.07214  0  -0.207876  -0.19303  0  2.583225  0
O  O195  1  0.12603033  0.05279487  0.35521571  1  -1.081858  0  -0.207755  -0.192086  0  2.583126  0
O  O196  1  0.64282619  0.88140017  0.04154579  1  -1.077927  0  -0.18988  -0.171018  0  2.586527  0
O  O197  1  0.38641235  0.10456415  0.94714536  1  -1.081974  0  -0.210239  -0.210102  0  2.559727  0
O  O198  1  0.14279575  0.61859628  0.45845294  1  -1.077591  0  -0.18986  -0.171198  0  2.58663  0
O  O199  1  0.88641124  0.39544394  0.55285421  1  -1.081618  0  -0.210327  -0.21014  0  2.559522  0
