# generated using pymatgen
data_MnH26C24(NO2)2
_symmetry_space_group_name_H-M   'P 1'
_cell_length_a   8.62665938
_cell_length_b   9.85600922
_cell_length_c   15.45558375
_cell_angle_alpha   72.51186192
_cell_angle_beta   91.20158032
_cell_angle_gamma   77.14049706
_symmetry_Int_Tables_number   1
_chemical_formula_structural   MnH26C24(NO2)2
_chemical_formula_sum   'Mn2 H52 C48 N4 O8'
_cell_volume   1216.46166876
_cell_formula_units_Z   2
loop_
 _symmetry_equiv_pos_site_id
 _symmetry_equiv_pos_as_xyz
  1  'x, y, z'
loop_
 _atom_site_type_symbol
 _atom_site_label
 _atom_site_symmetry_multiplicity
 _atom_site_fract_x
 _atom_site_fract_y
 _atom_site_fract_z
 _atom_site_occupancy
 _atom_site_pbe_bader_charge
 _atom_site_pbe_bader_spin_density
 _atom_site_pbe_cm5_charge
 _atom_site_pbe_ddec_charge
 _atom_site_pbe_ddec_spin_density
 _atom_site_pbe_ddec_sum_bond_order
 _atom_site_pbe_magmom
Mn  Mn0  1  0.94592493  0.83085441  0.58919489  1  1.48145  4.518705  0.599327  0.851396  4.660203  2.42707  4.432
Mn  Mn1  1  0.05407065  0.16914840  0.41080699  1  1.481521  4.518742  0.599338  0.851494  4.660256  2.426811  4.432
H  H2  1  0.24727161  0.63283753  0.71132829  1  0.114676  0.001084  0.122881  0.090757  0.000501  1.018218  0.0
H  H3  1  0.75272177  0.36717290  0.28866946  1  0.114631  0.001084  0.12287  0.090759  0.000501  1.018248  0.0
H  H4  1  0.63862517  0.03371393  0.47298547  1  0.089648  0.001464  0.119388  0.082234  0.000662  1.02852  0.0
H  H5  1  0.36137426  0.96629996  0.52701421  1  0.089439  0.001465  0.11947  0.082335  0.000662  1.028352  0.0
H  H6  1  0.41838628  0.24133541  0.46968345  1  0.174382  0.00061  0.112349  0.133473  -0.000168  1.059119  0.0
H  H7  1  0.58161187  0.75867079  0.53031970  1  0.17435  0.000611  0.112338  0.133514  -0.000168  1.059002  0.0
H  H8  1  0.53686974  0.91186998  0.70117645  1  -0.01824  9.7e-05  0.085486  0.089439  -0.000294  1.009561  0.0
H  H9  1  0.46312958  0.08812729  0.29882073  1  -0.018192  9.7e-05  0.085492  0.089448  -0.000294  1.009526  0.0
H  H10  1  0.40563613  0.79783439  0.69893348  1  0.027722  0.000396  0.088136  0.092312  -0.000146  1.025025  0.0
H  H11  1  0.59436038  0.20216066  0.30106607  1  0.0278  0.000395  0.088082  0.092233  -0.000146  1.025101  0.0
H  H12  1  0.30171202  0.15149038  0.67340710  1  0.033424  0.000734  0.090361  0.103619  0.000267  1.044564  0.0
H  H13  1  0.69829369  0.84850928  0.32659416  1  0.033514  0.000734  0.09038  0.103632  0.000267  1.044586  0.0
H  H14  1  0.13305544  0.13108664  0.73241526  1  0.031749  0.001858  0.098684  0.112904  0.001008  0.976981  0.001
H  H15  1  0.86694481  0.86891183  0.26758621  1  0.03178  0.001858  0.098696  0.112918  0.001008  0.976979  0.001
H  H16  1  0.66722368  0.26642725  0.70951151  1  0.061716  0.000767  0.109836  0.11542  0.000405  0.99997  0.0
H  H17  1  0.33277455  0.73357456  0.29049317  1  0.061928  0.000767  0.109855  0.11543  0.000405  1.000041  0.0
H  H18  1  0.87493618  0.05224100  0.70291441  1  0.108103  0.001221  0.124045  0.0929  0.000438  0.993145  0.0
H  H19  1  0.12505699  0.94776616  0.29708529  1  0.108061  0.001221  0.124075  0.092959  0.000437  0.99321  0.0
H  H20  1  0.62842011  0.55456183  0.75435317  1  0.012528  0.001412  0.087797  0.095018  0.000728  1.025378  0.001
H  H21  1  0.37158320  0.44543770  0.24564293  1  0.012582  0.001412  0.087796  0.095035  0.000728  1.025331  0.001
H  H22  1  0.77116843  0.53401932  0.84558415  1  0.025357  0.001067  0.097411  0.113627  0.000535  0.979781  0.001
H  H23  1  0.22883286  0.46597904  0.15441088  1  0.025392  0.001067  0.097397  0.113607  0.000535  0.979709  0.001
H  H24  1  0.53957605  0.54069243  0.93627248  1  0.012867  2.4e-05  0.087363  0.08095  7e-06  1.037011  0.0
H  H25  1  0.46042708  0.45930385  0.06372751  1  0.011744  2.4e-05  0.087375  0.080997  7e-06  1.036999  0.0
H  H26  1  0.40361723  0.57924479  0.83985055  1  -0.009512  9.9e-05  0.084671  0.078361  2.7e-05  1.009976  0.0
H  H27  1  0.59638275  0.42075034  0.16014965  1  -0.009479  9.9e-05  0.084705  0.078417  2.7e-05  1.00994  0.0
H  H28  1  0.49770698  0.70766308  0.03647404  1  0.000634  1.5e-05  0.083472  0.078394  3e-06  1.00458  0.0
H  H29  1  0.50230166  0.29232996  0.96352468  1  0.00076  1.5e-05  0.083433  0.07833  3e-06  1.004581  0.0
H  H30  1  0.33376072  0.86354419  0.00772677  1  0.005636  2.1e-05  0.082272  0.073625  9e-06  1.003078  0.0
H  H31  1  0.66624598  0.13644778  0.99227604  1  0.005532  2e-05  0.082282  0.073604  9e-06  1.003029  0.0
H  H32  1  0.05469656  0.63733847  0.46356172  1  0.135102  0.001011  0.118351  0.091475  0.000113  1.013387  0.0
H  H33  1  0.94529185  0.36266091  0.53644016  1  0.135273  0.001011  0.118352  0.091556  0.000113  1.013242  0.0
H  H34  1  0.46894058  0.41845960  0.72051226  1  0.045449  0.000693  0.105943  0.107129  0.000384  1.027052  0.0
H  H35  1  0.53105608  0.58154764  0.27948874  1  0.045371  0.000693  0.10594  0.107091  0.000384  1.027078  0.0
H  H36  1  0.33094232  0.08109193  0.86758706  1  -0.003281  9.6e-05  0.083552  0.07777  6.3e-05  0.995571  0.0
H  H37  1  0.66905880  0.91890321  0.13241250  1  -0.003334  9.6e-05  0.08357  0.077769  6.3e-05  0.995598  0.0
H  H38  1  0.49302183  0.07749709  0.79883220  1  -0.014329  3.7e-05  0.079851  0.073335  -6e-06  1.0258  0.0
H  H39  1  0.50698045  0.92249808  0.20116801  1  -0.014321  3.7e-05  0.079852  0.073342  -6e-06  1.025736  0.0
H  H40  1  0.73147929  0.85163043  0.84132199  1  0.034687  0.000198  0.086557  0.090614  -9.9e-05  1.007514  0.0
H  H41  1  0.26852181  0.14836468  0.15867628  1  0.034694  0.000197  0.086517  0.090564  -9.9e-05  1.00759  0.0
H  H42  1  0.72937094  0.70067965  0.93802009  1  -0.002412  7.9e-05  0.086668  0.085389  4.4e-05  0.982413  0.0
H  H43  1  0.27063132  0.29931547  0.06197818  1  -0.002384  7.9e-05  0.086687  0.085414  4.4e-05  0.982397  0.0
H  H44  1  0.16536786  0.80335821  0.80001740  1  0.070928  9.9e-05  0.092516  0.108392  -0.000559  1.016037  0.0
H  H45  1  0.83463213  0.19663693  0.19998345  1  0.07107  9.9e-05  0.092527  0.108391  -0.000559  1.016106  0.0
H  H46  1  0.14191855  0.92070519  0.86818072  1  -0.008708  5.4e-05  0.082241  0.077034  2.5e-05  0.990843  0.0
H  H47  1  0.85808284  0.07929328  0.13182012  1  -0.008422  5.4e-05  0.082246  0.077049  2.5e-05  0.990867  0.0
H  H48  1  0.26661958  0.42377638  0.45970794  1  0.129613  0.000705  0.112415  0.131254  -2e-05  1.039815  0.0
H  H49  1  0.73337257  0.57622643  0.54029651  1  0.129632  0.000705  0.112444  0.131299  -1.9e-05  1.039798  0.0
H  H50  1  0.58783384  0.93607571  0.96120702  1  0.015653  4.6e-05  0.088052  0.053105  2e-05  0.994866  0.0
H  H51  1  0.41217073  0.06391946  0.03879190  1  0.015585  4.6e-05  0.08807  0.053063  2e-05  0.994818  0.0
H  H52  1  0.26331158  0.66011696  0.96133238  1  0.006021  5.6e-05  0.08864  0.054397  3.7e-05  0.967754  0.0
H  H53  1  0.73669156  0.33987931  0.03866761  1  0.006023  5.6e-05  0.088648  0.054382  3.7e-05  0.967752  0.0
C  C54  1  0.25744495  0.58242470  0.65720085  1  0.47484  0.00919  0.053663  0.095423  0.007132  3.94574  0.006
C  C55  1  0.74254905  0.41758356  0.34279799  1  0.475083  0.009189  0.053715  0.095334  0.007131  3.945782  0.006
C  C56  1  0.52127991  0.27551090  0.58984678  1  -0.00627  0.011746  0.012395  0.101365  0.009101  3.977366  0.007
C  C57  1  0.47871684  0.72449196  0.41015639  1  -0.00663  0.01174  0.012311  0.10121  0.009096  3.977212  0.007
C  C58  1  0.64075846  0.08870529  0.52419383  1  0.522777  0.01049  0.056451  0.105027  0.008415  3.945561  0.007
C  C59  1  0.35924160  0.91130195  0.47580395  1  0.522987  0.010483  0.056435  0.104973  0.00841  3.945569  0.007
C  C60  1  0.39107902  0.40158921  0.58976159  1  -0.031945  0.009492  0.011109  0.098224  0.007343  3.971207  0.005
C  C61  1  0.60891682  0.59841246  0.41023793  1  -0.032408  0.009486  0.011148  0.09838  0.007338  3.971213  0.005
C  C62  1  0.51662919  0.20602001  0.52310159  1  -0.082061  0.001405  -0.079667  -0.170794  0.000324  3.899806  0.0
C  C63  1  0.48336479  0.79399269  0.47689895  1  -0.081998  0.001404  -0.079586  -0.170736  0.000323  3.899571  0.0
C  C64  1  0.79663129  0.68556799  0.71795376  1  1.538526  0.008807  0.199475  0.619078  0.010153  4.147917  0.006
C  C65  1  0.20337201  0.31443152  0.28204170  1  1.538433  0.008802  0.19944  0.618975  0.01015  4.14803  0.006
C  C66  1  0.46304565  0.84460686  0.74343827  1  0.006386  0.000564  -0.164696  -0.252011  0.000244  3.786765  0.0
C  C67  1  0.53695804  0.15538717  0.25655894  1  0.006534  0.000564  -0.164741  -0.252025  0.000244  3.786829  0.0
C  C68  1  0.15426937  0.03997087  0.62403441  1  1.555701  0.021802  0.221277  0.635341  0.021595  4.141719  0.019
C  C69  1  0.84573308  0.96003201  0.37596426  1  1.556119  0.021801  0.221331  0.635354  0.021593  4.141616  0.019
C  C70  1  0.33400949  0.94328972  0.78049492  1  0.04429  0.001352  -0.017176  0.194887  0.000953  3.742983  0.001
C  C71  1  0.66599624  0.05670547  0.21950400  1  0.044337  0.001352  -0.017111  0.195045  0.000953  3.742802  0.001
C  C72  1  0.23145435  0.07153143  0.70311047  1  -0.034481  0.005032  -0.163933  -0.357532  0.003628  3.895158  0.003
C  C73  1  0.76855144  0.92846383  0.29689167  1  -0.034888  0.005032  -0.163953  -0.357539  0.003628  3.895099  0.003
C  C74  1  0.57008292  0.72028202  0.82184937  1  0.047609  0.000713  -0.013158  0.189966  0.000469  3.752875  0.001
C  C75  1  0.42991675  0.27971419  0.17814997  1  0.047118  0.000713  -0.013066  0.190007  0.000469  3.75292  0.001
C  C76  1  0.65366822  0.21845288  0.65571566  1  -0.039584  0.001069  -0.082486  -0.181374  0.000274  3.963049  0.0
C  C77  1  0.34632816  0.78155101  0.34428342  1  -0.039286  0.001068  -0.082588  -0.181465  0.000274  3.963122  0.0
C  C78  1  0.77224247  0.09972219  0.65194259  1  0.481817  0.01015  0.053037  0.094319  0.007577  3.958052  0.006
C  C79  1  0.22775073  0.90028500  0.34805904  1  0.481712  0.010149  0.053086  0.094326  0.007576  3.958119  0.006
C  C80  1  0.69298325  0.61392933  0.78654488  1  -0.035797  0.000124  -0.161544  -0.342144  -0.000475  3.897223  -0.001
C  C81  1  0.30701957  0.38606803  0.21345424  1  -0.035895  0.000124  -0.161602  -0.342189  -0.000474  3.897279  -0.001
C  C82  1  0.46331564  0.63053192  0.88084296  1  -0.0094  9.1e-05  -0.163429  -0.239044  7.2e-05  3.873108  0.0
C  C83  1  0.53668633  0.36946433  0.11915638  1  -0.008372  9.1e-05  -0.163484  -0.239154  7.2e-05  3.873004  0.0
C  C84  1  0.42285883  0.79456081  0.97879456  1  -0.029827  3.5e-05  -0.168089  -0.217446  2.5e-05  3.914586  0.0
C  C85  1  0.57714722  0.20543330  0.02120523  1  -0.029589  3.5e-05  -0.168136  -0.217436  2.5e-05  3.91433  0.0
C  C86  1  0.15011799  0.58467121  0.51876775  1  0.430048  0.009819  0.051417  0.093706  0.007574  3.938015  0.006
C  C87  1  0.84986981  0.41533036  0.48123369  1  0.429878  0.009814  0.051449  0.093724  0.00757  3.938052  0.006
C  C88  1  0.38129848  0.46278913  0.66126882  1  -0.009872  0.002444  -0.082804  -0.174816  0.001679  3.94922  0.001
C  C89  1  0.61869041  0.53721689  0.33873303  1  -0.009487  0.002443  -0.082857  -0.17475  0.001678  3.949262  0.001
C  C90  1  0.42029364  0.00875048  0.84083830  1  -0.012745  0.000187  -0.164301  -0.233543  0.000189  3.873882  0.0
C  C91  1  0.57970858  0.99124909  0.15916103  1  -0.012785  0.000187  -0.164268  -0.233559  0.000189  3.873873  0.0
C  C92  1  0.65249493  0.78867358  0.88159405  1  -0.015417  0.000316  -0.163881  -0.231969  0.000222  3.859145  0.0
C  C93  1  0.34750819  0.21132269  0.11840529  1  -0.015265  0.000316  -0.163865  -0.231998  0.000222  3.85932  0.0
C  C94  1  0.23171213  0.84955511  0.84081652  1  -0.040813  3.8e-05  -0.166524  -0.240847  -0.000155  3.848273  0.0
C  C95  1  0.76828840  0.15044224  0.15918389  1  -0.041277  3.7e-05  -0.166556  -0.240909  -0.000156  3.84838  0.0
C  C96  1  0.26982834  0.46529954  0.51743468  1  0.014824  0.002061  -0.076617  -0.162772  0.001242  3.908175  0.001
C  C97  1  0.73016614  0.53469883  0.48256678  1  0.014823  0.002059  -0.076622  -0.162947  0.00124  3.908359  0.001
C  C98  1  0.52674101  0.88673345  0.91971459  1  0.007922  0.000159  -0.092902  0.039662  0.000126  3.86067  0.0
C  C99  1  0.47326274  0.11326064  0.08028584  1  0.007935  0.000159  -0.09294  0.03979  0.000126  3.86059  0.0
C  C100  1  0.33790547  0.72732321  0.91976252  1  0.012539  4.8e-05  -0.091544  0.043735  6.7e-05  3.863034  0.0
C  C101  1  0.66209913  0.27267200  0.08023768  1  0.012274  4.8e-05  -0.091508  0.043792  6.7e-05  3.862845  0.0
N  N102  1  0.14336062  0.64405180  0.58688803  1  -1.254917  0.053935  -0.316492  -0.227528  0.034821  3.488681  0.017
N  N103  1  0.85662909  0.35595530  0.41311166  1  -1.254864  0.05393  -0.316533  -0.227539  0.034819  3.488699  0.017
N  N104  1  0.76815190  0.03568333  0.58654176  1  -1.278666  0.052476  -0.316174  -0.245651  0.034343  3.519929  0.016
N  N105  1  0.23184906  0.96432508  0.41345902  1  -1.278848  0.052485  -0.316248  -0.245674  0.034344  3.519965  0.016
O  O106  1  0.12229859  0.14495727  0.54892742  1  -1.213941  0.074234  -0.316139  -0.569355  0.052589  2.34229  0.035
O  O107  1  0.87769897  0.85504667  0.45107359  1  -1.213948  0.074231  -0.316158  -0.569334  0.05259  2.342213  0.035
O  O108  1  0.12486181  0.91533938  0.63612676  1  -1.212177  0.072052  -0.306385  -0.563353  0.051351  2.403883  0.033
O  O109  1  0.87514121  0.08466125  0.36386977  1  -1.212224  0.072047  -0.306425  -0.563433  0.051352  2.403948  0.033
O  O110  1  0.76562681  0.70009834  0.63326100  1  -1.201984  0.056951  -0.326221  -0.574748  0.03966  2.229568  0.03
O  O111  1  0.23438581  0.29989694  0.36673600  1  -1.201868  0.05695  -0.326173  -0.574689  0.039658  2.229542  0.03
O  O112  1  0.90973641  0.73288949  0.74290619  1  -1.188235  0.050578  -0.322934  -0.560165  0.035262  2.144302  0.029
O  O113  1  0.09026057  0.26711219  0.25709269  1  -1.188161  0.050572  -0.322926  -0.560134  0.035259  2.144254  0.029
