# generated using pymatgen
data_KBH31(C8N3)3
_symmetry_space_group_name_H-M   'P 1'
_cell_length_a   10.40123002
_cell_length_b   12.14774354
_cell_length_c   13.23049978
_cell_angle_alpha   65.29927877
_cell_angle_beta   67.51966262
_cell_angle_gamma   89.43471394
_symmetry_Int_Tables_number   1
_chemical_formula_structural   KBH31(C8N3)3
_chemical_formula_sum   'K2 B2 H62 C48 N18'
_cell_volume   1380.77098643
_cell_formula_units_Z   2
loop_
 _symmetry_equiv_pos_site_id
 _symmetry_equiv_pos_as_xyz
  1  'x, y, z'
loop_
 _atom_site_type_symbol
 _atom_site_label
 _atom_site_symmetry_multiplicity
 _atom_site_fract_x
 _atom_site_fract_y
 _atom_site_fract_z
 _atom_site_occupancy
 _atom_site_hle17_bader_spin_density
 _atom_site_hle17_ddec_charge
 _atom_site_hle17_ddec_spin_density
 _atom_site_hle17_ddec_sum_bond_order
 _atom_site_hle17_magmom
 _atom_site_hse06_10hf_bader_spin_density
 _atom_site_hse06_10hf_ddec_charge
 _atom_site_hse06_10hf_ddec_spin_density
 _atom_site_hse06_10hf_ddec_sum_bond_order
 _atom_site_hse06_10hf_magmom
 _atom_site_hse06_bader_spin_density
 _atom_site_hse06_ddec_charge
 _atom_site_hse06_ddec_spin_density
 _atom_site_hse06_ddec_sum_bond_order
 _atom_site_hse06_magmom
 _atom_site_pbe_bader_spin_density
 _atom_site_pbe_cm5_charge
 _atom_site_pbe_ddec_charge
 _atom_site_pbe_ddec_spin_density
 _atom_site_pbe_ddec_sum_bond_order
 _atom_site_pbe_magmom
K  K0  1  0.18776210  0.19260483  0.38889029  1  0  0.907084  0  0.463587  0  0  0.831135  0  0.676305  0  0  0.845877  0  0.655939  0  0  0.842555  0.819464  0  0.691612  0
K  K1  1  0.81223803  0.80739357  0.61111149  1  0  0.907089  0  0.463588  0  0  0.831155  0  0.676293  0  0  0.845894  0  0.655931  0  0  0.842541  0.81947  0  0.691601  0
B  B2  1  0.88268993  0.08764215  0.62998566  1  0  0.482035  0  3.215423  0  0  0.300444  0  3.535227  0  0  0.319658  0  3.536044  0  0  -0.096197  0.28699  0  3.535667  0
B  B3  1  0.11731143  0.91235717  0.37001464  1  0  0.482006  0  3.21548  0  0  0.30041  0  3.535279  0  0  0.319614  0  3.536119  0  0  -0.096217  0.286946  0  3.535727  0
H  H4  1  0.04572309  0.38461360  0.83085253  1  0  0.09279  0  0.960089  0  0  0.111778  0  1.025661  0  0  0.11318  0  1.025523  0  0  0.08239  0.110714  0  1.025873  0
H  H5  1  0.95427591  0.61538940  0.16914405  1  0  0.092812  0  0.960066  0  0  0.111794  0  1.025647  0  0  0.113195  0  1.02551  0  0  0.082398  0.11073  0  1.025859  0
H  H6  1  0.21934052  0.36679004  0.82192607  1  0  0.099325  0  0.963558  0  0  0.121733  0  1.025193  0  0  0.12264  0  1.026042  0  0  0.087775  0.121079  0  1.024615  0
H  H7  1  0.78065829  0.63321204  0.17807318  1  0  0.09931  0  0.963566  0  0  0.121718  0  1.025209  0  0  0.122626  0  1.026058  0  0  0.08776  0.121064  0  1.024633  0
H  H8  1  0.09792845  0.23798987  0.86150403  1  0  0.103624  0  0.940573  0  0  0.124976  0  0.998524  0  0  0.126445  0  0.998578  0  0  0.087347  0.123833  0  0.998641  0
H  H9  1  0.90206913  0.76201129  0.13849519  1  0  0.103637  0  0.94056  0  0  0.124997  0  0.998511  0  0  0.126465  0  0.998565  0  0  0.087373  0.123854  0  0.998626  0
H  H10  1  0.28016022  0.20108697  0.68771581  1  0  0.109684  0  0.955072  0  0  0.128557  0  1.017769  0  0  0.130084  0  1.017652  0  0  0.089471  0.127463  0  1.017844  0
H  H11  1  0.71984030  0.79891327  0.31228515  1  0  0.109692  0  0.955054  0  0  0.128565  0  1.017753  0  0  0.130092  0  1.017635  0  0  0.089468  0.127471  0  1.017828  0
H  H12  1  0.39848221  0.33072631  0.64933858  1  0  0.096451  0  0.952368  0  0  0.118549  0  1.012084  0  0  0.119577  0  1.012502  0  0  0.082959  0.117583  0  1.01238  0
H  H13  1  0.60151812  0.66927301  0.35066204  1  0  0.096459  0  0.952365  0  0  0.118559  0  1.012078  0  0  0.119588  0  1.012495  0  0  0.082962  0.117591  0  1.012375  0
H  H14  1  0.35226060  0.32123881  0.53625485  1  0  0.097693  0  0.960334  0  0  0.116867  0  1.024442  0  0  0.118204  0  1.024568  0  0  0.087287  0.116005  0  1.02418  0
H  H15  1  0.64773973  0.67876051  0.46374577  1  0  0.097728  0  0.960308  0  0  0.116892  0  1.024424  0  0  0.118229  0  1.024549  0  0  0.087286  0.116027  0  1.024167  0
H  H16  1  0.28562828  0.53065620  0.49037903  1  0  0.09533  0  0.954419  0  0  0.117113  0  1.014837  0  0  0.118146  0  1.01509  0  0  0.085297  0.116104  0  1.01522  0
H  H17  1  0.71437205  0.46934312  0.50961932  1  0  0.095358  0  0.95442  0  0  0.117128  0  1.014855  0  0  0.118161  0  1.015108  0  0  0.08529  0.116115  0  1.015237  0
H  H18  1  0.32835860  0.53730306  0.60566005  1  0  0.105259  0  0.939814  0  0  0.129763  0  0.994995  0  0  0.130997  0  0.995566  0  0  0.089669  0.128887  0  0.994574  0
H  H19  1  0.67164276  0.46269626  0.39433798  1  0  0.105251  0  0.939813  0  0  0.129762  0  0.994987  0  0  0.130999  0  0.995556  0  0  0.089645  0.128882  0  0.994566  0
H  H20  1  0.15956095  0.56256446  0.60668664  1  0  0.101408  0  0.965392  0  0  0.118752  0  1.033466  0  0  0.119668  0  1.034964  0  0  0.08485  0.118079  0  1.032402  0
H  H21  1  0.84044079  0.43743671  0.39331058  1  0  0.101463  0  0.965493  0  0  0.118811  0  1.033546  0  0  0.119725  0  1.035044  0  0  0.084875  0.118133  0  1.032483  0
H  H22  1  0.75472501  0.29540329  0.64086305  1  0  0.115008  0  0.935265  0  0  0.129229  0  0.992632  0  0  0.131776  0  0.990113  0  0  0.134302  0.126978  0  0.995119  0
H  H23  1  0.24527759  0.70459695  0.35913427  1  0  0.114994  0  0.935279  0  0  0.129213  0  0.992648  0  0  0.13176  0  0.990128  0  0  0.134285  0.126963  0  0.995141  0
H  H24  1  0.06653253  0.33365957  0.17964621  1  0  0.095497  0  0.962214  0  0  0.113398  0  1.030077  0  0  0.114965  0  1.029539  0  0  0.086881  0.11216  0  1.030678  0
H  H25  1  0.93346676  0.66633975  0.82035321  1  0  0.095467  0  0.962219  0  0  0.11337  0  1.030075  0  0  0.114934  0  1.029541  0  0  0.08687  0.112133  0  1.030673  0
H  H26  1  0.06700156  0.29151509  0.06561578  1  0  0.097175  0  0.956156  0  0  0.12056  0  1.016158  0  0  0.121263  0  1.017212  0  0  0.086009  0.120002  0  1.015443  0
H  H27  1  0.93299565  0.70848423  0.93438577  1  0  0.09717  0  0.956155  0  0  0.120552  0  1.01616  0  0  0.121255  0  1.017215  0  0  0.086004  0.119993  0  1.015445  0
H  H28  1  0.07531155  0.17951057  0.20109543  1  0  0.102837  0  0.988103  0  0  0.11723  0  1.059155  0  0  0.118566  0  1.060301  0  0  0.090424  0.116275  0  1.058425  0
H  H29  1  0.92468670  0.82048875  0.79890506  1  0  0.102866  0  0.988067  0  0  0.11723  0  1.05915  0  0  0.118571  0  1.060292  0  0  0.090432  0.116273  0  1.058422  0
H  H30  1  0.86125599  0.04075063  0.24190518  1  0  0.112033  0  0.94331  0  0  0.13038  0  1.00708  0  0  0.132484  0  1.006305  0  0  0.091832  0.128909  0  1.00757  0
H  H31  1  0.13874368  0.95925053  0.75809342  1  0  0.112037  0  0.943286  0  0  0.130361  0  1.007086  0  0  0.132464  0  1.006312  0  0  0.091824  0.128889  0  1.007582  0
H  H32  1  0.85707177  0.15305341  0.10366855  1  0  0.09611  0  0.95289  0  0  0.118501  0  1.012062  0  0  0.11972  0  1.012336  0  0  0.085039  0.11761  0  1.011912  0
H  H33  1  0.14292770  0.84694683  0.89633122  1  0  0.096092  0  0.952831  0  0  0.118482  0  1.012005  0  0  0.119702  0  1.012277  0  0  0.085031  0.117592  0  1.01185  0
H  H34  1  0.70294644  0.09829894  0.24373763  1  0  0.102773  0  0.952431  0  0  0.12334  0  1.013166  0  0  0.124376  0  1.013836  0  0  0.087669  0.122604  0  1.012719  0
H  H35  1  0.29705180  0.90170038  0.75626210  1  0  0.102785  0  0.952447  0  0  0.123367  0  1.013156  0  0  0.124402  0  1.013827  0  0  0.08768  0.12263  0  1.012704  0
H  H36  1  0.69167996  0.32655694  0.20567925  1  0  0.099686  0  0.976091  0  0  0.120136  0  1.038858  0  0  0.120898  0  1.040146  0  0  0.086302  0.119535  0  1.038068  0
H  H37  1  0.30831886  0.67344515  0.79432001  1  0  0.099705  0  0.976122  0  0  0.120157  0  1.038886  0  0  0.120919  0  1.040174  0  0  0.086316  0.11956  0  1.038092  0
H  H38  1  0.84759025  0.37553359  0.06821173  1  0  0.101048  0  0.94334  0  0  0.124334  0  1.000387  0  0  0.125742  0  1.000417  0  0  0.087023  0.123286  0  1.000433  0
H  H39  1  0.15241027  0.62446665  0.93178772  1  0  0.101077  0  0.943327  0  0  0.124365  0  1.00037  0  0  0.125773  0  1.000401  0  0  0.087032  0.12332  0  1.000412  0
H  H40  1  0.84123734  0.41925431  0.18253245  1  0  0.099144  0  0.962511  0  0  0.120548  0  1.024806  0  0  0.12164  0  1.025399  0  0  0.085276  0.119768  0  1.02432  0
H  H41  1  0.15876460  0.58074778  0.81746663  1  0  0.09916  0  0.962533  0  0  0.120578  0  1.024808  0  0  0.121672  0  1.025398  0  0  0.085288  0.1198  0  1.02432  0
H  H42  1  0.58849179  0.08654285  0.65312689  1  0  0.128794  0  0.973701  0  0  0.132306  0  1.047033  0  0  0.136348  0  1.042052  0  0  0.128176  0.129393  0  1.050504  0
H  H43  1  0.41151250  0.91345555  0.34687288  1  0  0.128718  0  0.973644  0  0  0.132257  0  1.046964  0  0  0.1363  0  1.041984  0  0  0.128163  0.129344  0  1.050438  0
H  H44  1  0.81130838  0.09753832  0.85859925  1  0  0.113461  0  0.947133  0  0  0.126342  0  1.00442  0  0  0.129004  0  1.001987  0  0  0.132488  0.124301  0  1.006299  0
H  H45  1  0.18869459  0.90246376  0.14139952  1  0  0.113435  0  0.947322  0  0  0.126319  0  1.004598  0  0  0.128981  0  1.002164  0  0  0.132473  0.124273  0  1.006479  0
H  H46  1  0.51554803  0.73191986  0.81630295  1  0  0.101951  0  0.981134  0  0  0.118872  0  1.050619  0  0  0.120549  0  1.050259  0  0  0.089868  0.117544  0  1.051109  0
H  H47  1  0.48444917  0.26807946  0.18369936  1  0  0.101979  0  0.981111  0  0  0.118866  0  1.050615  0  0  0.120541  0  1.05026  0  0  0.089858  0.117539  0  1.051109  0
H  H48  1  0.44663093  0.58549651  0.94590034  1  0  0.102618  0  0.962295  0  0  0.127203  0  1.019552  0  0  0.127804  0  1.020852  0  0  0.090953  0.126697  0  1.018711  0
H  H49  1  0.55336836  0.41450281  0.05410134  1  0  0.102624  0  0.962307  0  0  0.127217  0  1.01954  0  0  0.127818  0  1.020842  0  0  0.090962  0.126713  0  1.018698  0
H  H50  1  0.63212956  0.63731853  0.86699951  1  0  0.089041  0  0.966507  0  0  0.10892  0  1.033201  0  0  0.110317  0  1.032865  0  0  0.087118  0.107843  0  1.033599  0
H  H51  1  0.36786868  0.36268079  0.13300173  1  0  0.089032  0  0.966508  0  0  0.108916  0  1.033191  0  0  0.110312  0  1.032859  0  0  0.087113  0.107838  0  1.033592  0
H  H52  1  0.35772170  0.78781672  0.09846101  1  0  0.087812  0  0.98889  0  0  0.103566  0  1.062982  0  0  0.103923  0  1.064645  0  0  0.079697  0.103299  0  1.061765  0
H  H53  1  0.64227673  0.21218353  0.90154058  1  0  0.087763  0  0.988796  0  0  0.103516  0  1.062908  0  0  0.103873  0  1.064575  0  0  0.079645  0.103249  0  1.061688  0
H  H54  1  0.29145126  0.66767551  0.07826766  1  0  0.10076  0  0.959224  0  0  0.121943  0  1.020345  0  0  0.123072  0  1.021006  0  0  0.084846  0.121098  0  1.01994  0
H  H55  1  0.70854802  0.33232381  0.92173327  1  0  0.100773  0  0.959213  0  0  0.121954  0  1.020336  0  0  0.123084  0  1.020999  0  0  0.084858  0.121108  0  1.019932  0
H  H56  1  0.34830284  0.82111572  0.95721308  1  0  0.105529  0  0.956317  0  0  0.126542  0  1.016958  0  0  0.127662  0  1.017727  0  0  0.087597  0.125658  0  1.016535  0
H  H57  1  0.65169749  0.17888360  0.04278754  1  0  0.105508  0  0.956323  0  0  0.126518  0  1.01697  0  0  0.127632  0  1.017748  0  0  0.087588  0.125635  0  1.01655  0
H  H58  1  0.65333202  0.60648557  0.05899139  1  0  0.101  0  0.951391  0  0  0.124123  0  1.009907  0  0  0.125556  0  1.009793  0  0  0.087687  0.122989  0  1.010146  0
H  H59  1  0.34666707  0.39351283  0.94100919  1  0  0.101019  0  0.951326  0  0  0.124144  0  1.009842  0  0  0.125575  0  1.009733  0  0  0.087701  0.123012  0  1.010081  0
H  H60  1  0.46814436  0.54908377  0.14517416  1  0  0.10765  0  0.954995  0  0  0.131757  0  1.011352  0  0  0.13291  0  1.011907  0  0  0.0917  0.130903  0  1.010996  0
H  H61  1  0.53185578  0.45091463  0.85482763  1  0  0.107657  0  0.955014  0  0  0.131773  0  1.011355  0  0  0.132926  0  1.011911  0  0  0.091697  0.130919  0  1.010996  0
H  H62  1  0.54717448  0.67231614  0.15294185  1  0  0.097503  0  0.971659  0  0  0.117151  0  1.03568  0  0  0.118364  0  1.03599  0  0  0.084344  0.116148  0  1.035727  0
H  H63  1  0.45282689  0.32768318  0.84705921  1  0  0.097494  0  0.971687  0  0  0.117141  0  1.035707  0  0  0.118346  0  1.036027  0  0  0.084339  0.116135  0  1.035756  0
H  H64  1  0.98198569  0.03828640  0.59931720  1  0  -0.224498  0  0.963582  0  0  -0.191045  0  1.071442  0  0  -0.194399  0  1.069026  0  0  0.063276  -0.188687  0  1.073139  0
H  H65  1  0.01801568  0.96171292  0.40068310  1  0  -0.224487  0  0.963565  0  0  -0.191037  0  1.071432  0  0  -0.194391  0  1.06902  0  0  0.063277  -0.188674  0  1.073125  0
C  C66  1  0.54307083  0.16669880  0.42921798  1  0  0.337486  0  3.823709  0  0  0.325615  0  4.084794  0  0  0.339843  0  4.102451  0  0  0.201922  0.315754  0  4.072855  0
C  C67  1  0.45692950  0.83330052  0.57078415  1  0  0.337578  0  3.82364  0  0  0.325704  0  4.084722  0  0  0.339931  0  4.10238  0  0  0.201998  0.315844  0  4.072781  0
C  C68  1  0.89566876  0.47777897  0.67219399  1  0  0.325526  0  3.827668  0  0  0.312066  0  4.097447  0  0  0.326138  0  4.114756  0  0  0.195398  0.302297  0  4.085984  0
C  C69  1  0.10433562  0.52221482  0.32780299  1  0  0.325371  0  3.828073  0  0  0.311914  0  4.097856  0  0  0.325982  0  4.115157  0  0  0.195324  0.30214  0  4.086416  0
C  C70  1  0.13424912  0.33767506  0.80369161  1  0  -0.338402  0  3.665664  0  0  -0.417998  0  3.900441  0  0  -0.421017  0  3.911046  0  0  -0.239898  -0.4156  0  3.893102  0
C  C71  1  0.86575074  0.66232702  0.19630658  1  0  -0.338412  0  3.665718  0  0  -0.41805  0  3.900496  0  0  -0.421068  0  3.9111  0  0  -0.239938  -0.415654  0  3.893157  0
C  C72  1  0.31189203  0.30114523  0.63304506  1  0  -0.339676  0  3.682155  0  0  -0.421855  0  3.91944  0  0  -0.42454  0  3.930038  0  0  -0.245294  -0.419444  0  3.911666  0
C  C73  1  0.68810830  0.69885409  0.36695556  1  0  -0.33969  0  3.68215  0  0  -0.421898  0  3.919422  0  0  -0.424581  0  3.930015  0  0  -0.245297  -0.419487  0  3.911655  0
C  C74  1  0.24270252  0.50823418  0.58793080  1  0  -0.339392  0  3.662706  0  0  -0.420112  0  3.898881  0  0  -0.423406  0  3.910113  0  0  -0.243032  -0.417654  0  3.891111  0
C  C75  1  0.75729904  0.49176606  0.41206683  1  0  -0.339459  0  3.66281  0  0  -0.420206  0  3.898956  0  0  -0.423501  0  3.910186  0  0  -0.243031  -0.417739  0  3.891182  0
C  C76  1  0.18921218  0.36873169  0.66687077  1  0  0.189713  0  3.620275  0  0  0.229136  0  3.839167  0  0  0.228978  0  3.858437  0  0  -0.008323  0.229253  0  3.825769  0
C  C77  1  0.81078956  0.63126948  0.33312720  1  0  0.189578  0  3.620448  0  0  0.229147  0  3.839135  0  0  0.228989  0  3.858404  0  0  -0.00833  0.229261  0  3.82574  0
C  C78  1  0.06759398  0.32663576  0.64786805  1  0  0.137605  0  3.655887  0  0  0.129968  0  3.910866  0  0  0.136313  0  3.931326  0  0  0.119623  0.12591  0  3.896787  0
C  C79  1  0.93240654  0.67336448  0.35213140  1  0  0.137653  0  3.655943  0  0  0.129952  0  3.910958  0  0  0.136293  0  3.93142  0  0  0.119607  0.125889  0  3.896873  0
C  C80  1  0.93973272  0.37530549  0.65390944  1  0  -0.152205  0  3.913738  0  0  -0.135107  0  4.162842  0  0  -0.14641  0  4.186782  0  0  -0.025039  -0.12767  0  4.146548  0
C  C81  1  0.06026798  0.62469567  0.34608885  1  0  -0.152045  0  3.913421  0  0  -0.134957  0  4.162564  0  0  -0.146251  0  4.186495  0  0  -0.02496  -0.127516  0  4.146269  0
C  C82  1  0.85949277  0.29545315  0.63990718  1  0  0.027924  0  3.656732  0  0  -0.033028  0  3.922617  0  0  -0.022347  0  3.935215  0  0  0.048738  -0.039356  0  3.913534  0
C  C83  1  0.14050879  0.70454709  0.36009196  1  0  0.027962  0  3.656792  0  0  -0.032971  0  3.922663  0  0  -0.022291  0  3.93526  0  0  0.048783  -0.039307  0  3.913591  0
C  C84  1  0.02862999  0.26001769  0.16471595  1  0  -0.342563  0  3.672407  0  0  -0.422156  0  3.909223  0  0  -0.425012  0  3.919862  0  0  -0.244621  -0.419894  0  3.901922  0
C  C85  1  0.97136949  0.73998255  0.83528382  1  0  -0.342545  0  3.67235  0  0  -0.422101  0  3.909168  0  0  -0.424964  0  3.919805  0  0  -0.244606  -0.41984  0  3.901867  0
C  C86  1  0.81875475  0.12359568  0.20251936  1  0  -0.338786  0  3.647709  0  0  -0.415966  0  3.878898  0  0  -0.419038  0  3.889017  0  0  -0.238882  -0.413546  0  3.871751  0
C  C87  1  0.18124368  0.87640457  0.79747996  1  0  -0.338765  0  3.64763  0  0  -0.415936  0  3.878827  0  0  -0.419008  0  3.888947  0  0  -0.238861  -0.413516  0  3.871677  0
C  C88  1  0.80757741  0.34413105  0.16747989  1  0  -0.340581  0  3.659745  0  0  -0.418985  0  3.890363  0  0  -0.422  0  3.901076  0  0  -0.242937  -0.416553  0  3.882837  0
C  C89  1  0.19242311  0.65586919  0.83251956  1  0  -0.340666  0  3.659824  0  0  -0.41909  0  3.890442  0  0  -0.422104  0  3.901154  0  0  -0.242973  -0.416661  0  3.882909  0
C  C90  1  0.86659735  0.22837754  0.22458308  1  0  0.19287  0  3.613504  0  0  0.230501  0  3.835325  0  0  0.230303  0  3.854404  0  0  -0.006602  0.23068  0  3.822004  0
C  C91  1  0.13340298  0.77162178  0.77541678  1  0  0.192873  0  3.613543  0  0  0.230501  0  3.835355  0  0  0.230304  0  3.854435  0  0  -0.006608  0.23068  0  3.822037  0
C  C92  1  0.81107514  0.18443122  0.36121656  1  0  0.148976  0  3.655831  0  0  0.141324  0  3.909744  0  0  0.148633  0  3.929204  0  0  0.124517  0.136614  0  3.896378  0
C  C93  1  0.18892538  0.81556902  0.63878364  1  0  0.148947  0  3.655854  0  0  0.141306  0  3.909752  0  0  0.148614  0  3.929214  0  0  0.124517  0.136595  0  3.896388  0
C  C94  1  0.66705508  0.15751514  0.44855383  1  0  -0.15151  0  3.912298  0  0  -0.133764  0  4.157758  0  0  -0.145815  0  4.181706  0  0  -0.023376  -0.125737  0  4.14133  0
C  C95  1  0.33294317  0.84248418  0.55144515  1  0  -0.151538  0  3.912389  0  0  -0.133792  0  4.157844  0  0  -0.145839  0  4.181792  0  0  -0.023392  -0.12576  0  4.141416  0
C  C96  1  0.67268338  0.11493395  0.56242383  1  0  0.036184  0  3.626894  0  0  -0.023382  0  3.889525  0  0  -0.011889  0  3.900295  0  0  0.049701  -0.030418  0  3.881679  0
C  C97  1  0.32731326  0.88506260  0.43758198  1  0  0.036235  0  3.627064  0  0  -0.023368  0  3.88971  0  0  -0.011873  0  3.900468  0  0  0.049705  -0.030407  0  3.881877  0
C  C98  1  0.75693451  0.01886805  0.86312143  1  0  0.025297  0  3.663422  0  0  -0.034159  0  3.922915  0  0  -0.023079  0  3.935024  0  0  0.045978  -0.041038  0  3.914411  0
C  C99  1  0.24306279  0.98112667  0.13687959  1  0  0.025263  0  3.663383  0  0  -0.034227  0  3.922882  0  0  -0.023143  0  3.934997  0  0  0.045938  -0.041103  0  3.914377  0
C  C100  1  0.62468779  0.84304694  0.91522116  1  0  0.145578  0  3.656063  0  0  0.139068  0  3.907063  0  0  0.146068  0  3.926989  0  0  0.122008  0.134609  0  3.893247  0
C  C101  1  0.37531046  0.15695238  0.08478084  1  0  0.145572  0  3.656158  0  0  0.139063  0  3.907147  0  0  0.146064  0  3.927083  0  0  0.12201  0.134603  0  3.893332  0
C  C102  1  0.65832742  0.91793695  0.96432334  1  0  -0.143899  0  3.93082  0  0  -0.127982  0  4.178334  0  0  -0.138968  0  4.201253  0  0  -0.026854  -0.120744  0  4.16274  0
C  C103  1  0.34167574  0.08206605  0.03567350  1  0  -0.14388  0  3.930766  0  0  -0.127916  0  4.178213  0  0  -0.138919  0  4.201163  0  0  -0.026822  -0.120684  0  4.162626  0
C  C104  1  0.60025979  0.90285841  0.08510255  1  0  0.293529  0  3.833402  0  0  0.28223  0  4.101987  0  0  0.295819  0  4.119932  0  0  0.18584  0.272856  0  4.090183  0
C  C105  1  0.39974195  0.09714275  0.91489467  1  0  0.293605  0  3.833516  0  0  0.282294  0  4.102082  0  0  0.295888  0  4.120029  0  0  0.185879  0.272922  0  4.090284  0
C  C106  1  0.52016699  0.72405578  0.98301751  1  0  0.195951  0  3.617346  0  0  0.235266  0  3.834817  0  0  0.234879  0  3.854303  0  0  -0.00695  0.235302  0  3.821819  0
C  C107  1  0.47983248  0.27594446  0.01698301  1  0  0.195936  0  3.617375  0  0  0.235217  0  3.834916  0  0  0.234861  0  3.854311  0  0  -0.006953  0.235259  0  3.821912  0
C  C108  1  0.52981675  0.66701294  0.89725458  1  0  -0.348485  0  3.680192  0  0  -0.430653  0  3.913058  0  0  -0.433384  0  3.923652  0  0  -0.246006  -0.428393  0  3.905777  0
C  C109  1  0.47018149  0.33298638  0.10274742  1  0  -0.348532  0  3.680186  0  0  -0.430645  0  3.913038  0  0  -0.433382  0  3.92364  0  0  -0.246009  -0.428386  0  3.905761  0
C  C110  1  0.37001376  0.75230571  0.03204333  1  0  -0.341156  0  3.647919  0  0  -0.419388  0  3.878516  0  0  -0.422594  0  3.889885  0  0  -0.244745  -0.416826  0  3.870569  0
C  C111  1  0.62998552  0.24769361  0.96795836  1  0  -0.341087  0  3.647822  0  0  -0.419314  0  3.878425  0  0  -0.422521  0  3.889803  0  0  -0.244702  -0.416752  0  3.870478  0
C  C112  1  0.54934398  0.63276362  0.09145356  1  0  -0.343471  0  3.652713  0  0  -0.422885  0  3.881572  0  0  -0.425695  0  3.891332  0  0  -0.242212  -0.420629  0  3.874816  0
C  C113  1  0.45065634  0.36723570  0.90854706  1  0  -0.343475  0  3.652702  0  0  -0.422892  0  3.881572  0  0  -0.4257  0  3.891342  0  0  -0.242213  -0.420639  0  3.874816  0
N  N114  1  0.85482190  0.56151693  0.68890635  1  0  -0.487777  0  2.600798  0  0  -0.461131  0  2.833384  0  0  -0.472702  0  2.842441  0  0  -0.395611  -0.453199  0  2.827617  0
N  N115  1  0.14517625  0.43848699  0.31109391  1  0  -0.487654  0  2.601456  0  0  -0.461007  0  2.834043  0  0  -0.472576  0  2.843101  0  0  -0.395563  -0.453077  0  2.82829  0
N  N116  1  0.43950588  0.17457214  0.41323483  1  0  -0.501248  0  2.631301  0  0  -0.472369  0  2.864679  0  0  -0.484965  0  2.873838  0  0  -0.412252  -0.463707  0  2.858855  0
N  N117  1  0.56049236  0.82542718  0.58676717  1  0  -0.501305  0  2.631302  0  0  -0.472424  0  2.864684  0  0  -0.485021  0  2.873845  0  0  -0.412299  -0.463763  0  2.858859  0
N  N118  1  0.06222746  0.22614921  0.63095234  1  0  -0.287594  0  2.916686  0  0  -0.277845  0  3.185247  0  0  -0.285594  0  3.201743  0  0  -0.244878  -0.27217  0  3.173662  0
N  N119  1  0.93777287  0.77385011  0.36904752  1  0  -0.287604  0  2.916655  0  0  -0.277844  0  3.185231  0  0  -0.285592  0  3.201728  0  0  -0.24487  -0.272167  0  3.173634  0
N  N120  1  0.93515450  0.20814639  0.62647078  1  0  -0.151039  0  3.577467  0  0  -0.050083  0  3.815276  0  0  -0.064926  0  3.840435  0  0  -0.150254  -0.040064  0  3.797757  0
N  N121  1  0.06484705  0.79185385  0.37352836  1  0  -0.151121  0  3.577543  0  0  -0.050173  0  3.815366  0  0  -0.065015  0  3.840527  0  0  -0.150291  -0.040146  0  3.797842  0
N  N122  1  0.89540635  0.15927049  0.41970529  1  0  -0.315534  0  2.951722  0  0  -0.29952  0  3.223864  0  0  -0.308246  0  3.24069  0  0  -0.282118  -0.293203  0  3.21254  0
N  N123  1  0.10459483  0.84072791  0.58029391  1  0  -0.315505  0  2.951727  0  0  -0.299506  0  3.223871  0  0  -0.308233  0  3.240698  0  0  -0.282134  -0.293182  0  3.212545  0
N  N124  1  0.80987930  0.11639999  0.54212387  1  0  -0.151505  0  3.558489  0  0  -0.049381  0  3.794424  0  0  -0.064241  0  3.819045  0  0  -0.150412  -0.039433  0  3.777484  0
N  N125  1  0.19012500  0.88359840  0.45787591  1  0  -0.151493  0  3.558665  0  0  -0.049352  0  3.794602  0  0  -0.064208  0  3.819225  0  0  -0.150401  -0.03941  0  3.777669  0
N  N126  1  0.77718293  0.00417017  0.76323840  1  0  -0.123137  0  3.541813  0  0  -0.020644  0  3.774756  0  0  -0.035041  0  3.799543  0  0  -0.130399  -0.011125  0  3.757903  0
N  N127  1  0.22281739  0.99582915  0.23676373  1  0  -0.12313  0  3.541718  0  0  -0.020619  0  3.77466  0  0  -0.035016  0  3.799448  0  0  -0.130386  -0.011096  0  3.757806  0
N  N128  1  0.69847578  0.89645623  0.79381356  1  0  -0.318081  0  2.951944  0  0  -0.301015  0  3.221932  0  0  -0.31021  0  3.239021  0  0  -0.285008  -0.294499  0  3.210185  0
N  N129  1  0.30152473  0.10354401  0.20618665  1  0  -0.31805  0  2.95191  0  0  -0.300997  0  3.221895  0  0  -0.310193  0  3.238983  0  0  -0.284992  -0.294486  0  3.210152  0
N  N130  1  0.55025675  0.89243553  0.18502109  1  0  -0.424217  0  2.607366  0  0  -0.40078  0  2.831945  0  0  -0.412884  0  2.843162  0  0  -0.309911  -0.392876  0  2.825007  0
N  N131  1  0.44974291  0.10756563  0.81498129  1  0  -0.424287  0  2.607457  0  0  -0.40085  0  2.832044  0  0  -0.412954  0  2.843253  0  0  -0.309969  -0.392951  0  2.825104  0
