# generated using pymatgen
data_K3H4C6N3O11
_symmetry_space_group_name_H-M   'P 1'
_cell_length_a   9.82169740
_cell_length_b   9.82170793
_cell_length_c   11.83782835
_cell_angle_alpha   89.99939697
_cell_angle_beta   90.00089894
_cell_angle_gamma   119.99983626
_symmetry_Int_Tables_number   1
_chemical_formula_structural   K3H4C6N3O11
_chemical_formula_sum   'K9 H12 C18 N9 O33'
_cell_volume   988.95595843
_cell_formula_units_Z   3
loop_
 _symmetry_equiv_pos_site_id
 _symmetry_equiv_pos_as_xyz
  1  'x, y, z'
loop_
 _atom_site_type_symbol
 _atom_site_label
 _atom_site_symmetry_multiplicity
 _atom_site_fract_x
 _atom_site_fract_y
 _atom_site_fract_z
 _atom_site_occupancy
 _atom_site_hle17_bader_spin_density
 _atom_site_hle17_ddec_charge
 _atom_site_hle17_ddec_spin_density
 _atom_site_hle17_ddec_sum_bond_order
 _atom_site_hle17_magmom
 _atom_site_hse06_10hf_bader_spin_density
 _atom_site_hse06_10hf_ddec_charge
 _atom_site_hse06_10hf_ddec_spin_density
 _atom_site_hse06_10hf_ddec_sum_bond_order
 _atom_site_hse06_10hf_magmom
 _atom_site_hse06_bader_spin_density
 _atom_site_hse06_ddec_charge
 _atom_site_hse06_ddec_spin_density
 _atom_site_hse06_ddec_sum_bond_order
 _atom_site_hse06_magmom
 _atom_site_pbe_bader_spin_density
 _atom_site_pbe_cm5_charge
 _atom_site_pbe_ddec_charge
 _atom_site_pbe_ddec_spin_density
 _atom_site_pbe_ddec_sum_bond_order
 _atom_site_pbe_magmom
K  K0  1  0.99999757  0.55085545  0.16663602  1  0  0.939636  0  0.46437  0  0  0.895889  0  0.642575  0  0  0.909304  0  0.620392  0  0  0.832462  0.884823  0  0.660529  0
K  K1  1  0.44913526  0.44913555  0.50000399  1  0  0.939617  0  0.464394  0  0  0.895901  0  0.642538  0  0  0.90929  0  0.620418  0  0  0.832408  0.884834  0  0.660487  0
K  K2  1  0.55085773  0.99999644  0.83336153  1  0  0.939641  0  0.464374  0  0  0.895882  0  0.64261  0  0  0.909321  0  0.620399  0  0  0.832451  0.884819  0  0.660559  0
K  K3  1  0.64744330  0.16512806  0.47302353  1  0  0.933683  0  0.479742  0  0  0.886946  0  0.664555  0  0  0.902155  0  0.640797  0  0  0.859543  0.87466  0  0.683581  0
K  K4  1  0.83487997  0.48230723  0.80632183  1  0  0.933753  0  0.479656  0  0  0.886993  0  0.664482  0  0  0.902219  0  0.640692  0  0  0.859523  0.874709  0  0.683506  0
K  K5  1  0.51767909  0.35257421  0.13967694  1  0  0.933687  0  0.479729  0  0  0.88696  0  0.664546  0  0  0.902166  0  0.640782  0  0  0.859592  0.874675  0  0.683573  0
K  K6  1  0.16513044  0.64744633  0.52697497  1  0  0.933695  0  0.479741  0  0  0.886963  0  0.664546  0  0  0.902173  0  0.640782  0  0  0.859552  0.874677  0  0.683572  0
K  K7  1  0.48230962  0.83487911  0.19367606  1  0  0.933751  0  0.479659  0  0  0.886966  0  0.664508  0  0  0.902197  0  0.640712  0  0  0.859518  0.874681  0  0.683532  0
K  K8  1  0.35257480  0.51768263  0.86032253  1  0  0.933704  0  0.479728  0  0  0.886957  0  0.664556  0  0  0.902167  0  0.640784  0  0  0.859603  0.874672  0  0.683584  0
H  H9  1  0.27577815  0.43709985  0.24262885  1  0  0.418063  0  0.886309  0  0  0.389431  0  0.947828  0  0  0.399799  0  0.932597  0  0  0.295464  0.381963  0  0.958883  0
H  H10  1  0.56288392  0.83867737  0.57597642  1  0  0.418033  0  0.886338  0  0  0.389402  0  0.947859  0  0  0.39977  0  0.932628  0  0  0.295426  0.381935  0  0.958911  0
H  H11  1  0.16131841  0.72421727  0.90930234  1  0  0.418038  0  0.886333  0  0  0.389406  0  0.947858  0  0  0.399776  0  0.932625  0  0  0.295426  0.381939  0  0.958911  0
H  H12  1  0.43710084  0.27577868  0.75736944  1  0  0.418079  0  0.886281  0  0  0.389434  0  0.947816  0  0  0.399802  0  0.932585  0  0  0.295463  0.381967  0  0.958868  0
H  H13  1  0.83867547  0.56288342  0.42402334  1  0  0.418047  0  0.886315  0  0  0.389417  0  0.947832  0  0  0.399784  0  0.932603  0  0  0.295434  0.38195  0  0.958884  0
H  H14  1  0.72421968  0.16132025  0.09069632  1  0  0.418066  0  0.886316  0  0  0.389437  0  0.947835  0  0  0.399806  0  0.932602  0  0  0.295446  0.381968  0  0.95889  0
H  H15  1  0.22372378  0.44465410  0.11941415  1  0  0.409362  0  0.892493  0  0  0.381607  0  0.953836  0  0  0.392039  0  0.938156  0  0  0.294867  0.373935  0  0.96536  0
H  H16  1  0.55536100  0.77908918  0.45275978  1  0  0.409397  0  0.892487  0  0  0.381626  0  0.953826  0  0  0.392058  0  0.938148  0  0  0.294819  0.373966  0  0.965353  0
H  H17  1  0.22094842  0.77628784  0.78609578  1  0  0.409411  0  0.892443  0  0  0.381602  0  0.953845  0  0  0.392051  0  0.938157  0  0  0.294803  0.373928  0  0.965375  0
H  H18  1  0.44465280  0.22373029  0.88058573  1  0  0.409353  0  0.892558  0  0  0.381596  0  0.953861  0  0  0.392028  0  0.938182  0  0  0.294846  0.373924  0  0.965388  0
H  H19  1  0.77908578  0.55536140  0.54723900  1  0  0.40938  0  0.892509  0  0  0.381606  0  0.953852  0  0  0.392037  0  0.938175  0  0  0.294795  0.373946  0  0.965381  0
H  H20  1  0.77628741  0.22094851  0.21390396  1  0  0.409414  0  0.892449  0  0  0.381605  0  0.953844  0  0  0.392055  0  0.938155  0  0  0.294803  0.373932  0  0.965373  0
C  C21  1  0.87025138  0.99998988  0.33335129  1  0  0.383341  0  3.895583  0  0  0.363521  0  4.172653  0  0  0.390978  0  4.178924  0  0  0.116497  0.344991  0  4.167327  0
C  C22  1  0.99998570  0.87025180  0.66664694  1  0  0.383325  0  3.895602  0  0  0.363533  0  4.17268  0  0  0.390991  0  4.178951  0  0  0.116521  0.345001  0  4.167349  0
C  C23  1  0.12974583  0.12974226  0.99999873  1  0  0.383353  0  3.894756  0  0  0.363427  0  4.17203  0  0  0.390886  0  4.178295  0  0  0.11638  0.344892  0  4.166702  0
C  C24  1  0.02249853  0.14298152  0.34421637  1  0  -0.218282  0  3.569983  0  0  -0.241553  0  3.850616  0  0  -0.262655  0  3.870171  0  0  0.041272  -0.226892  0  3.836953  0
C  C25  1  0.85700258  0.87951700  0.67753564  1  0  -0.21833  0  3.569948  0  0  -0.241676  0  3.850669  0  0  -0.262772  0  3.870199  0  0  0.041225  -0.227036  0  3.837062  0
C  C26  1  0.12048543  0.97749171  0.01085070  1  0  -0.218433  0  3.569942  0  0  -0.241645  0  3.850542  0  0  -0.262737  0  3.870067  0  0  0.041303  -0.227007  0  3.836939  0
C  C27  1  0.14298104  0.02249916  0.65578412  1  0  -0.218192  0  3.569825  0  0  -0.241475  0  3.850492  0  0  -0.262572  0  3.870038  0  0  0.041272  -0.226816  0  3.836829  0
C  C28  1  0.87951518  0.85700427  0.32246315  1  0  -0.218293  0  3.56985  0  0  -0.241553  0  3.850509  0  0  -0.262651  0  3.870042  0  0  0.041289  -0.226915  0  3.836903  0
C  C29  1  0.97749796  0.12048507  0.98914588  1  0  -0.218321  0  3.569767  0  0  -0.241627  0  3.850497  0  0  -0.262716  0  3.87003  0  0  0.041357  -0.22698  0  3.836867  0
C  C30  1  0.17250470  0.14923711  0.32712213  1  0  0.384538  0  3.876875  0  0  0.359358  0  4.158892  0  0  0.387803  0  4.163022  0  0  0.119489  0.339869  0  4.155481  0
C  C31  1  0.85075435  0.02327413  0.66046272  1  0  0.384417  0  3.877328  0  0  0.359188  0  4.159484  0  0  0.387635  0  4.16362  0  0  0.119301  0.339697  0  4.156066  0
C  C32  1  0.97672142  0.82749513  0.99377286  1  0  0.38471  0  3.876869  0  0  0.359543  0  4.158827  0  0  0.387993  0  4.162951  0  0  0.119609  0.340055  0  4.155407  0
C  C33  1  0.14923767  0.17250625  0.67287617  1  0  0.384465  0  3.8769  0  0  0.359253  0  4.158984  0  0  0.387698  0  4.163115  0  0  0.119461  0.33977  0  4.155561  0
C  C34  1  0.02327136  0.85075335  0.33953506  1  0  0.384428  0  3.877147  0  0  0.35913  0  4.159395  0  0  0.387582  0  4.163526  0  0  0.119287  0.339639  0  4.155974  0
C  C35  1  0.82749964  0.97672469  0.00622861  1  0  0.384646  0  3.876893  0  0  0.359494  0  4.158874  0  0  0.38793  0  4.163018  0  0  0.119577  0.340009  0  4.155454  0
C  C36  1  0.16938291  0.99999918  0.33332645  1  0  -0.185079  0  3.568662  0  0  -0.217968  0  3.842125  0  0  -0.23883  0  3.861797  0  0  0.050464  -0.202776  0  3.827725  0
C  C37  1  0.99999974  0.16938621  0.66667112  1  0  -0.185023  0  3.568668  0  0  -0.217929  0  3.842116  0  0  -0.238783  0  3.861782  0  0  0.050493  -0.20274  0  3.827716  0
C  C38  1  0.83061593  0.83061534  0.00000262  1  0  -0.185384  0  3.569483  0  0  -0.218405  0  3.843043  0  0  -0.239262  0  3.862705  0  0  0.050414  -0.203208  0  3.828636  0
N  N39  1  0.02857335  0.28425962  0.37234596  1  0  0.550485  0  3.908967  0  0  0.579091  0  4.204914  0  0  0.603895  0  4.21337  0  0  0.005722  0.562084  0  4.199011  0
N  N40  1  0.71573473  0.74432244  0.70568996  1  0  0.550703  0  3.908333  0  0  0.579372  0  4.204236  0  0  0.604177  0  4.212696  0  0  0.005901  0.562362  0  4.198329  0
N  N41  1  0.25568424  0.97141308  0.03899951  1  0  0.55045  0  3.908332  0  0  0.579058  0  4.204279  0  0  0.603857  0  4.212744  0  0  0.005718  0.562049  0  4.19837  0
N  N42  1  0.28425713  0.02857187  0.62765485  1  0  0.550531  0  3.908885  0  0  0.579139  0  4.20483  0  0  0.603939  0  4.213293  0  0  0.005813  0.562131  0  4.198926  0
N  N43  1  0.74432094  0.71573577  0.29430992  1  0  0.55073  0  3.908464  0  0  0.579376  0  4.204363  0  0  0.604181  0  4.212825  0  0  0.005878  0.562365  0  4.198457  0
N  N44  1  0.97142167  0.25568496  0.96100157  1  0  0.550676  0  3.908312  0  0  0.579306  0  4.204255  0  0  0.604107  0  4.212713  0  0  0.005933  0.562299  0  4.198345  0
N  N45  1  0.31200328  0.00000332  0.33332499  1  0  0.506196  0  3.980519  0  0  0.569227  0  4.230683  0  0  0.593216  0  4.240158  0  0  -0.020453  0.552893  0  4.223682  0
N  N46  1  0.00000293  0.31200507  0.66667328  1  0  0.506222  0  3.980497  0  0  0.569286  0  4.230613  0  0  0.593273  0  4.240086  0  0  -0.020443  0.552952  0  4.223614  0
N  N47  1  0.68801120  0.68800954  0.00000401  1  0  0.50629  0  3.980238  0  0  0.569375  0  4.230367  0  0  0.593362  0  4.239847  0  0  -0.020452  0.553044  0  4.223361  0
O  O48  1  0.74146891  0.99998020  0.33338340  1  0  -0.614165  0  2.029251  0  0  -0.581498  0  2.266926  0  0  -0.603761  0  2.260395  0  0  -0.421907  -0.564539  0  2.27084  0
O  O49  1  0.99997831  0.74146936  0.66661625  1  0  -0.614121  0  2.029292  0  0  -0.581463  0  2.266958  0  0  -0.603725  0  2.260424  0  0  -0.421881  -0.564513  0  2.270896  0
O  O50  1  0.25853499  0.25852898  0.99999647  1  0  -0.614005  0  2.028308  0  0  -0.581281  0  2.266021  0  0  -0.603549  0  2.259497  0  0  -0.421913  -0.564355  0  2.269996  0
O  O51  1  0.92101200  0.31225658  0.34214847  1  0  -0.495805  0  1.817707  0  0  -0.470469  0  2.047637  0  0  -0.483618  0  2.039412  0  0  -0.24536  -0.461286  0  2.054433  0
O  O52  1  0.68771940  0.60875546  0.67550072  1  0  -0.495947  0  1.81735  0  0  -0.470626  0  2.047227  0  0  -0.483781  0  2.038996  0  0  -0.245529  -0.46144  0  2.054037  0
O  O53  1  0.39125994  0.07899176  0.00883068  1  0  -0.495712  0  1.817107  0  0  -0.470436  0  2.047131  0  0  -0.483594  0  2.038902  0  0  -0.245373  -0.46125  0  2.053927  0
O  O54  1  0.31225208  0.92100902  0.65785093  1  0  -0.495866  0  1.817751  0  0  -0.470501  0  2.047646  0  0  -0.48365  0  2.039418  0  0  -0.245416  -0.461317  0  2.054443  0
O  O55  1  0.60875456  0.68771998  0.32449967  1  0  -0.495988  0  1.817431  0  0  -0.470654  0  2.047303  0  0  -0.483809  0  2.03907  0  0  -0.245542  -0.461469  0  2.054112  0
O  O56  1  0.07899992  0.39125723  0.99117131  1  0  -0.495806  0  1.817266  0  0  -0.470484  0  2.047202  0  0  -0.483637  0  2.03897  0  0  -0.245457  -0.461299  0  2.053999  0
O  O57  1  0.14227123  0.38468944  0.43107324  1  0  -0.49234  0  1.80117  0  0  -0.47675  0  2.038096  0  0  -0.490562  0  2.03285  0  0  -0.267436  -0.466848  0  2.042644  0
O  O58  1  0.61533490  0.75760748  0.76443905  1  0  -0.49237  0  1.800999  0  0  -0.47678  0  2.037962  0  0  -0.490587  0  2.032676  0  0  -0.26749  -0.466875  0  2.042514  0
O  O59  1  0.24240229  0.85769951  0.09771846  1  0  -0.492396  0  1.801168  0  0  -0.476769  0  2.03806  0  0  -0.490587  0  2.032814  0  0  -0.267496  -0.466864  0  2.042613  0
O  O60  1  0.38468986  0.14227015  0.56892887  1  0  -0.492378  0  1.801184  0  0  -0.476784  0  2.038098  0  0  -0.490598  0  2.032858  0  0  -0.267468  -0.466882  0  2.042648  0
O  O61  1  0.75760367  0.61533369  0.23556150  1  0  -0.49235  0  1.80102  0  0  -0.476783  0  2.038017  0  0  -0.490582  0  2.032716  0  0  -0.267444  -0.466878  0  2.042569  0
O  O62  1  0.85770931  0.24240900  0.90228404  1  0  -0.492578  0  1.801224  0  0  -0.476956  0  2.038101  0  0  -0.49079  0  2.032882  0  0  -0.267634  -0.467051  0  2.042651  0
O  O63  1  0.29722473  0.27948638  0.30988103  1  0  -0.620335  0  2.081542  0  0  -0.57973  0  2.316208  0  0  -0.602011  0  2.308889  0  0  -0.416566  -0.563663  0  2.32148  0
O  O64  1  0.72050526  0.01775256  0.64324168  1  0  -0.620279  0  2.081735  0  0  -0.579641  0  2.316426  0  0  -0.601921  0  2.309089  0  0  -0.416417  -0.563586  0  2.321734  0
O  O65  1  0.98225509  0.70278082  0.97651351  1  0  -0.620371  0  2.081431  0  0  -0.579712  0  2.315988  0  0  -0.602004  0  2.308679  0  0  -0.416656  -0.563653  0  2.321283  0
O  O66  1  0.27948714  0.29722631  0.69011950  1  0  -0.620298  0  2.081596  0  0  -0.579656  0  2.316239  0  0  -0.601936  0  2.308919  0  0  -0.416538  -0.563593  0  2.321512  0
O  O67  1  0.01775084  0.72050776  0.35676004  1  0  -0.620293  0  2.081745  0  0  -0.579628  0  2.316442  0  0  -0.601907  0  2.309104  0  0  -0.416412  -0.563574  0  2.321747  0
O  O68  1  0.70278322  0.98225634  0.02348010  1  0  -0.620369  0  2.081492  0  0  -0.579693  0  2.316023  0  0  -0.601984  0  2.308723  0  0  -0.416658  -0.563635  0  2.32131  0
O  O69  1  0.32230477  0.88918047  0.37939128  1  0  -0.492029  0  1.838504  0  0  -0.491916  0  2.066305  0  0  -0.504476  0  2.059907  0  0  -0.278757  -0.482872  0  2.071577  0
O  O70  1  0.11082306  0.43312814  0.71274020  1  0  -0.492126  0  1.838653  0  0  -0.492024  0  2.066406  0  0  -0.504575  0  2.060002  0  0  -0.278808  -0.482985  0  2.07168  0
O  O71  1  0.56688732  0.67769030  0.04607168  1  0  -0.492017  0  1.838472  0  0  -0.491937  0  2.066237  0  0  -0.504491  0  2.05984  0  0  -0.278694  -0.482899  0  2.071511  0
O  O72  1  0.88917902  0.32230486  0.62060807  1  0  -0.492061  0  1.838497  0  0  -0.491961  0  2.066285  0  0  -0.504518  0  2.059887  0  0  -0.278788  -0.482917  0  2.071557  0
O  O73  1  0.43312616  0.11082309  0.28725942  1  0  -0.49209  0  1.838619  0  0  -0.491972  0  2.066373  0  0  -0.504521  0  2.059967  0  0  -0.278782  -0.482932  0  2.071647  0
O  O74  1  0.67769163  0.56688781  0.95392859  1  0  -0.492008  0  1.838362  0  0  -0.491905  0  2.066146  0  0  -0.504462  0  2.059748  0  0  -0.278684  -0.482867  0  2.071419  0
O  O75  1  0.25728702  0.50474893  0.19026748  1  0  -0.892308  0  1.779776  0  0  -0.850601  0  1.933836  0  0  -0.86783  0  1.90364  0  0  -0.686739  -0.838614  0  1.956515  0
O  O76  1  0.49525273  0.75254303  0.52360695  1  0  -0.892269  0  1.779876  0  0  -0.850552  0  1.933869  0  0  -0.867777  0  1.903671  0  0  -0.686624  -0.838594  0  1.956488  0
O  O77  1  0.24745845  0.74269605  0.85694524  1  0  -0.892332  0  1.779783  0  0  -0.850561  0  1.933872  0  0  -0.867826  0  1.903605  0  0  -0.686627  -0.838574  0  1.956546  0
O  O78  1  0.50474773  0.25728650  0.80973345  1  0  -0.892331  0  1.77983  0  0  -0.850615  0  1.933901  0  0  -0.867845  0  1.903696  0  0  -0.686713  -0.838629  0  1.956577  0
O  O79  1  0.75253978  0.49525217  0.47639248  1  0  -0.89227  0  1.779889  0  0  -0.850541  0  1.933867  0  0  -0.867764  0  1.903674  0  0  -0.686611  -0.838583  0  1.956483  0
O  O80  1  0.74269672  0.24745847  0.14305449  1  0  -0.892364  0  1.779775  0  0  -0.850589  0  1.933854  0  0  -0.867852  0  1.903584  0  0  -0.686649  -0.838602  0  1.95653  0
