# generated using pymatgen
data_DyH31C27O14
_symmetry_space_group_name_H-M   'P 1'
_cell_length_a   9.16522360
_cell_length_b   12.61576076
_cell_length_c   13.20140000
_cell_angle_alpha   92.86625665
_cell_angle_beta   94.51522460
_cell_angle_gamma   92.31421268
_symmetry_Int_Tables_number   1
_chemical_formula_structural   DyH31C27O14
_chemical_formula_sum   'Dy2 H62 C54 O28'
_cell_volume   1518.28140949
_cell_formula_units_Z   2
loop_
 _symmetry_equiv_pos_site_id
 _symmetry_equiv_pos_as_xyz
  1  'x, y, z'
loop_
 _atom_site_type_symbol
 _atom_site_label
 _atom_site_symmetry_multiplicity
 _atom_site_fract_x
 _atom_site_fract_y
 _atom_site_fract_z
 _atom_site_occupancy
 _atom_site_hle17_bader_spin_density
 _atom_site_hle17_ddec_charge
 _atom_site_hle17_ddec_spin_density
 _atom_site_hle17_ddec_sum_bond_order
 _atom_site_hle17_magmom
 _atom_site_hse06_10hf_bader_spin_density
 _atom_site_hse06_10hf_ddec_charge
 _atom_site_hse06_10hf_ddec_spin_density
 _atom_site_hse06_10hf_ddec_sum_bond_order
 _atom_site_hse06_10hf_magmom
 _atom_site_hse06_bader_spin_density
 _atom_site_hse06_ddec_charge
 _atom_site_hse06_ddec_spin_density
 _atom_site_hse06_ddec_sum_bond_order
 _atom_site_hse06_magmom
 _atom_site_pbe_bader_charge
 _atom_site_pbe_bader_spin_density
 _atom_site_pbe_cm5_charge
 _atom_site_pbe_ddec_charge
 _atom_site_pbe_ddec_spin_density
 _atom_site_pbe_ddec_sum_bond_order
 _atom_site_pbe_magmom
Dy  Dy0  1  0.74707356  0.49114554  0.49035625  1  0  2.277609  0  1.60845  0  0  2.132674  0  2.074191  0  0  2.258623  0  1.888244  0  2.18318  0  1.50571  2.095402  0  2.107381  0
Dy  Dy1  1  0.25291574  0.50885042  0.50964911  1  0  2.277637  0  1.608443  0  0  2.132669  0  2.074268  0  0  2.258675  0  1.88823  0  2.183044  0  1.505772  2.095437  0  2.107392  0
H  H2  1  0.64788693  0.28425999  0.43170271  1  0  0.434081  0  0.825588  0  0  0.416034  0  0.880689  0  0  0.424857  0  0.870101  0  0.625536  0  0.320492  0.409406  0  0.888633  0
H  H3  1  0.35211589  0.71574232  0.56829611  1  0  0.434128  0  0.825496  0  0  0.416092  0  0.88057  0  0  0.424913  0  0.87001  0  0.625495  0  0.320504  0.409463  0  0.888516  0
H  H4  1  0.49609355  0.33906757  0.40585945  1  0  0.438678  0  0.865494  0  0  0.406561  0  0.931098  0  0  0.417508  0  0.915396  0  0.641453  0  0.298363  0.398514  0  0.942881  0
H  H5  1  0.50390376  0.66093394  0.59414206  1  0  0.438687  0  0.865476  0  0  0.40657  0  0.931095  0  0  0.417519  0  0.91539  0  0.641502  0  0.298339  0.398523  0  0.942879  0
H  H6  1  0.80636636  0.46915148  0.28776229  1  0  0.432754  0  0.827727  0  0  0.41616  0  0.879639  0  0  0.425033  0  0.866886  0  0.631117  0  0.321503  0.409499  0  0.887675  0
H  H7  1  0.19362370  0.53083891  0.71223678  1  0  0.432768  0  0.827786  0  0  0.416161  0  0.879664  0  0  0.425033  0  0.866913  0  0.631262  0  0.321489  0.4095  0  0.887754  0
H  H8  1  0.96579405  0.43802852  0.33221037  1  0  0.43844  0  0.864417  0  0  0.406605  0  0.929912  0  0  0.417409  0  0.914469  0  0.655393  0  0.301236  0.398651  0  0.941554  0
H  H9  1  0.03420421  0.56197061  0.66778956  1  0  0.438448  0  0.86444  0  0  0.406599  0  0.929955  0  0  0.417404  0  0.914509  0  0.655362  0  0.30122  0.398645  0  0.941596  0
H  H10  1  0.23006322  0.59324690  0.27222829  1  0  0.123066  0  0.995664  0  0  0.127443  0  1.068107  0  0  0.130667  0  1.066563  0  0.137879  0  0.11029  0.124634  0  1.070526  0
H  H11  1  0.76993438  0.40675938  0.72777499  1  0  0.123037  0  0.995703  0  0  0.127437  0  1.068127  0  0  0.130663  0  1.06658  0  0.137893  0  0.110263  0.124654  0  1.070533  0
H  H12  1  0.55513624  0.79985440  0.06214342  1  0  0.109225  0  0.966778  0  0  0.118047  0  1.029054  0  0  0.121473  0  1.027742  0  0.068203  0  0.102443  0.115359  0  1.030381  0
H  H13  1  0.44485856  0.20015983  0.93787145  1  0  0.109224  0  0.966861  0  0  0.118083  0  1.029093  0  0  0.121509  0  1.027781  0  0.074853  0  0.102443  0.115391  0  1.030426  0
H  H14  1  0.66076321  0.70692007  0.21126130  1  0  0.095202  0  0.956287  0  0  0.103367  0  1.02339  0  0  0.106913  0  1.020543  0  0.057163  0  0.098314  0.100691  0  1.025885  0
H  H15  1  0.33923334  0.29308700  0.78875028  1  0  0.09516  0  0.956301  0  0  0.10332  0  1.023422  0  0  0.106864  0  1.020577  0  0.057185  0  0.098283  0.100651  0  1.025906  0
H  H16  1  0.03218138  0.53998132  0.16986045  1  0  0.083156  0  0.957912  0  0  0.100329  0  1.023927  0  0  0.101274  0  1.022396  0  0.047519  0  0.09899  0.099245  0  1.025473  0
H  H17  1  0.96781692  0.46001860  0.83015165  1  0  0.083161  0  0.957896  0  0  0.100321  0  1.023904  0  0  0.10125  0  1.022388  0  0.04759  0  0.099042  0.099239  0  1.025453  0
H  H18  1  0.88931456  0.62283501  0.12331004  1  0  0.092933  0  0.92406  0  0  0.11191  0  0.984356  0  0  0.112541  0  0.983851  0  0.034136  0  0.106379  0.111117  0  0.985309  0
H  H19  1  0.11068112  0.37715777  0.87670536  1  0  0.09281  0  0.924043  0  0  0.111741  0  0.984395  0  0  0.112372  0  0.983889  0  0.03417  0  0.106323  0.110949  0  0.98535  0
H  H20  1  0.99184758  0.65746542  0.24282437  1  0  0.08657  0  0.953474  0  0  0.10345  0  1.020216  0  0  0.103387  0  1.02082  0  0.034859  0  0.100094  0.103753  0  1.019006  0
H  H21  1  0.00814372  0.34252736  0.75719610  1  0  0.086402  0  0.95345  0  0  0.103308  0  1.020184  0  0  0.103247  0  1.020772  0  0.035127  0  0.099978  0.103611  0  1.01898  0
H  H22  1  0.40678367  0.92261199  0.98243608  1  0  0.092124  0  0.950778  0  0  0.100873  0  1.030609  0  0  0.103024  0  1.027699  0  0.085729  0  0.099004  0.099286  0  1.0327  0
H  H23  1  0.59321359  0.07738874  0.01756388  1  0  0.092167  0  0.950823  0  0  0.100929  0  1.030606  0  0  0.103082  0  1.027695  0  0.0856  0  0.099025  0.099342  0  1.032698  0
H  H24  1  0.27945420  0.88020798  0.87702972  1  0  0.093492  0  0.937652  0  0  0.114926  0  0.996033  0  0  0.11515  0  0.996359  0  0.076205  0  0.105434  0.114715  0  0.995842  0
H  H25  1  0.72054038  0.11978479  0.12297578  1  0  0.093523  0  0.937719  0  0  0.114979  0  0.996062  0  0  0.115204  0  0.996386  0  0.076058  0  0.10543  0.114768  0  0.99587  0
H  H26  1  0.43663467  0.80373683  0.90602192  1  0  0.080388  0  0.938944  0  0  0.097802  0  1.003158  0  0  0.097449  0  1.003835  0  0.069466  0  0.096927  0.098086  0  1.002637  0
H  H27  1  0.56336215  0.19625675  0.09398525  1  0  0.08045  0  0.938919  0  0  0.097846  0  1.003126  0  0  0.097494  0  1.003806  0  0.069227  0  0.096945  0.098133  0  1.002603  0
H  H28  1  0.62492474  0.81554935  0.68853949  1  0  0.104576  0  0.989843  0  0  0.112528  0  1.059707  0  0  0.116373  0  1.056242  0  0.074965  0  0.103173  0.109927  0  1.061925  0
H  H29  1  0.37509548  0.18446885  0.31145195  1  0  0.104608  0  0.989763  0  0  0.112519  0  1.059689  0  0  0.116367  0  1.056212  0  0.075267  0  0.103073  0.109921  0  1.061908  0
H  H30  1  0.97074163  0.75253917  0.98667416  1  0  0.12082  0  1.014982  0  0  0.119167  0  1.094194  0  0  0.124187  0  1.090401  0  0.155512  0  0.105126  0.115583  0  1.097006  0
H  H31  1  0.02924605  0.24744804  0.01333675  1  0  0.12072  0  1.015246  0  0  0.119142  0  1.094346  0  0  0.124134  0  1.090581  0  0.155483  0  0.105145  0.115567  0  1.097152  0
H  H32  1  0.94670964  0.62521753  0.83816944  1  0  0.093324  0  0.95982  0  0  0.104028  0  1.020364  0  0  0.107846  0  1.016702  0  0.075583  0  0.101997  0.101438  0  1.022696  0
H  H33  1  0.05328694  0.37477207  0.16183677  1  0  0.093371  0  0.959891  0  0  0.104072  0  1.020427  0  0  0.107889  0  1.016769  0  0.075684  0  0.101979  0.101482  0  1.022759  0
H  H34  1  0.60922138  0.99623349  0.68941469  1  0  0.078683  0  0.938994  0  0  0.099985  0  0.999447  0  0  0.099647  0  1.000008  0  0.053624  0  0.098058  0.099951  0  0.999523  0
H  H35  1  0.39081599  0.00379663  0.31058205  1  0  0.078692  0  0.939188  0  0  0.100122  0  0.999501  0  0  0.099751  0  1.000099  0  0.053575  0  0.098062  0.100084  0  0.999588  0
H  H36  1  0.49866860  0.06610769  0.77435308  1  0  0.098273  0  0.947898  0  0  0.114399  0  1.012455  0  0  0.114803  0  1.013011  0  0.083311  0  0.10252  0.114011  0  1.01218  0
H  H37  1  0.50137757  0.93392322  0.22564342  1  0  0.09808  0  0.947919  0  0  0.114218  0  1.012535  0  0  0.114623  0  1.013084  0  0.083999  0  0.102397  0.11383  0  1.012261  0
H  H38  1  0.45574673  0.92873632  0.73785456  1  0  0.086736  0  0.949462  0  0  0.099581  0  1.021377  0  0  0.10087  0  1.019864  0  0.069842  0  0.097775  0.098563  0  1.02254  0
H  H39  1  0.54427685  0.07130095  0.26213722  1  0  0.086744  0  0.949171  0  0  0.099565  0  1.021174  0  0  0.100851  0  1.019657  0  0.069226  0  0.097805  0.098547  0  1.022337  0
H  H40  1  0.87529247  0.83836327  0.12644443  1  0  0.08468  0  0.936616  0  0  0.105519  0  0.996859  0  0  0.104886  0  0.998101  0  0.072771  0  0.100443  0.105741  0  0.996417  0
H  H41  1  0.12469195  0.16164222  0.87356339  1  0  0.084713  0  0.936585  0  0  0.105573  0  0.996815  0  0  0.104935  0  0.998071  0  0.072319  0  0.100485  0.105819  0  0.996348  0
H  H42  1  0.89450176  0.97990696  0.14486009  1  0  0.089792  0  0.954314  0  0  0.106328  0  1.021132  0  0  0.106684  0  1.021436  0  0.062103  0  0.101526  0.105975  0  1.021015  0
H  H43  1  0.10548241  0.02009455  0.85514829  1  0  0.089808  0  0.954384  0  0  0.106414  0  1.021124  0  0  0.106774  0  1.021424  0  0.062179  0  0.10147  0.10606  0  1.021009  0
H  H44  1  0.02243670  0.90946481  0.07347195  1  0  0.104194  0  0.934687  0  0  0.116035  0  1.003219  0  0  0.117957  0  1.001232  0  0.088096  0  0.104772  0.114695  0  1.004487  0
H  H45  1  0.97756071  0.09053830  0.92655010  1  0  0.104193  0  0.934871  0  0  0.116056  0  1.0034  0  0  0.11798  0  1.001414  0  0.087973  0  0.104776  0.114717  0  1.004668  0
H  H46  1  0.75812235  0.75208396  0.45863873  1  0  0.12077  0  0.998066  0  0  0.124909  0  1.070675  0  0  0.128192  0  1.068984  0  0.129478  0  0.10978  0.122103  0  1.07316  0
H  H47  1  0.24187247  0.24791279  0.54137227  1  0  0.120771  0  0.998347  0  0  0.124883  0  1.070956  0  0  0.128156  0  1.069293  0  0.12958  0  0.109773  0.122075  0  1.073436  0
H  H48  1  0.09779215  0.02042583  0.32783302  1  0  0.102709  0  0.9721  0  0  0.111937  0  1.036885  0  0  0.11497  0  1.03617  0  0.056134  0  0.099497  0.109663  0  1.037589  0
H  H49  1  0.90220517  0.97955820  0.67213130  1  0  0.102784  0  0.972192  0  0  0.112102  0  1.036875  0  0  0.115085  0  1.036209  0  0.055705  0  0.099631  0.109823  0  1.037589  0
H  H50  1  0.18544741  0.84301392  0.37231947  1  0  0.100063  0  0.946516  0  0  0.10999  0  1.009574  0  0  0.113576  0  1.006617  0  0.088473  0  0.101787  0.107301  0  1.012069  0
H  H51  1  0.81455505  0.15696456  0.62765547  1  0  0.100144  0  0.94663  0  0  0.110127  0  1.0096  0  0  0.113688  0  1.006658  0  0.088615  0  0.101894  0.107427  0  1.012111  0
H  H52  1  0.51631084  0.80130028  0.39936513  1  0  0.086581  0  0.953357  0  0  0.104183  0  1.018163  0  0  0.103922  0  1.019328  0  0.061825  0  0.0992  0.104497  0  1.016782  0
H  H53  1  0.48368109  0.19870282  0.60063693  1  0  0.086608  0  0.953202  0  0  0.104206  0  1.018058  0  0  0.103946  0  1.019222  0  0.061825  0  0.09922  0.104519  0  1.016677  0
H  H54  1  0.44379132  0.90863382  0.47228669  1  0  0.099308  0  0.953656  0  0  0.111978  0  1.023452  0  0  0.114019  0  1.021342  0  0.087757  0  0.104791  0.110429  0  1.025146  0
H  H55  1  0.55621548  0.09137961  0.52770152  1  0  0.099332  0  0.953686  0  0  0.112077  0  1.02339  0  0  0.114119  0  1.021279  0  0.087817  0  0.1048  0.110526  0  1.025088  0
H  H56  1  0.58825637  0.83318273  0.52779797  1  0  0.080518  0  0.966032  0  0  0.097757  0  1.033041  0  0  0.098684  0  1.03177  0  0.04976  0  0.096386  0.096856  0  1.034228  0
H  H57  1  0.41174466  0.16682594  0.47220409  1  0  0.08057  0  0.966111  0  0  0.097778  0  1.033141  0  0  0.098707  0  1.031867  0  0.049678  0  0.09641  0.09688  0  1.034321  0
H  H58  1  0.01183091  0.18024641  0.37177226  1  0  0.084017  0  0.957624  0  0  0.100039  0  1.025844  0  0  0.099231  0  1.027825  0  0.083563  0  0.095757  0.100645  0  1.024315  0
H  H59  1  0.98815766  0.81973763  0.62822264  1  0  0.08404  0  0.957693  0  0  0.100109  0  1.025854  0  0  0.099303  0  1.027832  0  0.083387  0  0.095832  0.100715  0  1.024323  0
H  H60  1  0.85500765  0.23398786  0.30622271  1  0  0.115352  0  0.9387  0  0  0.133788  0  0.995593  0  0  0.135364  0  0.994047  0  0.115643  0  0.108313  0.132589  0  0.996846  0
H  H61  1  0.14498141  0.76600413  0.69376730  1  0  0.115339  0  0.938765  0  0  0.133816  0  0.995636  0  0  0.135392  0  0.994088  0  0.115649  0  0.108287  0.13261  0  0.996902  0
H  H62  1  0.95978451  0.13756356  0.24209541  1  0  0.069313  0  0.973697  0  0  0.081848  0  1.050846  0  0  0.081635  0  1.052328  0  0.051345  0  0.089509  0.08182  0  1.050015  0
H  H63  1  0.04021153  0.86241731  0.75790127  1  0  0.069282  0  0.973739  0  0  0.081837  0  1.050868  0  0  0.081625  0  1.052353  0  0.051401  0  0.089513  0.081814  0  1.050031  0
C  C64  1  0.51424684  0.58906180  0.33934957  1  0  0.713227  0  3.863934  0  0  0.670992  0  4.147679  0  0  0.707691  0  4.14068  0  1.539716  0  0.223976  0.645787  0  4.1558  0
C  C65  1  0.48574514  0.41094210  0.66065935  1  0  0.713063  0  3.863873  0  0  0.670951  0  4.147418  0  0  0.707641  0  4.140424  0  1.539613  0  0.223916  0.645749  0  4.155541  0
C  C66  1  0.45174739  0.64424197  0.25025868  1  0  -0.083944  0  3.806325  0  0  -0.063097  0  4.045401  0  0  -0.072026  0  4.066688  0  0.00593  0  -0.035087  -0.056886  0  4.029772  0
C  C67  1  0.54824423  0.35577384  0.74975306  1  0  -0.083783  0  3.806386  0  0  -0.062893  0  4.04535  0  0  -0.071797  0  4.066604  0  0.005933  0  -0.035017  -0.056695  0  4.029749  0
C  C68  1  0.29935235  0.63864356  0.22538872  1  0  -0.180718  0  3.741272  0  0  -0.215497  0  3.995912  0  0  -0.216166  0  4.01546  0  0.047951  0  -0.103558  -0.21466  0  3.983166  0
C  C69  1  0.70064440  0.36136670  0.77461394  1  0  -0.18063  0  3.741045  0  0  -0.215497  0  3.99576  0  0  -0.216165  0  4.015286  0  0.048473  0  -0.103486  -0.214692  0  3.982984  0
C  C70  1  0.23976580  0.68792979  0.14114076  1  0  0.159538  0  3.803182  0  0  0.148443  0  4.062986  0  0  0.153931  0  4.079902  0  0.426499  0  0.072152  0.144481  0  4.051706  0
C  C71  1  0.76022413  0.31207649  0.85886588  1  0  0.159507  0  3.802975  0  0  0.14846  0  4.062782  0  0  0.153954  0  4.079694  0  0.426178  0  0.072221  0.144519  0  4.051476  0
C  C72  1  0.33229795  0.74701385  0.08093784  1  0  0.196393  0  3.787222  0  0  0.180953  0  4.045422  0  0  0.192243  0  4.060041  0  0.49453  0  0.08498  0.173157  0  4.035545  0
C  C73  1  0.66769374  0.25298529  0.91905871  1  0  0.196333  0  3.787319  0  0  0.181181  0  4.045291  0  0  0.192489  0  4.059888  0  0.494064  0  0.085078  0.173372  0  4.035417  0
C  C74  1  0.48353087  0.75379280  0.10710510  1  0  -0.207165  0  3.801472  0  0  -0.225351  0  4.057605  0  0  -0.231172  0  4.076598  0  -0.051899  0  -0.116436  -0.221393  0  4.04512  0
C  C75  1  0.51646330  0.24621110  0.89289938  1  0  -0.207289  0  3.801666  0  0  -0.22556  0  4.057744  0  0  -0.23139  0  4.076733  0  -0.058079  0  -0.116484  -0.2216  0  4.045264  0
C  C76  1  0.54304718  0.70177528  0.19066043  1  0  -0.068901  0  3.785147  0  0  -0.099141  0  4.044816  0  0  -0.095826  0  4.062101  0  -0.03424  0  -0.098509  -0.101133  0  4.033203  0
C  C77  1  0.45695638  0.29823894  0.80934810  1  0  -0.068913  0  3.785213  0  0  -0.099181  0  4.044914  0  0  -0.095873  0  4.062196  0  -0.034654  0  -0.098528  -0.101176  0  4.033296  0
C  C78  1  0.99725232  0.62212796  0.16539145  1  0  -0.073975  0  3.631738  0  0  -0.168444  0  3.889825  0  0  -0.16143  0  3.893613  0  0.442771  0  -0.136742  -0.172546  0  3.886653  0
C  C79  1  0.00273842  0.37787356  0.83462865  1  0  -0.073682  0  3.63126  0  0  -0.167998  0  3.889357  0  0  -0.160957  0  3.893169  0  0.442155  0  -0.136587  -0.172096  0  3.886158  0
C  C80  1  0.35394569  0.85334083  0.93842080  1  0  -0.070428  0  3.617529  0  0  -0.170057  0  3.887821  0  0  -0.162544  0  3.890303  0  0.349896  0  -0.138957  -0.174976  0  3.885843  0
C  C81  1  0.64604351  0.14665353  0.06158978  1  0  -0.070733  0  3.617451  0  0  -0.170257  0  3.887718  0  0  -0.162728  0  3.890172  0  0.35006  0  -0.138974  -0.175175  0  3.885737  0
C  C82  1  0.77199683  0.63676789  0.66374682  1  0  0.667487  0  3.853748  0  0  0.618383  0  4.137121  0  0  0.653117  0  4.134219  0  1.513145  0  0.208546  0.594725  0  4.143174  0
C  C83  1  0.22800262  0.36323283  0.33625402  1  0  0.66743  0  3.853709  0  0  0.618376  0  4.137054  0  0  0.653114  0  4.134155  0  1.51251  0  0.208467  0.594716  0  4.143116  0
C  C84  1  0.78327219  0.71135543  0.75402276  1  0  -0.078995  0  3.814992  0  0  -0.055835  0  4.050275  0  0  -0.065111  0  4.073679  0  -0.024132  0  -0.033931  -0.04946  0  4.033583  0
C  C85  1  0.21672612  0.28864450  0.24598555  1  0  -0.078959  0  3.8147  0  0  -0.0559  0  4.050129  0  0  -0.065199  0  4.073558  0  -0.023964  0  -0.033929  -0.049522  0  4.033441  0
C  C86  1  0.69958741  0.80272233  0.75445969  1  0  -0.196642  0  3.764992  0  0  -0.230038  0  4.020047  0  0  -0.230757  0  4.038122  0  0.009498  0  -0.108353  -0.229244  0  4.007213  0
C  C87  1  0.30042665  0.19728475  0.24553922  1  0  -0.196753  0  3.764906  0  0  -0.230093  0  4.020009  0  0  -0.230801  0  4.038088  0  0.008456  0  -0.108238  -0.229308  0  4.007185  0
C  C88  1  0.71163248  0.87538891  0.83775180  1  0  0.15341  0  3.831744  0  0  0.141855  0  4.096155  0  0  0.148324  0  4.112657  0  0.462407  0  0.072443  0.137174  0  4.08502  0
C  C89  1  0.28838188  0.12462293  0.16224736  1  0  0.153533  0  3.831393  0  0  0.142019  0  4.095803  0  0  0.148495  0  4.112314  0  0.465537  0  0.072544  0.137336  0  4.084667  0
C  C90  1  0.80840023  0.85617698  0.92404343  1  0  0.185831  0  3.795912  0  0  0.169112  0  4.05994  0  0  0.179955  0  4.075047  0  0.475207  0  0.082886  0.162047  0  4.049289  0
C  C91  1  0.19161598  0.14382930  0.07595481  1  0  0.185886  0  3.79575  0  0  0.169141  0  4.059764  0  0  0.179944  0  4.074913  0  0.472815  0  0.082858  0.162086  0  4.049099  0
C  C92  1  0.89229002  0.76617096  0.92290251  1  0  -0.205683  0  3.779244  0  0  -0.227616  0  4.042508  0  0  -0.233262  0  4.060405  0  -0.032121  0  -0.115297  -0.223825  0  4.030111  0
C  C93  1  0.10771013  0.23382341  0.07710185  1  0  -0.205588  0  3.779555  0  0  -0.227582  0  4.042797  0  0  -0.23319  0  4.060722  0  -0.032117  0  -0.11527  -0.223796  0  4.030373  0
C  C94  1  0.87942235  0.69434966  0.83853550  1  0  -0.046881  0  3.754169  0  0  -0.073956  0  4.0057  0  0  -0.070803  0  4.023196  0  -0.050163  0  -0.089637  -0.075291  0  3.992763  0
C  C95  1  0.12056686  0.30564471  0.16146675  1  0  -0.046969  0  3.754151  0  0  -0.074016  0  4.005728  0  0  -0.07085  0  4.023215  0  -0.05032  0  -0.089624  -0.075352  0  3.992797  0
C  C96  1  0.54459916  0.98956655  0.75584005  1  0  -0.075198  0  3.631415  0  0  -0.171962  0  3.896361  0  0  -0.165096  0  3.900652  0  0.366142  0  -0.142327  -0.176552  0  3.893443  0
C  C97  1  0.45543244  0.01045880  0.24415160  1  0  -0.075203  0  3.631434  0  0  -0.172029  0  3.896435  0  0  -0.165137  0  3.900742  0  0.366398  0  -0.142323  -0.176616  0  3.893513  0
C  C98  1  0.90762614  0.91230016  0.09171950  1  0  -0.077655  0  3.607857  0  0  -0.172822  0  3.869138  0  0  -0.166208  0  3.873722  0  0.351105  0  -0.137718  -0.177131  0  3.86577  0
C  C99  1  0.09235580  0.08770056  0.90828265  1  0  -0.077654  0  3.607951  0  0  -0.172991  0  3.869162  0  0  -0.166386  0  3.87376  0  0.351265  0  -0.137693  -0.177323  0  3.865787  0
C  C100  1  0.02878553  0.68284776  0.44900788  1  0  0.709909  0  3.871631  0  0  0.664539  0  4.161883  0  0  0.701156  0  4.155016  0  1.533283  0  0.222982  0.639417  0  4.169914  0
C  C101  1  0.97122970  0.31714263  0.55099030  1  0  0.709953  0  3.871205  0  0  0.664561  0  4.161497  0  0  0.701185  0  4.154628  0  1.532926  0  0.222919  0.639407  0  4.169522  0
C  C102  1  0.97676389  0.78738806  0.41833289  1  0  -0.089115  0  3.809016  0  0  -0.068892  0  4.051997  0  0  -0.077545  0  4.072498  0  -0.000311  0  -0.035563  -0.063034  0  4.037164  0
C  C103  1  0.02324487  0.21260393  0.58166501  1  0  -0.089153  0  3.809146  0  0  -0.068899  0  4.052106  0  0  -0.077556  0  4.072602  0  -0.001303  0  -0.035511  -0.062945  0  4.037151  0
C  C104  1  0.83034687  0.81192353  0.42983128  1  0  -0.187907  0  3.754498  0  0  -0.22328  0  4.01228  0  0  -0.223642  0  4.030748  0  -0.012324  0  -0.10581  -0.222727  0  4.000235  0
C  C105  1  0.16967114  0.18807640  0.57017432  1  0  -0.187824  0  3.754633  0  0  -0.223155  0  4.012296  0  0  -0.223539  0  4.030797  0  -0.011734  0  -0.105815  -0.222618  0  4.00022  0
C  C106  1  0.78115907  0.91147712  0.40799974  1  0  0.156752  0  3.810543  0  0  0.147185  0  4.069591  0  0  0.152981  0  4.086509  0  0.475286  0  0.070949  0.143136  0  4.058021  0
C  C107  1  0.21884801  0.08850533  0.59197943  1  0  0.15688  0  3.810801  0  0  0.147311  0  4.069892  0  0  0.153116  0  4.086787  0  0.47389  0  0.071024  0.143249  0  4.058341  0
C  C108  1  0.87810874  0.98794987  0.37011846  1  0  0.18439  0  3.797568  0  0  0.170892  0  4.057017  0  0  0.181374  0  4.072699  0  0.487437  0  0.081904  0.163779  0  4.046205  0
C  C109  1  0.12189014  0.01202384  0.62983863  1  0  0.184414  0  3.7971  0  0  0.170699  0  4.056638  0  0  0.181177  0  4.072302  0  0.489547  0  0.082019  0.16359  0  4.045829  0
C  C110  1  0.02284648  0.96223386  0.35680667  1  0  -0.199941  0  3.791584  0  0  -0.218448  0  4.048305  0  0  -0.224678  0  4.068634  0  -0.017018  0  -0.114484  -0.21422  0  4.034691  0
C  C111  1  0.97713469  0.03773667  0.64313870  1  0  -0.200076  0  3.791277  0  0  -0.218682  0  4.048079  0  0  -0.224868  0  4.068427  0  -0.018172  0  -0.114879  -0.214456  0  4.034473  0
C  C112  1  0.07246483  0.86286537  0.38164906  1  0  -0.051494  0  3.751476  0  0  -0.083667  0  4.01098  0  0  -0.079364  0  4.026852  0  -0.069945  0  -0.093902  -0.086241  0  4.000203  0
C  C113  1  0.92753717  0.13712344  0.61833392  1  0  -0.051654  0  3.751873  0  0  -0.083884  0  4.011408  0  0  -0.079555  0  4.027238  0  -0.069456  0  -0.094009  -0.08648  0  4.000606  0
C  C114  1  0.54260042  0.86644035  0.45730308  1  0  -0.084532  0  3.617459  0  0  -0.177772  0  3.875764  0  0  -0.171143  0  3.879336  0  0.363843  0  -0.143019  -0.181581  0  3.872574  0
C  C115  1  0.45740360  0.13356355  0.54269059  1  0  -0.084598  0  3.617358  0  0  -0.177901  0  3.875572  0  0  -0.171273  0  3.879139  0  0.363716  0  -0.143032  -0.181709  0  3.872385  0
C  C116  1  0.91843373  0.16293160  0.31509583  1  0  -0.08903  0  3.625353  0  0  -0.184503  0  3.893298  0  0  -0.178077  0  3.897768  0  0.30529  0  -0.147342  -0.188627  0  3.889998  0
C  C117  1  0.08155543  0.83706197  0.68489728  1  0  -0.089095  0  3.625598  0  0  -0.184804  0  3.893562  0  0  -0.178384  0  3.898029  0  0.305337  0  -0.147423  -0.18893  0  3.89026  0
O  O118  1  0.65251158  0.57592812  0.34788017  1  0  -0.742831  0  2.020041  0  0  -0.691414  0  2.265639  0  0  -0.725644  0  2.250769  0  -1.203168  0  -0.405512  -0.673563  0  2.273847  0
O  O119  1  0.34748936  0.42407896  0.65212106  1  0  -0.742897  0  2.020158  0  0  -0.691514  0  2.265717  0  0  -0.725748  0  2.250839  0  -1.203245  0  -0.405615  -0.673668  0  2.27393  0
O  O120  1  0.43164261  0.55675830  0.40583119  1  0  -0.789711  0  2.124407  0  0  -0.736446  0  2.386433  0  0  -0.776373  0  2.374482  0  -1.223227  0  -0.411939  -0.717911  0  2.394551  0
O  O121  1  0.56835540  0.44323686  0.59417157  1  0  -0.789595  0  2.124185  0  0  -0.736378  0  2.386139  0  0  -0.776302  0  2.374201  0  -1.2231  0  -0.41188  -0.717835  0  2.394259  0
O  O122  1  0.93703471  0.60929855  0.46783499  1  0  -0.785383  0  2.128117  0  0  -0.732794  0  2.395172  0  0  -0.772131  0  2.383259  0  -1.21269  0  -0.412084  -0.714268  0  2.40312  0
O  O123  1  0.06298062  0.39069343  0.53217236  1  0  -0.785279  0  2.128058  0  0  -0.732717  0  2.395202  0  0  -0.772061  0  2.383282  0  -1.212565  0  -0.412041  -0.71422  0  2.403211  0
O  O124  1  0.16698734  0.66966960  0.45665649  1  0  -0.739475  0  2.02075  0  0  -0.688451  0  2.272261  0  0  -0.722826  0  2.257862  0  -1.197301  0  -0.406196  -0.670668  0  2.280316  0
O  O125  1  0.83301053  0.33032318  0.54334161  1  0  -0.739552  0  2.02035  0  0  -0.688526  0  2.271897  0  0  -0.722873  0  2.257445  0  -1.197063  0  -0.406154  -0.670733  0  2.279965  0
O  O126  1  0.09385098  0.68364776  0.10909703  1  0  -0.240569  0  2.396228  0  0  -0.162153  0  2.631914  0  0  -0.179333  0  2.635586  0  -1.075799  0  -0.184642  -0.150009  0  2.628816  0
O  O127  1  0.90613429  0.31635375  0.89091823  1  0  -0.240549  0  2.395769  0  0  -0.16237  0  2.63158  0  0  -0.179575  0  2.635269  0  -1.075399  0  -0.184752  -0.15023  0  2.62848  0
O  O128  1  0.26376755  0.79263056  0.00034192  1  0  -0.225616  0  2.351989  0  0  -0.152636  0  2.591744  0  0  -0.16977  0  2.593359  0  -1.071272  0  -0.179057  -0.140502  0  2.589982  0
O  O129  1  0.73621220  0.20737016  0.99966466  1  0  -0.225296  0  2.351673  0  0  -0.152619  0  2.591515  0  0  -0.169768  0  2.593138  0  -1.070715  0  -0.179119  -0.140483  0  2.589756  0
O  O130  1  0.64310993  0.94379651  0.42217119  1  0  -0.244888  0  2.379246  0  0  -0.16934  0  2.618774  0  0  -0.18706  0  2.623867  0  -1.073458  0  -0.186316  -0.156827  0  2.614782  0
O  O131  1  0.35689241  0.05619786  0.57782117  1  0  -0.24497  0  2.37929  0  0  -0.169371  0  2.618793  0  0  -0.18709  0  2.623877  0  -1.072576  0  -0.186309  -0.156854  0  2.614806  0
O  O132  1  0.82056459  0.08289102  0.34925143  1  0  -0.2363  0  2.355725  0  0  -0.166345  0  2.599278  0  0  -0.183379  0  2.601383  0  -1.067652  0  -0.184228  -0.154308  0  2.597225  0
O  O133  1  0.17942841  0.91709381  0.65073239  1  0  -0.236322  0  2.355833  0  0  -0.165997  0  2.599226  0  0  -0.183021  0  2.601322  0  -1.067571  0  -0.184199  -0.153959  0  2.597166  0
O  O134  1  0.68169853  0.65189640  0.58665359  1  0  -0.713576  0  2.074118  0  0  -0.651881  0  2.311074  0  0  -0.684906  0  2.300514  0  -1.193124  0  -0.362304  -0.634335  0  2.31862  0
O  O135  1  0.31830206  0.34810512  0.41334432  1  0  -0.71357  0  2.074174  0  0  -0.651872  0  2.311141  0  0  -0.6849  0  2.300581  0  -1.193193  0  -0.362298  -0.63433  0  2.318682  0
O  O136  1  0.85270379  0.55581847  0.66013168  1  0  -0.713004  0  2.074957  0  0  -0.653741  0  2.314279  0  0  -0.686891  0  2.304259  0  -1.201819  0  -0.362145  -0.63619  0  2.32154  0
O  O137  1  0.14728780  0.44417907  0.33986555  1  0  -0.712975  0  2.074727  0  0  -0.653747  0  2.314094  0  0  -0.686896  0  2.304071  0  -1.201228  0  -0.3621  -0.636194  0  2.321347  0
O  O138  1  0.63656403  0.96623069  0.84417261  1  0  -0.237078  0  2.366647  0  0  -0.162527  0  2.605338  0  0  -0.179624  0  2.609529  0  -1.063467  0  -0.186093  -0.150519  0  2.602183  0
O  O139  1  0.36346619  0.03378990  0.15582556  1  0  -0.236939  0  2.366558  0  0  -0.162479  0  2.605358  0  0  -0.179567  0  2.609529  0  -1.063746  0  -0.186117  -0.150472  0  2.602202  0
O  O140  1  0.81197886  0.92968885  0.00303709  1  0  -0.230034  0  2.363457  0  0  -0.156612  0  2.605097  0  0  -0.174704  0  2.608892  0  -1.069454  0  -0.178017  -0.143711  0  2.60172  0
O  O141  1  0.18802421  0.07031743  0.99696270  1  0  -0.230085  0  2.363194  0  0  -0.156544  0  2.604777  0  0  -0.174618  0  2.608587  0  -1.069021  0  -0.17801  -0.143649  0  2.601403  0
O  O142  1  0.60377777  0.34378734  0.39829314  1  0  -0.878678  0  1.837004  0  0  -0.833428  0  2.021065  0  0  -0.859974  0  1.988043  0  -1.244811  0  -0.629845  -0.82057  0  2.041195  0
O  O143  1  0.39621883  0.65622053  0.60172076  1  0  -0.878733  0  1.836807  0  0  -0.833494  0  2.020819  0  0  -0.860042  0  1.987815  0  -1.244826  0  -0.62981  -0.820639  0  2.040947  0
O  O144  1  0.85821908  0.42576317  0.33672918  1  0  -0.879046  0  1.871044  0  0  -0.834395  0  2.059423  0  0  -0.861503  0  2.025365  0  -1.268357  0  -0.621415  -0.820956  0  2.078991  0
O  O145  1  0.14177451  0.57423120  0.66327330  1  0  -0.87905  0  1.871165  0  0  -0.834407  0  2.059547  0  0  -0.861518  0  2.025484  0  -1.268367  0  -0.621372  -0.820973  0  2.079168  0
