# generated using pymatgen
data_CdH5C5IN2O3
_symmetry_space_group_name_H-M   'P 1'
_cell_length_a   9.02395008
_cell_length_b   9.02393674
_cell_length_c   12.67335145
_cell_angle_alpha   102.82288105
_cell_angle_beta   102.82323176
_cell_angle_gamma   108.95703232
_symmetry_Int_Tables_number   1
_chemical_formula_structural   CdH5C5IN2O3
_chemical_formula_sum   'Cd4 H20 C20 I4 N8 O12'
_cell_volume   902.01955456
_cell_formula_units_Z   4
loop_
 _symmetry_equiv_pos_site_id
 _symmetry_equiv_pos_as_xyz
  1  'x, y, z'
loop_
 _atom_site_type_symbol
 _atom_site_label
 _atom_site_symmetry_multiplicity
 _atom_site_fract_x
 _atom_site_fract_y
 _atom_site_fract_z
 _atom_site_occupancy
 _atom_site_hle17_bader_spin_density
 _atom_site_hle17_ddec_charge
 _atom_site_hle17_ddec_spin_density
 _atom_site_hle17_ddec_sum_bond_order
 _atom_site_hle17_magmom
 _atom_site_hse06_10hf_bader_spin_density
 _atom_site_hse06_10hf_ddec_charge
 _atom_site_hse06_10hf_ddec_spin_density
 _atom_site_hse06_10hf_ddec_sum_bond_order
 _atom_site_hse06_10hf_magmom
 _atom_site_hse06_bader_spin_density
 _atom_site_hse06_ddec_charge
 _atom_site_hse06_ddec_spin_density
 _atom_site_hse06_ddec_sum_bond_order
 _atom_site_hse06_magmom
 _atom_site_pbe_bader_spin_density
 _atom_site_pbe_cm5_charge
 _atom_site_pbe_ddec_charge
 _atom_site_pbe_ddec_spin_density
 _atom_site_pbe_ddec_sum_bond_order
 _atom_site_pbe_magmom
Cd  Cd0  1  0.83048464  0.58564138  0.79477664  1  0  0.908615  0  1.973189  0  0  0.744792  0  2.421448  0  0  0.795074  0  2.379235  0  0  0.609251  0.709744  0  2.449676  0
Cd  Cd1  1  0.41435926  0.16951897  0.70522643  1  0  0.908582  0  1.973186  0  0  0.744743  0  2.421483  0  0  0.795025  0  2.379273  0  0  0.609228  0.709694  0  2.449709  0
Cd  Cd2  1  0.16952085  0.41436352  0.20522488  1  0  0.908591  0  1.973167  0  0  0.744728  0  2.421507  0  0  0.795009  0  2.379296  0  0  0.609226  0.70968  0  2.449732  0
Cd  Cd3  1  0.58563911  0.83048222  0.29477423  1  0  0.908571  0  1.973222  0  0  0.744749  0  2.421485  0  0  0.795031  0  2.379274  0  0  0.609227  0.7097  0  2.449709  0
H  H4  1  0.69074359  0.04859916  0.64524150  1  0  0.093584  0  0.953456  0  0  0.09634  0  1.027621  0  0  0.099719  0  1.024764  0  0  0.113083  0.093817  0  1.029829  0
H  H5  1  0.95139283  0.30924918  0.85475633  1  0  0.093597  0  0.953531  0  0  0.096335  0  1.027709  0  0  0.099715  0  1.024854  0  0  0.113053  0.093812  0  1.029917  0
H  H6  1  0.30924518  0.95139207  0.35475382  1  0  0.093623  0  0.953536  0  0  0.096354  0  1.027696  0  0  0.099737  0  1.024841  0  0  0.113082  0.093831  0  1.029903  0
H  H7  1  0.04860158  0.69075069  0.14524037  1  0  0.093594  0  0.95351  0  0  0.096333  0  1.027673  0  0  0.099713  0  1.024815  0  0  0.1131  0.09381  0  1.029881  0
H  H8  1  0.40528233  0.90873382  0.84989608  1  0  0.116822  0  0.923581  0  0  0.123734  0  0.982468  0  0  0.127679  0  0.979093  0  0  0.129821  0.120806  0  0.985069  0
H  H9  1  0.09126708  0.59472110  0.65010849  1  0  0.116839  0  0.923438  0  0  0.123743  0  0.982354  0  0  0.12769  0  0.978977  0  0  0.129811  0.120814  0  0.984954  0
H  H10  1  0.59471900  0.09126617  0.15010643  1  0  0.116824  0  0.92349  0  0  0.123735  0  0.982387  0  0  0.127681  0  0.979011  0  0  0.129809  0.120807  0  0.984987  0
H  H11  1  0.90873286  0.40528128  0.34989022  1  0  0.116832  0  0.923473  0  0  0.123744  0  0.982373  0  0  0.12769  0  0.978996  0  0  0.129824  0.120815  0  0.984973  0
H  H12  1  0.54167497  0.70786040  0.88487990  1  0  0.094195  0  0.94042  0  0  0.095702  0  1.013982  0  0  0.099314  0  1.011713  0  0  0.112413  0.093027  0  1.015821  0
H  H13  1  0.29213520  0.45832197  0.61511969  1  0  0.094214  0  0.940453  0  0  0.095692  0  1.014033  0  0  0.099303  0  1.011765  0  0  0.112445  0.093017  0  1.015872  0
H  H14  1  0.45832778  0.29214327  0.11512181  1  0  0.094158  0  0.940435  0  0  0.095663  0  1.014004  0  0  0.099275  0  1.011735  0  0  0.112399  0.092988  0  1.015843  0
H  H15  1  0.70786430  0.54167922  0.38488115  1  0  0.09421  0  0.940454  0  0  0.095697  0  1.014023  0  0  0.099308  0  1.011756  0  0  0.112438  0.093023  0  1.015862  0
H  H16  1  0.01571053  0.83110111  0.00742160  1  0  0.4132  0  0.895393  0  0  0.381845  0  0.960723  0  0  0.392689  0  0.945091  0  0  0.279103  0.374216  0  0.971684  0
H  H17  1  0.16890660  0.98429219  0.49258169  1  0  0.413283  0  0.89529  0  0  0.381905  0  0.960647  0  0  0.392749  0  0.945015  0  0  0.27911  0.374277  0  0.971607  0
H  H18  1  0.98428958  0.16890747  0.99257966  1  0  0.413275  0  0.895293  0  0  0.381898  0  0.960649  0  0  0.392742  0  0.945017  0  0  0.279127  0.374271  0  0.971609  0
H  H19  1  0.83109456  0.01571027  0.50742116  1  0  0.413269  0  0.895299  0  0  0.38189  0  0.960658  0  0  0.392734  0  0.945027  0  0  0.279096  0.374261  0  0.97162  0
H  H20  1  0.06729962  0.90946593  0.91702290  1  0  0.418335  0  0.882746  0  0  0.384178  0  0.953657  0  0  0.39633  0  0.936092  0  0  0.28035  0.375577  0  0.966049  0
H  H21  1  0.09053742  0.93270332  0.58297806  1  0  0.418318  0  0.882794  0  0  0.384161  0  0.953687  0  0  0.396312  0  0.936123  0  0  0.280331  0.375559  0  0.966081  0
H  H22  1  0.93269859  0.09053774  0.08297890  1  0  0.418328  0  0.882758  0  0  0.384174  0  0.953661  0  0  0.396326  0  0.936097  0  0  0.28035  0.375573  0  0.966055  0
H  H23  1  0.90946186  0.06730029  0.41702074  1  0  0.418335  0  0.882777  0  0  0.384184  0  0.953653  0  0  0.396336  0  0.936089  0  0  0.280346  0.375583  0  0.966045  0
C  C24  1  0.72973362  0.85954377  0.71523339  1  0  0.072419  0  3.704162  0  0  0.074367  0  3.952173  0  0  0.073436  0  3.968488  0  0  0.120272  0.074397  0  3.941812  0
C  C25  1  0.14045295  0.27026413  0.78476814  1  0  0.072503  0  3.70408  0  0  0.074397  0  3.952148  0  0  0.073473  0  3.968451  0  0  0.120287  0.074424  0  3.941793  0
C  C26  1  0.27026393  0.14045244  0.28476481  1  0  0.072585  0  3.704111  0  0  0.074483  0  3.952157  0  0  0.073551  0  3.968474  0  0  0.12035  0.074512  0  3.941794  0
C  C27  1  0.85954607  0.72973582  0.21523243  1  0  0.072533  0  3.704092  0  0  0.074438  0  3.952144  0  0  0.073513  0  3.968449  0  0  0.120313  0.074465  0  3.941783  0
C  C28  1  0.65686373  0.97117501  0.69808506  1  0  0.089285  0  3.652701  0  0  0.051619  0  3.906546  0  0  0.056554  0  3.921485  0  0  0.058059  0.048185  0  3.896995  0
C  C29  1  0.02882319  0.34313242  0.80191683  1  0  0.089352  0  3.652602  0  0  0.051693  0  3.906463  0  0  0.056625  0  3.921403  0  0  0.058148  0.04826  0  3.896914  0
C  C30  1  0.34312928  0.02882120  0.30191323  1  0  0.089226  0  3.652576  0  0  0.051616  0  3.906412  0  0  0.056547  0  3.921355  0  0  0.058049  0.048183  0  3.89686  0
C  C31  1  0.97117908  0.65687002  0.19808461  1  0  0.089302  0  3.65248  0  0  0.051671  0  3.906318  0  0  0.056607  0  3.921254  0  0  0.058067  0.048239  0  3.896765  0
C  C32  1  0.49926339  0.89368024  0.81218354  1  0  0.097528  0  3.613332  0  0  0.067767  0  3.860608  0  0  0.072228  0  3.875776  0  0  0.066326  0.064698  0  3.850613  0
C  C33  1  0.10631877  0.50073346  0.68781841  1  0  0.097496  0  3.61323  0  0  0.067687  0  3.860532  0  0  0.072147  0  3.875701  0  0  0.066306  0.064619  0  3.85054  0
C  C34  1  0.50073384  0.10632094  0.18781695  1  0  0.09749  0  3.613204  0  0  0.067711  0  3.860499  0  0  0.072172  0  3.875665  0  0  0.066317  0.064642  0  3.850504  0
C  C35  1  0.89368251  0.49926649  0.31218172  1  0  0.097541  0  3.613208  0  0  0.067745  0  3.860501  0  0  0.072205  0  3.875668  0  0  0.066324  0.064673  0  3.85051  0
C  C36  1  0.57310077  0.78375740  0.83047753  1  0  0.092324  0  3.662025  0  0  0.064532  0  3.918867  0  0  0.066427  0  3.935708  0  0  0.059694  0.06296  0  3.907855  0
C  C37  1  0.21623950  0.42689554  0.66952205  1  0  0.092342  0  3.662068  0  0  0.064596  0  3.918879  0  0  0.066488  0  3.93573  0  0  0.059708  0.063024  0  3.907865  0
C  C38  1  0.42689756  0.21624375  0.16952154  1  0  0.092395  0  3.662063  0  0  0.064599  0  3.918902  0  0  0.066493  0  3.935751  0  0  0.059709  0.063028  0  3.907887  0
C  C39  1  0.78375950  0.57310440  0.33047773  1  0  0.092312  0  3.662079  0  0  0.064554  0  3.918899  0  0  0.066447  0  3.935749  0  0  0.059697  0.06298  0  3.907883  0
C  C40  1  0.85963419  0.84034937  0.66121725  1  0  0.626165  0  3.931468  0  0  0.566744  0  4.237305  0  0  0.600996  0  4.23005  0  0  0.20692  0.543613  0  4.241449  0
C  C41  1  0.15964866  0.14036362  0.83878404  1  0  0.626049  0  3.931557  0  0  0.566645  0  4.237384  0  0  0.600896  0  4.230129  0  0  0.206845  0.543517  0  4.241532  0
C  C42  1  0.14036531  0.15965182  0.33878358  1  0  0.626054  0  3.931491  0  0  0.566622  0  4.237356  0  0  0.600874  0  4.230102  0  0  0.206847  0.543492  0  4.241498  0
C  C43  1  0.84035310  0.85963756  0.16121635  1  0  0.626056  0  3.931673  0  0  0.566632  0  4.23753  0  0  0.600883  0  4.230277  0  0  0.20681  0.543502  0  4.241675  0
I  I44  1  0.67730387  0.41931063  0.92999913  1  0  -0.464392  0  1.1266  0  0  -0.417009  0  1.459445  0  0  -0.440593  0  1.438351  0  0  -0.200925  -0.399865  0  1.473407  0
I  I45  1  0.58068503  0.32269495  0.56999380  1  0  -0.464421  0  1.126548  0  0  -0.417014  0  1.45933  0  0  -0.4406  0  1.438241  0  0  -0.200943  -0.399869  0  1.473291  0
I  I46  1  0.32269719  0.58069174  0.06999896  1  0  -0.464378  0  1.126596  0  0  -0.416989  0  1.459437  0  0  -0.440574  0  1.438349  0  0  -0.200917  -0.399844  0  1.473398  0
I  I47  1  0.41931093  0.67730610  0.43000016  1  0  -0.464385  0  1.126612  0  0  -0.416982  0  1.459428  0  0  -0.440565  0  1.438333  0  0  -0.20092  -0.39984  0  1.47339  0
N  N48  1  0.68588195  0.76661342  0.78094966  1  0  -0.274703  0  3.255173  0  0  -0.212739  0  3.50858  0  0  -0.22505  0  3.526776  0  0  -0.299947  -0.204221  0  3.496455  0
N  N49  1  0.23338440  0.31411782  0.71905325  1  0  -0.274693  0  3.255229  0  0  -0.212704  0  3.508621  0  0  -0.225018  0  3.526815  0  0  -0.299953  -0.204184  0  3.496496  0
N  N50  1  0.31411885  0.23338529  0.21905021  1  0  -0.274754  0  3.255244  0  0  -0.212756  0  3.508646  0  0  -0.225067  0  3.526842  0  0  -0.299967  -0.204238  0  3.496518  0
N  N51  1  0.76661575  0.68588213  0.28094670  1  0  -0.274732  0  3.255291  0  0  -0.212755  0  3.508693  0  0  -0.225069  0  3.526889  0  0  -0.299978  -0.204236  0  3.496564  0
N  N52  1  0.54218946  0.98656932  0.74574255  1  0  -0.251571  0  3.235275  0  0  -0.177622  0  3.491528  0  0  -0.192628  0  3.509371  0  0  -0.305624  -0.167453  0  3.479455  0
N  N53  1  0.01343056  0.45780861  0.75425882  1  0  -0.251677  0  3.235278  0  0  -0.177662  0  3.491494  0  0  -0.192667  0  3.509337  0  0  -0.305671  -0.167494  0  3.479421  0
N  N54  1  0.45780367  0.01342437  0.25425302  1  0  -0.251597  0  3.235006  0  0  -0.177633  0  3.491231  0  0  -0.192638  0  3.509073  0  0  -0.305635  -0.167466  0  3.479156  0
N  N55  1  0.98657236  0.54219259  0.24574254  1  0  -0.251642  0  3.23512  0  0  -0.177652  0  3.491342  0  0  -0.192658  0  3.509183  0  0  -0.305662  -0.167484  0  3.479266  0
O  O56  1  0.91250837  0.72963951  0.67328298  1  0  -0.585873  0  2.032607  0  0  -0.522704  0  2.277331  0  0  -0.55068  0  2.268029  0  0  -0.320023  -0.503169  0  2.282944  0
O  O57  1  0.27035488  0.08748400  0.82671492  1  0  -0.585883  0  2.032609  0  0  -0.522712  0  2.277314  0  0  -0.550688  0  2.268013  0  0  -0.320017  -0.503176  0  2.282929  0
O  O58  1  0.08749405  0.27036044  0.32671732  1  0  -0.585869  0  2.032671  0  0  -0.522694  0  2.277407  0  0  -0.550669  0  2.268105  0  0  -0.320017  -0.50316  0  2.283019  0
O  O59  1  0.72964382  0.91251223  0.17328425  1  0  -0.585898  0  2.032584  0  0  -0.522721  0  2.2773  0  0  -0.550697  0  2.267999  0  0  -0.31999  -0.503185  0  2.282912  0
O  O60  1  0.91064643  0.94148355  0.60908739  1  0  -0.633984  0  2.043998  0  0  -0.56709  0  2.264549  0  0  -0.594857  0  2.256901  0  0  -0.304057  -0.547654  0  2.269251  0
O  O61  1  0.05851636  0.08935106  0.89091560  1  0  -0.633957  0  2.044099  0  0  -0.567056  0  2.264635  0  0  -0.594826  0  2.256991  0  0  -0.304026  -0.547622  0  2.26934  0
O  O62  1  0.08935248  0.05851894  0.39091671  1  0  -0.633943  0  2.043984  0  0  -0.567043  0  2.264537  0  0  -0.594812  0  2.256892  0  0  -0.304024  -0.547609  0  2.26924  0
O  O63  1  0.94148105  0.91064765  0.10908454  1  0  -0.633892  0  2.044248  0  0  -0.567006  0  2.264805  0  0  -0.594776  0  2.257162  0  0  -0.303999  -0.54757  0  2.269508  0
O  O64  1  0.05233640  0.80746252  0.93950030  1  0  -0.811933  0  1.865015  0  0  -0.754447  0  2.057105  0  0  -0.776627  0  2.023433  0  0  -0.604696  -0.738666  0  2.080342  0
O  O65  1  0.19253938  0.94766611  0.56050293  1  0  -0.811982  0  1.865004  0  0  -0.754471  0  2.05711  0  0  -0.77665  0  2.023438  0  0  -0.604674  -0.738691  0  2.080347  0
O  O66  1  0.94766081  0.19253865  0.06049939  1  0  -0.812006  0  1.864964  0  0  -0.754494  0  2.057076  0  0  -0.776673  0  2.023404  0  0  -0.604723  -0.738714  0  2.080313  0
O  O67  1  0.80746225  0.05233757  0.43949939  1  0  -0.811986  0  1.864966  0  0  -0.754482  0  2.057068  0  0  -0.776661  0  2.023396  0  0  -0.604679  -0.738703  0  2.080305  0
