# generated using pymatgen
data_YbH14C14N3O9F4
_symmetry_space_group_name_H-M   'P 1'
_cell_length_a   11.24149016
_cell_length_b   12.27432033
_cell_length_c   19.98644473
_cell_angle_alpha   73.94818225
_cell_angle_beta   73.68614483
_cell_angle_gamma   62.74398885
_symmetry_Int_Tables_number   1
_chemical_formula_structural   YbH14C14N3O9F4
_chemical_formula_sum   'Yb4 H56 C56 N12 O36 F16'
_cell_volume   2317.25424645
_cell_formula_units_Z   4
loop_
 _symmetry_equiv_pos_site_id
 _symmetry_equiv_pos_as_xyz
  1  'x, y, z'
loop_
 _atom_site_type_symbol
 _atom_site_label
 _atom_site_symmetry_multiplicity
 _atom_site_fract_x
 _atom_site_fract_y
 _atom_site_fract_z
 _atom_site_occupancy
 _atom_site_pbe_bader_charge
 _atom_site_pbe_bader_spin_density
 _atom_site_pbe_cm5_charge
 _atom_site_pbe_ddec_charge
 _atom_site_pbe_ddec_spin_density
 _atom_site_pbe_ddec_sum_bond_order
 _atom_site_pbe_magmom
Yb  Yb0  1  0.05869140  0.10880936  0.69584276  1  2.189934  0  1.597633  2.042988  0  2.141661  0
Yb  Yb1  1  0.86358906  0.39108895  0.80417033  1  2.189696  0  1.598307  2.044451  0  2.140884  0
Yb  Yb2  1  0.94131005  0.89118993  0.30415495  1  2.189999  0  1.597632  2.04293  0  2.141682  0
Yb  Yb3  1  0.13641153  0.60891221  0.19583020  1  2.189585  0  1.59829  2.04446  0  2.140909  0
H  H4  1  0.39988526  0.02881743  0.61455696  1  0.077639  0  0.128426  0.051636  0  0.983789  0
H  H5  1  0.04312718  0.47124573  0.88589867  1  0.114329  0  0.127793  0.051339  0  0.983032  0
H  H6  1  0.60011394  0.97117445  0.38544836  1  0.077645  0  0.128451  0.051673  0  0.983782  0
H  H7  1  0.95686115  0.52876008  0.11409898  1  0.114133  0  0.127808  0.051407  0  0.983032  0
H  H8  1  0.53532468  0.65825473  0.65985532  1  0.081821  0  0.10618  0.12698  0  0.99634  0
H  H9  1  0.85303828  0.84169113  0.83998991  1  0.071173  0  0.105483  0.12628  0  0.996023  0
H  H10  1  0.46465649  0.34173810  0.34015117  1  0.080982  0  0.106202  0.126935  0  0.996406  0
H  H11  1  0.14696662  0.15831282  0.16000946  1  0.070763  0  0.105464  0.126291  0  0.996102  0
H  H12  1  0.47462485  0.69062877  0.58018884  1  0.05501  0  0.108773  0.126871  0  0.974769  0
H  H13  1  0.74490721  0.80961521  0.91962621  1  0.065899  0  0.10907  0.127332  0  0.974195  0
H  H14  1  0.52535827  0.30936590  0.41981653  1  0.055078  0  0.108759  0.126822  0  0.974854  0
H  H15  1  0.25509486  0.19039711  0.08037067  1  0.065889  0  0.109039  0.127251  0  0.974227  0
H  H16  1  0.35646002  0.74310276  0.65819009  1  0.114667  0  0.114666  0.134278  0  1.011328  0
H  H17  1  0.75768753  0.75650637  0.84173234  1  0.093136  0  0.114842  0.134967  0  1.011593  0
H  H18  1  0.64352361  0.25689285  0.34181554  1  0.114464  0  0.114661  0.134205  0  1.011292  0
H  H19  1  0.24230917  0.24350967  0.15826325  1  0.093337  0  0.11484  0.134937  0  1.011636  0
H  H20  1  0.59696739  0.93712810  0.54819398  1  0.047682  0  0.10978  0.121763  0  0.993877  0
H  H21  1  0.08224615  0.56380739  0.95187836  1  0.069183  0  0.109927  0.122539  0  0.993279  0
H  H22  1  0.40302329  0.06286006  0.45181232  1  0.047446  0  0.109776  0.121882  0  0.993705  0
H  H23  1  0.91774880  0.43619191  0.04812086  1  0.069132  0  0.109957  0.122566  0  0.99336  0
H  H24  1  0.59386759  0.82795022  0.50586856  1  0.05133  0  0.102816  0.116636  0  0.997365  0
H  H25  1  0.92764498  0.67318482  0.99405999  1  0.0911  0  0.103114  0.117743  0  0.996391  0
H  H26  1  0.40612638  0.17203887  0.49413756  1  0.051315  0  0.102835  0.116682  0  0.997278  0
H  H27  1  0.07234812  0.32681448  0.00594052  1  0.090684  0  0.103115  0.117724  0  0.996389  0
H  H28  1  0.68628593  0.77403996  0.57571208  1  0.081406  0  0.106201  0.124822  0  1.01667  0
H  H29  1  0.03564391  0.72686924  0.92391041  1  0.075261  0  0.106082  0.124498  0  1.015473  0
H  H30  1  0.31370617  0.22594913  0.42429484  1  0.08148  0  0.106222  0.1248  0  1.016719  0
H  H31  1  0.96435288  0.27313007  0.07609102  1  0.075373  0  0.106052  0.124458  0  1.01547  0
H  H32  1  0.82996814  0.01177172  0.68035686  1  0.101303  0  0.12371  0.048973  0  1.018551  0
H  H33  1  0.52220932  0.48809986  0.81978313  1  0.124503  0  0.123284  0.048605  0  1.018404  0
H  H34  1  0.17003029  0.98823222  0.31964052  1  0.101343  0  0.123698  0.048986  0  1.018452  0
H  H35  1  0.47779036  0.51190129  0.18021453  1  0.124367  0  0.123307  0.04864  0  1.018344  0
H  H36  1  0.71409278  0.91131700  0.68205287  1  0.039729  0  0.102749  0.110751  0  1.003025  0
H  H37  1  0.30750568  0.58883197  0.81789540  1  0.036455  0  0.102888  0.110579  0  1.002231  0
H  H38  1  0.28591110  0.08868509  0.31794698  1  0.039695  0  0.102753  0.110789  0  1.002983  0
H  H39  1  0.69249515  0.41116454  0.18210588  1  0.036493  0  0.102928  0.110604  0  1.002173  0
H  H40  1  0.77725436  0.75004310  0.72322639  1  0.087297  0  0.110243  0.133445  0  1.006168  0
H  H41  1  0.25089199  0.75009624  0.77673165  1  0.088343  0  0.110084  0.132308  0  1.006605  0
H  H42  1  0.22274734  0.24996179  0.27677383  1  0.087187  0  0.110248  0.133434  0  1.006214  0
H  H43  1  0.74910522  0.24990214  0.22327038  1  0.088309  0  0.110137  0.132355  0  1.006563  0
H  H44  1  0.80779167  0.79085229  0.62934270  1  0.107896  0  0.103154  0.126517  0  1.036063  0
H  H45  1  0.22802301  0.70929036  0.87062001  1  0.105566  0  0.103047  0.125521  0  1.036485  0
H  H46  1  0.19220488  0.20915167  0.37065797  1  0.107852  0  0.103156  0.126543  0  1.035994  0
H  H47  1  0.77197672  0.29070243  0.12938158  1  0.105742  0  0.103005  0.125449  0  1.036569  0
H  H48  1  0.12434470  0.71758098  0.69620822  1  0.082152  0  0.106853  0.123765  0  1.01277  0
H  H49  1  0.53837364  0.78212456  0.80419458  1  0.085076  0  0.106519  0.123746  0  1.013763  0
H  H50  1  0.87565627  0.28242761  0.30378897  1  0.082271  0  0.106808  0.123691  0  1.012771  0
H  H51  1  0.46162087  0.21787569  0.19580855  1  0.085072  0  0.106535  0.123775  0  1.013701  0
H  H52  1  0.08370869  0.68713285  0.62476481  1  0.066851  0  0.106031  0.129336  0  0.981587  0
H  H53  1  0.39580588  0.81251128  0.87559732  1  0.081897  0  0.106456  0.130105  0  0.981505  0
H  H54  1  0.91629673  0.31287203  0.37523283  1  0.066959  0  0.106082  0.129345  0  0.981613  0
H  H55  1  0.60418887  0.18748432  0.12440606  1  0.081964  0  0.106498  0.130157  0  0.981535  0
H  H56  1  0.02165929  0.63187022  0.71394640  1  0.096234  0  0.107387  0.13018  0  1.022518  0
H  H57  1  0.36777340  0.86798371  0.78638268  1  0.09155  0  0.107405  0.130379  0  1.02203  0
H  H58  1  0.97834799  0.36813465  0.28605044  1  0.096054  0  0.107451  0.130282  0  1.022552  0
H  H59  1  0.63221875  0.13201561  0.21362148  1  0.091546  0  0.107378  0.130371  0  1.022021  0
C  C60  1  0.20199522  0.24973088  0.75011069  1  1.697373  0  0.232578  0.692979  0  4.12973  0
C  C61  1  0.79801041  0.75026937  0.24989170  1  1.697532  0  0.232566  0.69308  0  4.129623  0
C  C62  1  0.33685416  0.24985184  0.74997610  1  0.101049  0  -0.024046  -0.203701  0  3.991059  0
C  C63  1  0.66315580  0.75014093  0.25002038  1  0.10107  0  -0.02398  -0.203557  0  3.990915  0
C  C64  1  0.44072591  0.14430138  0.77861746  1  0.515153  0  0.090353  0.150413  0  4.102058  0
C  C65  1  0.36332951  0.35563587  0.72131672  1  0.512859  0  0.090658  0.150986  0  4.101217  0
C  C66  1  0.55928096  0.85569608  0.22138771  1  0.515249  0  0.090435  0.15043  0  4.102089  0
C  C67  1  0.63668191  0.64435780  0.27867488  1  0.513008  0  0.090633  0.150856  0  4.101219  0
C  C68  1  0.56406760  0.14485954  0.77915243  1  0.517712  0  0.089946  0.148952  0  4.103208  0
C  C69  1  0.48761705  0.35546719  0.72070688  1  0.523886  0  0.090302  0.148173  0  4.102184  0
C  C70  1  0.43593715  0.85514068  0.22084411  1  0.517995  0  0.089918  0.148922  0  4.103395  0
C  C71  1  0.51238984  0.64452834  0.27928312  1  0.523464  0  0.090215  0.148176  0  4.102097  0
C  C72  1  0.59123866  0.25027082  0.74992036  1  0.113886  0  -0.024065  -0.207723  0  3.993166  0
C  C73  1  0.40877064  0.74972752  0.25007428  1  0.11363  0  -0.024053  -0.20771  0  3.993256  0
C  C74  1  0.72561091  0.25038380  0.74985385  1  1.673899  0  0.240209  0.699856  0  4.109997  0
C  C75  1  0.27439329  0.74961551  0.25014742  1  1.674016  0  0.240227  0.699929  0  4.109838  0
C  C76  1  0.92950056  0.43504499  0.65330130  1  1.666145  0  0.224587  0.673546  0  4.157566  0
C  C77  1  0.01707062  0.06488938  0.84674963  1  1.65934  0  0.22449  0.674051  0  4.154631  0
C  C78  1  0.07050803  0.56495897  0.34669899  1  1.666125  0  0.224564  0.673558  0  4.157653  0
C  C79  1  0.98292999  0.93511177  0.15324839  1  1.659257  0  0.224482  0.673976  0  4.154656  0
C  C80  1  0.96597245  0.46865522  0.57428183  1  0.026649  0  -0.020624  -0.199768  0  3.997593  0
C  C81  1  0.00839245  0.03131561  0.92574604  1  0.102631  0  -0.021043  -0.202712  0  4.000691  0
C  C82  1  0.03403841  0.53134782  0.42572027  1  0.026837  0  -0.020528  -0.199737  0  3.997525  0
C  C83  1  0.99161691  0.96867436  0.07425052  1  0.10289  0  -0.02103  -0.202675  0  4.000631  0
C  C84  1  0.09826645  0.45370129  0.54158702  1  0.590247  0  0.096901  0.16696  0  4.0801  0
C  C85  1  0.09332035  0.04631055  0.95824954  1  0.544431  0  0.097327  0.167754  0  4.08445  0
C  C86  1  0.90174391  0.54630081  0.45841381  1  0.590335  0  0.096743  0.166712  0  4.080294  0
C  C87  1  0.90668590  0.95368221  0.04174703  1  0.544117  0  0.097284  0.167818  0  4.084102  0
C  C88  1  0.13139327  0.48507943  0.46849907  1  0.553507  0  0.094509  0.158539  0  4.082459  0
C  C89  1  0.08522696  0.01504251  0.03131275  1  0.523238  0  0.095195  0.161146  0  4.081248  0
C  C90  1  0.86861903  0.51492453  0.53150164  1  0.553762  0  0.094821  0.158835  0  4.082446  0
C  C91  1  0.91477593  0.98495771  0.96868507  1  0.523387  0  0.0952  0.161084  0  4.081166  0
C  C92  1  0.37862922  0.94500529  0.63395226  1  1.406373  0  0.186853  0.330893  0  4.085809  0
C  C93  1  0.95747193  0.55495257  0.86635635  1  1.362561  0  0.187112  0.330873  0  4.084746  0
C  C94  1  0.62136822  0.05498845  0.36605202  1  1.407088  0  0.186745  0.33067  0  4.085988  0
C  C95  1  0.04251369  0.44505511  0.13364340  1  1.362643  0  0.187218  0.330868  0  4.084673  0
C  C96  1  0.45879530  0.72687815  0.62788816  1  0.259889  0  -0.131613  -0.273203  0  3.880223  0
C  C97  1  0.81322217  0.77309812  0.87204404  1  0.27565  0  -0.132165  -0.275214  0  3.879731  0
C  C98  1  0.54118824  0.27311560  0.37211730  1  0.26085  0  -0.131616  -0.273081  0  3.880196  0
C  C99  1  0.18677610  0.22691234  0.12795376  1  0.276031  0  -0.132039  -0.275013  0  3.879837  0
C  C100  1  0.59383045  0.84629051  0.55668064  1  0.303037  0  -0.130819  -0.284263  0  3.934995  0
C  C101  1  0.99660165  0.65450457  0.94326353  1  0.25291  0  -0.13055  -0.285288  0  3.934607  0
C  C102  1  0.40616250  0.15369673  0.44332596  1  0.303401  0  -0.130839  -0.284434  0  3.93476  0
C  C103  1  0.00339246  0.34549659  0.05673651  1  0.253654  0  -0.130534  -0.285208  0  3.93465  0
C  C104  1  0.92822808  0.93013927  0.68032005  1  1.384498  0  0.181931  0.327512  0  4.083855  0
C  C105  1  0.53886231  0.56968913  0.81981636  1  1.353535  0  0.181948  0.328611  0  4.083349  0
C  C106  1  0.07177005  0.06986745  0.31967340  1  1.384523  0  0.18187  0.327481  0  4.083734  0
C  C107  1  0.46113643  0.43031203  0.18018395  1  1.353465  0  0.181913  0.328571  0  4.083135  0
C  C108  1  0.79784852  0.81897561  0.67881351  1  0.248283  0  -0.132318  -0.285643  0  3.89154  0
C  C109  1  0.29579006  0.68109976  0.82119852  1  0.247567  0  -0.131856  -0.282127  0  3.88983  0
C  C110  1  0.20215309  0.18102742  0.32118653  1  0.24845  0  -0.132359  -0.285716  0  3.891596  0
C  C111  1  0.70420757  0.31889769  0.17880260  1  0.247387  0  -0.131885  -0.28206  0  3.889761  0
C  C112  1  0.04623133  0.70768757  0.67889300  1  0.262446  0  -0.136127  -0.275296  0  3.869422  0
C  C113  1  0.43305231  0.79206444  0.82144435  1  0.245952  0  -0.136557  -0.276664  0  3.871208  0
C  C114  1  0.95377275  0.29231824  0.32110369  1  0.262375  0  -0.136205  -0.275298  0  3.869507  0
C  C115  1  0.56694220  0.20793581  0.17855828  1  0.246088  0  -0.136607  -0.276757  0  3.871258  0
N  N116  1  0.47341477  0.84417461  0.60763578  1  -1.21594  0  -0.27717  0.036769  0  3.705504  0
N  N117  1  0.92492146  0.65600046  0.89252202  1  -1.215763  0  -0.276959  0.038156  0  3.706699  0
N  N118  1  0.52657734  0.15581448  0.39237063  1  -1.216372  0  -0.277182  0.036882  0  3.705408  0
N  N119  1  0.07507724  0.34400906  0.10747437  1  -1.216206  0  -0.277006  0.03809  0  3.706884  0
N  N120  1  0.92403584  0.82347477  0.68058644  1  -1.217853  0  -0.274031  0.048553  0  3.705258  0
N  N121  1  0.42826750  0.67637268  0.81961745  1  -1.204327  0  -0.274163  0.046919  0  3.706595  0
N  N122  1  0.07596545  0.17653105  0.31941218  1  -1.217945  0  -0.27399  0.048506  0  3.705141  0
N  N123  1  0.57172712  0.32362942  0.18038285  1  -1.204467  0  -0.274106  0.046921  0  3.706572  0
N  N124  1  0.05850999  0.18787689  0.54753311  1  0.819777  0  0.076856  0.725528  0  4.432987  0
N  N125  1  0.79408270  0.31204574  0.95245096  1  0.826109  0  0.076597  0.724796  0  4.440517  0
N  N126  1  0.94148665  0.81212893  0.45246724  1  0.820102  0  0.076728  0.72542  0  4.433201  0
N  N127  1  0.20591302  0.68796008  0.04754903  1  0.826343  0  0.07647  0.724666  0  4.440573  0
O  O128  1  0.20955262  0.16509598  0.72247230  1  -1.167092  0  -0.381236  -0.646566  0  2.285816  0
O  O129  1  0.09737036  0.33427867  0.77783068  1  -1.191953  0  -0.383016  -0.648198  0  2.284761  0
O  O130  1  0.79044603  0.83490333  0.27752885  1  -1.167191  0  -0.381206  -0.64657  0  2.285979  0
O  O131  1  0.90263535  0.66571318  0.22217013  1  -1.192025  0  -0.383042  -0.648356  0  2.284679  0
O  O132  1  0.83100023  0.15693066  0.73162130  1  -1.185001  0  -0.385712  -0.641988  0  2.352111  0
O  O133  1  0.71940834  0.34385784  0.76800990  1  -1.171594  0  -0.38527  -0.641746  0  2.35135  0
O  O134  1  0.16900838  0.84307328  0.26837649  1  -1.185139  0  -0.385691  -0.641978  0  2.352104  0
O  O135  1  0.28059514  0.65614516  0.23198686  1  -1.171485  0  -0.3853  -0.641826  0  2.351247  0
O  O136  1  0.96689463  0.32053122  0.68082258  1  -1.20353  0  -0.422459  -0.731849  0  2.508639  0
O  O137  1  0.96781514  0.17940317  0.81919862  1  -1.199098  0  -0.422782  -0.73235  0  2.509397  0
O  O138  1  0.03311571  0.67947089  0.31918076  1  -1.203604  0  -0.42244  -0.731781  0  2.50873  0
O  O139  1  0.03218494  0.82059707  0.18080364  1  -1.199  0  -0.422803  -0.73237  0  2.509349  0
O  O140  1  0.86452885  0.51994813  0.69019786  1  -1.159456  0  -0.353985  -0.585822  0  2.169021  0
O  O141  1  0.07348691  0.97995028  0.80987677  1  -1.15603  0  -0.354035  -0.585559  0  2.166044  0
O  O142  1  0.13547730  0.48005303  0.30980229  1  -1.159319  0  -0.35396  -0.585836  0  2.168997  0
O  O143  1  0.92651051  0.02005180  0.19012009  1  -1.155991  0  -0.354014  -0.585506  0  2.166129  0
O  O144  1  0.27304387  0.94647610  0.67736544  1  -1.17849  0  -0.373196  -0.54967  0  2.435108  0
O  O145  1  0.89698523  0.55322946  0.82290509  1  -1.168876  0  -0.373246  -0.550197  0  2.436159  0
O  O146  1  0.72695179  0.05351952  0.32264131  1  -1.178996  0  -0.37314  -0.549544  0  2.435096  0
O  O147  1  0.10300682  0.44678658  0.17709223  1  -1.168859  0  -0.373391  -0.550319  0  2.436034  0
O  O148  1  0.03441147  0.94005305  0.68123477  1  -1.167907  0  -0.38835  -0.564828  0  2.380773  0
O  O149  1  0.65589564  0.55981009  0.81881966  1  -1.166437  0  -0.387991  -0.565008  0  2.380695  0
O  O150  1  0.96559036  0.05995366  0.31875861  1  -1.167833  0  -0.388266  -0.564769  0  2.380888  0
O  O151  1  0.34409672  0.44019293  0.18117934  1  -1.166241  0  -0.388022  -0.56503  0  2.380515  0
O  O152  1  0.95378362  0.17981473  0.59082917  1  -0.552457  0  -0.239704  -0.505514  0  2.004717  0
O  O153  1  0.72439674  0.32035304  0.90917013  1  -0.557082  0  -0.239407  -0.505756  0  2.00769  0
O  O154  1  0.04621152  0.82019854  0.40917164  1  -0.552785  0  -0.239599  -0.505401  0  2.004721  0
O  O155  1  0.27559610  0.67965093  0.09083162  1  -0.557178  0  -0.23939  -0.505736  0  2.007734  0
O  O156  1  0.06121723  0.22381091  0.48317756  1  -0.478234  0  -0.15439  -0.387333  0  1.962907  0
O  O157  1  0.76832751  0.27622479  0.01682058  1  -0.488576  0  -0.154486  -0.387331  0  1.963418  0
O  O158  1  0.93878118  0.77619305  0.51682233  1  -0.478215  0  -0.154322  -0.387291  0  1.962919  0
O  O159  1  0.23167385  0.72377264  0.98317796  1  -0.488709  0  -0.154443  -0.387298  0  1.963381  0
O  O160  1  0.16293595  0.15662004  0.57565505  1  -0.605589  0  -0.263602  -0.557881  0  2.037093  0
O  O161  1  0.89560592  0.34290818  0.92433529  1  -0.596757  0  -0.26337  -0.556941  0  2.041405  0
O  O162  1  0.83706523  0.84337367  0.42434415  1  -0.605599  0  -0.263647  -0.557907  0  2.037142  0
O  O163  1  0.10438636  0.65710322  0.07566478  1  -0.596742  0  -0.263311  -0.556852  0  2.04138  0
F  F164  1  0.42275108  0.03840740  0.80838535  1  -0.618236  0  -0.077718  -0.098765  0  1.435262  0
F  F165  1  0.26882601  0.46133112  0.69165612  1  -0.627155  0  -0.077199  -0.098222  0  1.434571  0
F  F166  1  0.57724851  0.96159383  0.19162582  1  -0.618206  0  -0.07774  -0.098779  0  1.435303  0
F  F167  1  0.73118478  0.53865786  0.30832788  1  -0.627208  0  -0.077212  -0.098174  0  1.434618  0
F  F168  1  0.65714836  0.03988045  0.81056471  1  -0.631292  0  -0.077435  -0.102095  0  1.425732  0
F  F169  1  0.50664310  0.46064449  0.68925959  1  -0.623031  0  -0.077482  -0.101634  0  1.425494  0
F  F170  1  0.34286029  0.96012347  0.18942858  1  -0.631328  0  -0.077456  -0.102085  0  1.425789  0
F  F171  1  0.49337043  0.53934452  0.31073048  1  -0.622945  0  -0.077435  -0.101671  0  1.425482  0
F  F172  1  0.19629516  0.40940166  0.58102562  1  -0.622338  0  -0.086379  -0.10697  0  1.380168  0
F  F173  1  0.18639770  0.09049942  0.91860244  1  -0.622356  0  -0.085782  -0.106671  0  1.383837  0
F  F174  1  0.80371924  0.59059764  0.41897406  1  -0.62227  0  -0.086321  -0.106879  0  1.380263  0
F  F175  1  0.81361502  0.90948309  0.08139286  1  -0.62214  0  -0.085795  -0.106701  0  1.383616  0
F  F176  1  0.26058680  0.47167304  0.43883278  1  -0.620693  0  -0.082195  -0.109947  0  1.385587  0
F  F177  1  0.17155508  0.02858258  0.06078076  1  -0.622107  0  -0.082809  -0.110894  0  1.383427  0
F  F178  1  0.73942457  0.52833093  0.56116907  1  -0.620598  0  -0.082299  -0.110057  0  1.385563  0
F  F179  1  0.82844073  0.97142510  0.93921990  1  -0.622098  0  -0.08283  -0.110896  0  1.383447  0
