# generated using pymatgen
data_Zr6H25C50Br5O33
_symmetry_space_group_name_H-M   'P 1'
_cell_length_a   14.77756976
_cell_length_b   14.79328980
_cell_length_c   14.81093691
_cell_angle_alpha   60.14257957
_cell_angle_beta   59.95243540
_cell_angle_gamma   60.07716561
_symmetry_Int_Tables_number   1
_chemical_formula_structural   Zr6H25C50Br5O33
_chemical_formula_sum   'Zr6 H25 C50 Br5 O33'
_cell_volume   2292.43700171
_cell_formula_units_Z   1
loop_
 _symmetry_equiv_pos_site_id
 _symmetry_equiv_pos_as_xyz
  1  'x, y, z'
loop_
 _atom_site_type_symbol
 _atom_site_label
 _atom_site_symmetry_multiplicity
 _atom_site_fract_x
 _atom_site_fract_y
 _atom_site_fract_z
 _atom_site_occupancy
 _atom_site_pbe_bader_charge
 _atom_site_pbe_bader_spin_density
 _atom_site_pbe_cm5_charge
 _atom_site_pbe_ddec_charge
 _atom_site_pbe_ddec_spin_density
 _atom_site_pbe_ddec_sum_bond_order
 _atom_site_pbe_magmom
Zr  Zr0  1  0.87737524  0.88312551  0.61717178  1  2.635852  0  1.628481  2.370903  0  2.759264  0
Zr  Zr1  1  0.12053763  0.11646364  0.38273252  1  2.632391  0  1.628131  2.376864  0  2.771227  0
Zr  Zr2  1  0.11539840  0.87898540  0.62131490  1  2.639347  0  1.626136  2.37654  0  2.746994  0
Zr  Zr3  1  0.88054480  0.12123168  0.37830675  1  2.637234  0  1.63004  2.371843  0  2.760136  0
Zr  Zr4  1  0.11836918  0.88212433  0.37845598  1  2.636551  0  1.626222  2.377393  0  2.751958  0
Zr  Zr5  1  0.87921395  0.12199532  0.61713104  1  2.636529  0  1.626505  2.377803  0  2.749634  0
H  H6  1  0.08938396  0.71907465  0.59349819  1  0.609588  0  0.331376  0.423584  0  0.857366  0
H  H7  1  0.09643235  0.09420869  0.21708776  1  0.62693  0  0.332587  0.42653  0  0.852409  0
H  H8  1  0.09305268  0.09176637  0.59585649  1  0.612464  0  0.332326  0.425068  0  0.854861  0
H  H9  1  0.71579521  0.09785849  0.59092369  1  0.604352  0  0.332149  0.424066  0  0.857435  0
H  H10  1  0.84411225  0.59204225  0.63150050  1  0.106496  0  0.110979  0.116696  0  0.993736  0
H  H11  1  0.15106465  0.58605164  0.35993761  1  0.100674  0  0.1044  0.119871  0  1.024671  0
H  H12  1  0.85532994  0.41944397  0.62627250  1  0.114734  0  0.109437  0.116269  0  1.004883  0
H  H13  1  0.58516711  0.85191472  0.92327805  1  0.091971  0  0.11067  0.116495  0  0.997611  0
H  H14  1  0.60519522  0.13195034  0.92280946  1  0.130881  0  0.102093  0.117476  0  1.03368  0
H  H15  1  0.41821835  0.85654759  0.09583258  1  0.102952  0  0.106905  0.11402  0  1.012286  0
H  H16  1  0.13826617  0.85124329  0.08343180  1  0.127584  0  0.112877  0.121131  0  0.985848  0
H  H17  1  0.84867353  0.14138528  0.09493381  1  0.135205  0  0.109079  0.12442  0  1.009889  0
H  H18  1  0.12825808  0.85780752  0.91579156  1  0.084075  0  0.110287  0.116173  0  1.00402  0
H  H19  1  0.58978825  0.43217911  0.63200617  1  0.084478  0  0.112365  0.120203  0  0.986741  0
H  H20  1  0.59506179  0.41571695  0.34796212  1  0.125075  0  0.108708  0.123344  0  1.012983  0
H  H21  1  0.41837160  0.59971955  0.62629290  1  0.145548  0  0.10742  0.114083  0  1.01371  0
H  H22  1  0.13314595  0.59530620  0.91869133  1  0.111779  0  0.11264  0.139625  0  0.983717  0
H  H23  1  0.73413096  0.62604000  0.96560651  1  0.040529  0  0.093841  0.101956  0  0.993213  0
H  H24  1  0.82260059  0.54145374  0.87946636  1  0.032806  0  0.093822  0.101577  0  0.989757  0
H  H25  1  0.82850267  0.37135214  0.04818509  1  0.039372  0  0.095169  0.105377  0  0.990837  0
H  H26  1  0.73994292  0.45580799  0.13432869  1  0.055722  0  0.094748  0.105434  0  0.996028  0
H  H27  1  0.58305202  0.13787070  0.34673735  1  0.127619  0  0.112142  0.120762  0  0.98514  0
H  H28  1  0.59734398  0.85145632  0.63838191  1  0.10045  0  0.10955  0.126404  0  1.005152  0
H  H29  1  0.41383870  0.12544759  0.35869081  1  0.139779  0  0.100104  0.103128  0  1.04622  0
H  H30  1  0.14640030  0.35787341  0.15447504  1  0.634915  0  0.301297  0.346946  0  0.980736  0
C  C31  1  0.99310269  0.70281777  0.49420445  1  1.563069  0  0.237557  0.639134  0  4.094895  0
C  C32  1  0.31076561  0.99723681  0.20265045  1  1.572767  0  0.235387  0.649513  0  4.091072  0
C  C33  1  0.00356937  0.30514336  0.49377666  1  1.563807  0  0.235359  0.648766  0  4.093007  0
C  C34  1  0.69896114  0.99763309  0.80569095  1  1.561191  0  0.239901  0.642571  0  4.088406  0
C  C35  1  0.99018986  0.70242101  0.80626725  1  1.534266  0  0.239206  0.649414  0  4.096468  0
C  C36  1  0.69900003  0.99992851  0.49165873  1  1.554134  0  0.238972  0.641352  0  4.094944  0
C  C37  1  0.99602961  0.30855964  0.19852947  1  1.506606  0  0.231558  0.653116  0  4.097987  0
C  C38  1  0.30643635  0.98714114  0.50381327  1  1.579036  0  0.236191  0.649764  0  4.087068  0
C  C39  1  0.30485047  0.69998031  0.49266052  1  1.572323  0  0.236185  0.650355  0  4.088819  0
C  C40  1  0.98855903  0.99953691  0.80828010  1  1.582418  0  0.235169  0.648052  0  4.0961  0
C  C41  1  0.70182184  0.31145372  0.49271774  1  1.561063  0  0.239856  0.642232  0  4.09244  0
C  C42  1  0.99754206  0.99725653  0.19749257  1  1.58221  0  0.239237  0.641033  0  4.094923  0
C  C43  1  0.00774498  0.40588139  0.49058740  1  -0.010341  0  -0.014812  -0.082567  0  3.906924  0
C  C44  1  0.99635718  0.60007433  0.49435946  1  -0.049602  0  -0.008958  -0.010488  0  3.953336  0
C  C45  1  0.09261393  0.45302849  0.41591170  1  -0.089465  0  -0.002197  0.107949  0  3.901358  0
C  C46  1  0.91282702  0.55303019  0.57102786  1  0.005355  0  -0.080881  -0.095605  0  3.971096  0
C  C47  1  0.08589505  0.54955537  0.41773460  1  0.089167  0  -0.087738  -0.15119  0  3.959956  0
C  C48  1  0.91920566  0.45771323  0.56805829  1  -0.050341  0  -0.076735  -0.07761  0  3.964094  0
C  C49  1  0.41561155  0.99752508  0.10517834  1  -0.004505  0  -0.014835  -0.083136  0  3.908015  0
C  C50  1  0.60341822  0.99345932  0.91182286  1  -0.019748  0  -0.008897  -0.009853  0  3.950383  0
C  C51  1  0.47065595  0.07455797  0.05640647  1  -0.136724  0  -0.001769  0.107875  0  3.899407  0
C  C52  1  0.55246493  0.91387199  0.96110370  1  -0.0363  0  -0.081704  -0.098208  0  3.972547  0
C  C53  1  0.56337993  0.07209320  0.96073424  1  0.055419  0  -0.088072  -0.149716  0  3.958556  0
C  C54  1  0.46020232  0.91668391  0.05625801  1  0.018221  0  -0.077375  -0.076416  0  3.963001  0
C  C55  1  0.98414450  0.00240985  0.91029571  1  0.019353  0  -0.013795  -0.082814  0  3.905515  0
C  C56  1  0.99390471  0.99655418  0.09871811  1  -0.027133  0  -0.009494  -0.011816  0  3.956758  0
C  C57  1  0.90464775  0.08289924  0.96208297  1  -0.069276  0  -0.002441  0.107649  0  3.905324  0
C  C58  1  0.07318158  0.91560702  0.04899583  1  -0.040489  0  -0.079522  -0.095917  0  3.965031  0
C  C59  1  0.90996865  0.07931706  0.05521112  1  -0.019396  0  -0.088155  -0.151766  0  3.963609  0
C  C60  1  0.06738602  0.91932297  0.95646970  1  -0.029267  0  -0.074626  -0.071828  0  3.955718  0
C  C61  1  0.40912615  0.60185440  0.48564527  1  -0.004625  0  -0.01366  -0.08146  0  3.903267  0
C  C62  1  0.60230072  0.41401265  0.49005976  1  -0.002189  0  -0.009289  -0.013744  0  3.958126  0
C  C63  1  0.46070209  0.54935935  0.40596718  1  -0.117831  0  -0.002816  0.107678  0  3.903474  0
C  C64  1  0.55328727  0.46569139  0.56893957  1  -0.027786  0  -0.079455  -0.093328  0  3.964052  0
C  C65  1  0.55614148  0.45669259  0.40868205  1  0.010221  0  -0.087591  -0.15122  0  3.964476  0
C  C66  1  0.45837619  0.55807728  0.56581286  1  -0.017271  0  -0.075772  -0.075011  0  3.957034  0
C  C67  1  0.98855818  0.60390610  0.90776035  1  0.005958  0  -0.012434  -0.061333  0  4.01018  0
C  C68  1  0.99327579  0.40929483  0.10132938  1  -0.000999  0  -0.034865  -0.235034  0  3.973223  0
C  C69  1  0.90952573  0.55198353  0.95851756  1  0.000634  0  -0.01855  0.028234  0  3.90949  0
C  C70  1  0.07364242  0.46272121  0.04997148  1  0.54677  0  0.094336  0.321817  0  4.043515  0
C  C71  1  0.91273254  0.45798164  0.05187544  1  -0.044624  0  -0.004811  0.087281  0  3.907843  0
C  C72  1  0.06996750  0.55765180  0.95557016  1  -0.02658  0  -0.096801  -0.216429  0  3.915972  0
C  C73  1  0.80870474  0.55372255  0.95337249  1  0.0008  0  -0.152343  -0.19279  0  3.891064  0
C  C74  1  0.81230550  0.44669421  0.05953369  1  0.000555  0  -0.151106  -0.196754  0  3.874853  0
C  C75  1  0.40946352  0.98316876  0.50441634  1  -0.005347  0  -0.014372  -0.079467  0  3.89936  0
C  C76  1  0.59982539  0.99511725  0.49260738  1  0.047262  0  -0.009106  -0.014019  0  3.95735  0
C  C77  1  0.46257168  0.90492465  0.58359007  1  -0.102387  0  -0.003828  0.106455  0  3.910704  0
C  C78  1  0.54902353  0.07291399  0.41265011  1  -0.080033  0  -0.079223  -0.091951  0  3.962024  0
C  C79  1  0.55665719  0.91133236  0.57714102  1  0.036115  0  -0.088137  -0.150788  0  3.962073  0
C  C80  1  0.45543703  0.06605876  0.41938121  1  -0.049902  0  -0.077584  -0.076133  0  3.96488  0
Br  Br81  1  0.22349386  0.39448594  0.30863717  1  -0.034987  0  0.037228  -0.042292  0  1.470637  0
Br  Br82  1  0.42886650  0.18867157  0.10937944  1  -0.03053  0  0.038234  -0.042107  0  1.472595  0
Br  Br83  1  0.78416675  0.20274060  0.91583306  1  -0.043148  0  0.035807  -0.056647  0  1.445186  0
Br  Br84  1  0.41010207  0.59260116  0.28971110  1  -0.040905  0  0.036281  -0.056261  0  1.438265  0
Br  Br85  1  0.41577107  0.78561755  0.70537469  1  -0.043743  0  0.02938  -0.059634  0  1.406738  0
O  O86  1  0.91592558  0.74105491  0.57168113  1  -1.171359  0  -0.35063  -0.61317  0  2.27335  0
O  O87  1  0.26630505  0.07411357  0.24330603  1  -1.185988  0  -0.366564  -0.627127  0  2.392147  0
O  O88  1  0.07936847  0.26167346  0.41963801  1  -1.185922  0  -0.364926  -0.626458  0  2.388227  0
O  O89  1  0.73449060  0.92335088  0.76433105  1  -1.17893  0  -0.353124  -0.616177  0  2.276184  0
O  O90  1  0.06853129  0.74079585  0.76550293  1  -1.184087  0  -0.364043  -0.625305  0  2.295445  0
O  O91  1  0.73609050  0.07845469  0.41609021  1  -1.17598  0  -0.349315  -0.612286  0  2.258041  0
O  O92  1  0.92165410  0.26596443  0.23758254  1  -1.180654  0  -0.355133  -0.604769  0  2.283222  0
O  O93  1  0.26224570  0.91391107  0.58038450  1  -1.185042  0  -0.362773  -0.622563  0  2.380724  0
O  O94  1  0.26206552  0.74173684  0.41824672  1  -1.177916  0  -0.364867  -0.623651  0  2.393556  0
O  O95  1  0.91601943  0.07683659  0.76378210  1  -1.183216  0  -0.36288  -0.622013  0  2.39352  0
O  O96  1  0.73946007  0.27181224  0.57075979  1  -1.176364  0  -0.353883  -0.617464  0  2.267395  0
O  O97  1  0.07688915  0.92234205  0.23366545  1  -1.17999  0  -0.35232  -0.615809  0  2.268133  0
O  O98  1  0.06589147  0.92119037  0.77151614  1  -1.176024  0  -0.345824  -0.610842  0  2.268499  0
O  O99  1  0.74026115  0.26995549  0.41781174  1  -1.175731  0  -0.35224  -0.61337  0  2.287809  0
O  O100  1  0.92150190  0.07404865  0.23731157  1  -1.180739  0  -0.353436  -0.615346  0  2.29158  0
O  O101  1  0.26507643  0.73433180  0.57315201  1  -1.177923  0  -0.344757  -0.609576  0  2.265349  0
O  O102  1  0.91462682  0.74106506  0.76548098  1  -1.172646  0  -0.349517  -0.609696  0  2.263108  0
O  O103  1  0.26864141  0.06541429  0.42695639  1  -1.182401  0  -0.349176  -0.612139  0  2.303032  0
O  O104  1  0.07446885  0.26788292  0.23794044  1  -1.180088  0  -0.344305  -0.619561  0  2.299721  0
O  O105  1  0.73801510  0.92489544  0.56897976  1  -1.178487  0  -0.357368  -0.616285  0  2.30446  0
O  O106  1  0.73625863  0.07664733  0.76334134  1  -1.183307  0  -0.35335  -0.612272  0  2.292098  0
O  O107  1  0.06922073  0.74334358  0.41739230  1  -1.184952  0  -0.354006  -0.613378  0  2.294613  0
O  O108  1  0.27100465  0.92207398  0.23703047  1  -1.176735  0  -0.345934  -0.612116  0  2.270081  0
O  O109  1  0.92453562  0.26903422  0.57065230  1  -1.181378  0  -0.34717  -0.614452  0  2.272111  0
O  O110  1  0.79613800  0.07089181  0.56422287  1  -1.231346  0  -0.69392  -1.070377  0  2.35885  0
O  O111  1  0.06601838  0.06573406  0.56865906  1  -1.235838  0  -0.695307  -1.065417  0  2.366067  0
O  O112  1  0.06838457  0.06756166  0.29717462  1  -1.256934  0  -0.696036  -1.072839  0  2.360866  0
O  O113  1  0.06341055  0.79917430  0.56617968  1  -1.237298  0  -0.692974  -1.067472  0  2.362794  0
O  O114  1  0.14736205  0.94887059  0.45163849  1  -1.198279  0  -0.792277  -1.144956  0  2.131015  0
O  O115  1  0.94907264  0.95260176  0.44807547  1  -1.200318  0  -0.791165  -1.15017  0  2.12627  0
O  O116  1  0.95079419  0.14938480  0.44904785  1  -1.200829  0  -0.793476  -1.149813  0  2.132294  0
O  O117  1  0.94689512  0.95246162  0.64728186  1  -1.198485  0  -0.790797  -1.148403  0  2.131593  0
O  O118  1  0.15604144  0.42489966  0.08859337  1  -1.141945  0  -0.361088  -0.461617  0  2.316408  0
