# generated using pymatgen
data_ZnH13C18N2(O3F)2
_symmetry_space_group_name_H-M   'P 1'
_cell_length_a   7.63303692
_cell_length_b   8.42171505
_cell_length_c   15.34040719
_cell_angle_alpha   96.27905505
_cell_angle_beta   95.25314448
_cell_angle_gamma   107.52991694
_symmetry_Int_Tables_number   1
_chemical_formula_structural   ZnH13C18N2(O3F)2
_chemical_formula_sum   'Zn2 H26 C36 N4 O12 F4'
_cell_volume   926.59600895
_cell_formula_units_Z   2
loop_
 _symmetry_equiv_pos_site_id
 _symmetry_equiv_pos_as_xyz
  1  'x, y, z'
loop_
 _atom_site_type_symbol
 _atom_site_label
 _atom_site_symmetry_multiplicity
 _atom_site_fract_x
 _atom_site_fract_y
 _atom_site_fract_z
 _atom_site_occupancy
 _atom_site_hle17_bader_spin_density
 _atom_site_hle17_ddec_charge
 _atom_site_hle17_ddec_spin_density
 _atom_site_hle17_ddec_sum_bond_order
 _atom_site_hle17_magmom
 _atom_site_hse06_10hf_bader_spin_density
 _atom_site_hse06_10hf_ddec_charge
 _atom_site_hse06_10hf_ddec_spin_density
 _atom_site_hse06_10hf_ddec_sum_bond_order
 _atom_site_hse06_10hf_magmom
 _atom_site_hse06_bader_spin_density
 _atom_site_hse06_ddec_charge
 _atom_site_hse06_ddec_spin_density
 _atom_site_hse06_ddec_sum_bond_order
 _atom_site_hse06_magmom
 _atom_site_pbe_bader_spin_density
 _atom_site_pbe_cm5_charge
 _atom_site_pbe_ddec_charge
 _atom_site_pbe_ddec_spin_density
 _atom_site_pbe_ddec_sum_bond_order
 _atom_site_pbe_magmom
Zn  Zn0  1  0.91713086  0.68728950  0.67158641  1  0  1.096937  0  1.806127  0  0  0.91414  0  2.29391  0  0  0.962577  0  2.230727  0  0  0.69611  0.880188  0  2.337589  0
Zn  Zn1  1  0.08285913  0.31270341  0.32840569  1  0  1.096912  0  1.806248  0  0  0.914111  0  2.293995  0  0  0.962547  0  2.230815  0  0  0.696149  0.880158  0  2.337679  0
H  H2  1  0.56262418  0.66525873  0.73135998  1  0  0.096095  0  0.94033  0  0  0.103225  0  1.003278  0  0  0.106538  0  0.999994  0  0  0.122064  0.100736  0  1.005836  0
H  H3  1  0.43736292  0.33474154  0.26863768  1  0  0.096072  0  0.940296  0  0  0.103209  0  1.003227  0  0  0.106523  0  0.999943  0  0  0.122044  0.100721  0  1.005788  0
H  H4  1  0.36951196  0.84756382  0.76569186  1  0  0.119039  0  0.969439  0  0  0.125489  0  1.034303  0  0  0.129249  0  1.032404  0  0  0.113244  0.122748  0  1.035871  0
H  H5  1  0.63048934  0.15244381  0.23431228  1  0  0.119145  0  0.969214  0  0  0.125512  0  1.034173  0  0  0.129271  0  1.032274  0  0  0.113238  0.12277  0  1.035734  0
H  H6  1  0.80790213  0.26528521  0.70244142  1  0  0.122449  0  0.951899  0  0  0.130621  0  1.013987  0  0  0.13478  0  1.011232  0  0  0.115998  0.127581  0  1.016111  0
H  H7  1  0.19208546  0.73470786  0.29754601  1  0  0.122461  0  0.952008  0  0  0.13056  0  1.014171  0  0  0.134718  0  1.011413  0  0  0.11597  0.127517  0  1.016304  0
H  H8  1  0.98636913  0.06218182  0.67179948  1  0  0.092041  0  0.91917  0  0  0.10334  0  0.974878  0  0  0.105919  0  0.973047  0  0  0.125153  0.101384  0  0.976342  0
H  H9  1  0.01362449  0.93781462  0.32819958  1  0  0.09206  0  0.919195  0  0  0.103348  0  0.974916  0  0  0.10594  0  0.973071  0  0  0.125147  0.101391  0  0.976379  0
H  H10  1  0.12526240  0.18599372  0.87465990  1  0  0.096588  0  0.902118  0  0  0.110468  0  0.960132  0  0  0.111372  0  0.959749  0  0  0.119153  0.109767  0  0.960468  0
H  H11  1  0.87474607  0.81400109  0.12535029  1  0  0.096614  0  0.902121  0  0  0.110489  0  0.960123  0  0  0.111395  0  0.959737  0  0  0.119167  0.10979  0  0.960458  0
H  H12  1  0.21049816  0.33488574  0.80203980  1  0  0.093764  0  0.91479  0  0  0.104504  0  0.97696  0  0  0.106185  0  0.974989  0  0  0.115408  0.103206  0  0.978531  0
H  H13  1  0.78949938  0.66511919  0.19796917  1  0  0.093807  0  0.914783  0  0  0.104521  0  0.976952  0  0  0.106198  0  0.974989  0  0  0.115414  0.103222  0  0.978524  0
H  H14  1  0.53548814  0.72275494  0.52332696  1  0  0.104445  0  0.955584  0  0  0.115108  0  1.014566  0  0  0.118183  0  1.012934  0  0  0.107486  0.112873  0  1.015829  0
H  H15  1  0.46451509  0.27725693  0.47666452  1  0  0.10451  0  0.955427  0  0  0.115172  0  1.014422  0  0  0.118246  0  1.01279  0  0  0.107512  0.112938  0  1.015687  0
H  H16  1  0.21297482  0.06322782  0.53291590  1  0  0.103903  0  0.933956  0  0  0.115775  0  0.98972  0  0  0.119323  0  0.987485  0  0  0.106608  0.11317  0  0.991462  0
H  H17  1  0.78702867  0.93678046  0.46707014  1  0  0.103857  0  0.933951  0  0  0.115717  0  0.989733  0  0  0.119266  0  0.987494  0  0  0.106592  0.113108  0  0.991472  0
H  H18  1  0.81602728  0.36278719  0.85511394  1  0  0.091529  0  0.989957  0  0  0.09921  0  1.057572  0  0  0.101671  0  1.057125  0  0  0.096378  0.097428  0  1.057958  0
H  H19  1  0.18397327  0.63719440  0.14487799  1  0  0.091567  0  0.989868  0  0  0.099205  0  1.05753  0  0  0.101684  0  1.057066  0  0  0.096406  0.097425  0  1.057919  0
H  H20  1  0.21245434  0.79426599  0.01351545  1  0  0.107477  0  0.938075  0  0  0.115137  0  0.999101  0  0  0.119671  0  0.995619  0  0  0.102069  0.111829  0  1.001729  0
H  H21  1  0.78753558  0.20571930  0.98647810  1  0  0.107471  0  0.93802  0  0  0.115101  0  0.999103  0  0  0.119636  0  0.995624  0  0  0.102057  0.111788  0  1.001733  0
H  H22  1  0.30164093  0.03042451  0.82916507  1  0  0.311939  0  0.919614  0  0  0.291333  0  0.988879  0  0  0.299585  0  0.981955  0  0  0.307255  0.285536  0  0.993766  0
H  H23  1  0.69833940  0.96956711  0.17082708  1  0  0.31184  0  0.91985  0  0  0.291264  0  0.989065  0  0  0.299517  0  0.982143  0  0  0.307242  0.285471  0  0.993944  0
H  H24  1  0.63566085  0.42061979  0.63030300  1  0  0.433292  0  0.850198  0  0  0.401203  0  0.921095  0  0  0.411682  0  0.905878  0  0  0.301397  0.393749  0  0.931916  0
H  H25  1  0.36431994  0.57937027  0.36969755  1  0  0.433394  0  0.850094  0  0  0.401291  0  0.920967  0  0  0.411763  0  0.905761  0  0  0.301445  0.393838  0  0.931788  0
H  H26  1  0.73540585  0.45546002  0.53886479  1  0  0.432112  0  0.874416  0  0  0.39729  0  0.943623  0  0  0.409225  0  0.926599  0  0  0.288625  0.388891  0  0.955571  0
H  H27  1  0.26459022  0.54452117  0.46113795  1  0  0.432141  0  0.874371  0  0  0.397293  0  0.943625  0  0  0.409229  0  0.926602  0  0  0.288585  0.388896  0  0.95557  0
C  C28  1  0.61245139  0.79909290  0.72659052  1  0  0.140208  0  3.672227  0  0  0.106374  0  3.926714  0  0  0.113326  0  3.943163  0  0  0.054098  0.101781  0  3.915649  0
C  C29  1  0.38753668  0.20090240  0.27340491  1  0  0.140143  0  3.672426  0  0  0.106278  0  3.926837  0  0  0.113231  0  3.943283  0  0  0.054041  0.101681  0  3.915775  0
C  C30  1  0.50518369  0.90230849  0.74533183  1  0  -0.119448  0  3.685527  0  0  -0.14466  0  3.938032  0  0  -0.149652  0  3.957405  0  0  -0.073818  -0.141507  0  3.925243  0
C  C31  1  0.49480774  0.09768921  0.25466719  1  0  -0.11961  0  3.685991  0  0  -0.144743  0  3.938428  0  0  -0.149747  0  3.957832  0  0  -0.073823  -0.14158  0  3.925612  0
C  C32  1  0.57347950  0.07255208  0.73606474  1  0  0.007094  0  3.721812  0  0  0.025239  0  3.955327  0  0  0.023934  0  3.976343  0  0  0.013834  0.026065  0  3.941272  0
C  C33  1  0.42651696  0.92746343  0.26393053  1  0  0.00697  0  3.721999  0  0  0.025177  0  3.955416  0  0  0.023869  0  3.976434  0  0  0.013773  0.026003  0  3.941353  0
C  C34  1  0.74897187  0.13276797  0.70904574  1  0  -0.124262  0  3.689671  0  0  -0.145533  0  3.936308  0  0  -0.151469  0  3.957407  0  0  -0.070537  -0.14168  0  3.922308  0
C  C35  1  0.25101113  0.86722748  0.29094551  1  0  -0.124067  0  3.689689  0  0  -0.145308  0  3.936354  0  0  -0.15124  0  3.957464  0  0  -0.070399  -0.141457  0  3.922345  0
C  C36  1  0.84905138  0.02182367  0.69287545  1  0  0.138696  0  3.678742  0  0  0.108389  0  3.930356  0  0  0.114673  0  3.948762  0  0  0.056095  0.104301  0  3.917869  0
C  C37  1  0.15094431  0.97817427  0.30711731  1  0  0.138482  0  3.678887  0  0  0.108157  0  3.930481  0  0  0.114428  0  3.94889  0  0  0.055988  0.104073  0  3.917992  0
C  C38  1  0.46984519  0.19528686  0.75686576  1  0  0.534305  0  3.838589  0  0  0.486298  0  4.128203  0  0  0.515159  0  4.127471  0  0  0.241788  0.466982  0  4.127921  0
C  C39  1  0.53014706  0.80469535  0.24314336  1  0  0.534757  0  3.83895  0  0  0.4867  0  4.128615  0  0  0.515567  0  4.127878  0  0  0.241974  0.467389  0  4.128337  0
C  C40  1  0.25063098  0.26346457  0.85160831  1  0  0.047057  0  3.650803  0  0  -0.01808  0  3.917131  0  0  -0.011525  0  3.925497  0  0  -0.047134  -0.022439  0  3.911507  0
C  C41  1  0.74937906  0.73654271  0.14840606  1  0  0.046979  0  3.650807  0  0  -0.018108  0  3.917048  0  0  -0.011555  0  3.925414  0  0  -0.047204  -0.022461  0  3.911428  0
C  C42  1  0.37610056  0.38494571  0.92865191  1  0  -0.089674  0  3.760909  0  0  -0.09705  0  4.035448  0  0  -0.100611  0  4.057971  0  0  -0.02137  -0.094691  0  4.020462  0
C  C43  1  0.62389613  0.61504914  0.07135634  1  0  -0.089762  0  3.760931  0  0  -0.09712  0  4.035365  0  0  -0.100672  0  4.05787  0  0  -0.021396  -0.094764  0  4.020388  0
C  C44  1  0.44983617  0.55623936  0.92416173  1  0  0.167825  0  3.800642  0  0  0.134863  0  4.104911  0  0  0.142402  0  4.116409  0  0  0.090973  0.129428  0  4.097493  0
C  C45  1  0.55016149  0.44376658  0.07585384  1  0  0.167581  0  3.801085  0  0  0.134662  0  4.105305  0  0  0.142202  0  4.116797  0  0  0.09093  0.12922  0  4.0979  0
C  C46  1  0.42912461  0.33159038  0.00692946  1  0  0.174113  0  3.785608  0  0  0.139147  0  4.090653  0  0  0.146766  0  4.100906  0  0  0.089816  0.133683  0  4.084058  0
C  C47  1  0.57087925  0.66841720  0.99307611  1  0  0.174222  0  3.785711  0  0  0.139293  0  4.090713  0  0  0.146911  0  4.100963  0  0  0.089937  0.133832  0  4.084117  0
C  C48  1  0.20928078  0.75330897  0.56461278  1  0  0.649675  0  3.922978  0  0  0.598957  0  4.215253  0  0  0.633182  0  4.207913  0  0  0.209779  0.575727  0  4.219469  0
C  C49  1  0.79074652  0.24669372  0.43538983  1  0  0.649837  0  3.922368  0  0  0.599169  0  4.214631  0  0  0.633398  0  4.207286  0  0  0.209922  0.575944  0  4.218842  0
C  C50  1  0.35838279  0.88008590  0.52988410  1  0  -0.074551  0  3.788413  0  0  -0.051885  0  4.021129  0  0  -0.059442  0  4.045719  0  0  -0.021583  -0.046896  0  4.004493  0
C  C51  1  0.64162025  0.11992583  0.47011127  1  0  -0.074675  0  3.788331  0  0  -0.052143  0  4.021225  0  0  -0.059703  0  4.045817  0  0  -0.021676  -0.04715  0  4.004595  0
C  C52  1  0.51968694  0.84338009  0.51170751  1  0  -0.088999  0  3.758865  0  0  -0.109983  0  4.006398  0  0  -0.111639  0  4.028832  0  0  -0.088174  -0.108742  0  3.99115  0
C  C53  1  0.48031041  0.15662661  0.48828722  1  0  -0.089009  0  3.758683  0  0  -0.109959  0  4.006252  0  0  -0.111615  0  4.028693  0  0  -0.088215  -0.108727  0  3.991011  0
C  C54  1  0.33934692  0.03702051  0.51838300  1  0  -0.066696  0  3.736513  0  0  -0.090538  0  3.988443  0  0  -0.091439  0  4.008704  0  0  -0.085234  -0.089825  0  3.974683  0
C  C55  1  0.66065141  0.96298500  0.48160975  1  0  -0.066579  0  3.736642  0  0  -0.09036  0  3.988565  0  0  -0.091258  0  4.008831  0  0  -0.085245  -0.089653  0  3.974804  0
C  C56  1  0.03701876  0.67468297  0.84636981  1  0  0.644903  0  3.928328  0  0  0.594624  0  4.225065  0  0  0.629351  0  4.215935  0  0  0.201705  0.571029  0  4.230494  0
C  C57  1  0.96299062  0.32533237  0.15363071  1  0  0.645163  0  3.927921  0  0  0.594886  0  4.224592  0  0  0.629617  0  4.21546  0  0  0.201879  0.571285  0  4.230027  0
C  C58  1  0.01634449  0.58617759  0.92646145  1  0  -0.056459  0  3.747529  0  0  -0.033936  0  3.976815  0  0  -0.040758  0  3.999626  0  0  -0.019692  -0.02942  0  3.961371  0
C  C59  1  0.98364937  0.41381148  0.07353256  1  0  -0.056682  0  3.747981  0  0  -0.034037  0  3.977088  0  0  -0.040866  0  3.99991  0  0  -0.019755  -0.029523  0  3.961642  0
C  C60  1  0.89635828  0.42078594  0.91903526  1  0  -0.080131  0  3.743366  0  0  -0.101424  0  3.99275  0  0  -0.103142  0  4.015795  0  0  -0.09087  -0.100144  0  3.977066  0
C  C61  1  0.10363512  0.57920941  0.08095915  1  0  -0.08013  0  3.743524  0  0  -0.10141  0  3.992859  0  0  -0.103146  0  4.015899  0  0  -0.090879  -0.100127  0  3.97718  0
C  C62  1  0.11968814  0.66563763  0.00831287  1  0  -0.084436  0  3.7482  0  0  -0.106046  0  3.997647  0  0  -0.107551  0  4.017839  0  0  -0.088966  -0.10492  0  3.983936  0
C  C63  1  0.88030117  0.33435383  0.99168432  1  0  -0.084416  0  3.748163  0  0  -0.106041  0  3.997585  0  0  -0.107548  0  4.017778  0  0  -0.088985  -0.104907  0  3.983862  0
N  N64  1  0.78164635  0.85785842  0.70142429  1  0  -0.336255  0  3.314233  0  0  -0.253808  0  3.593312  0  0  -0.272419  0  3.607654  0  0  -0.329632  -0.241207  0  3.583494  0
N  N65  1  0.21834623  0.14214201  0.29856911  1  0  -0.336193  0  3.314307  0  0  -0.253639  0  3.593275  0  0  -0.27225  0  3.607623  0  0  -0.329619  -0.241043  0  3.583464  0
N  N66  1  0.34078672  0.14908481  0.81180779  1  0  -0.421255  0  3.287703  0  0  -0.364081  0  3.539305  0  0  -0.387061  0  3.548017  0  0  -0.410759  -0.348323  0  3.532906  0
N  N67  1  0.65922848  0.85092431  0.18819068  1  0  -0.421377  0  3.287478  0  0  -0.364219  0  3.539105  0  0  -0.387212  0  3.547825  0  0  -0.410857  -0.34847  0  3.532712  0
O  O68  1  0.50951185  0.33319524  0.72795459  1  0  -0.557154  0  1.91087  0  0  -0.512479  0  2.129081  0  0  -0.533211  0  2.12128  0  0  -0.296012  -0.49808  0  2.134041  0
O  O69  1  0.49050373  0.66683494  0.27205443  1  0  -0.557094  0  1.912136  0  0  -0.512454  0  2.130416  0  0  -0.533175  0  2.122606  0  0  -0.295935  -0.498061  0  2.135381  0
O  O70  1  0.10517254  0.81724933  0.60956976  1  0  -0.660613  0  2.085288  0  0  -0.588885  0  2.373769  0  0  -0.61835  0  2.355867  0  0  -0.332004  -0.568175  0  2.385277  0
O  O71  1  0.89484390  0.18274083  0.39043012  1  0  -0.660542  0  2.085206  0  0  -0.588874  0  2.373763  0  0  -0.618343  0  2.355867  0  0  -0.331966  -0.568156  0  2.385243  0
O  O72  1  0.19410262  0.59965923  0.55093428  1  0  -0.596885  0  1.943002  0  0  -0.543879  0  2.149824  0  0  -0.566724  0  2.138361  0  0  -0.311218  -0.528077  0  2.157355  0
O  O73  1  0.80594045  0.40035951  0.44907873  1  0  -0.597056  0  1.942733  0  0  -0.544045  0  2.149508  0  0  -0.566891  0  2.138042  0  0  -0.311323  -0.528247  0  2.157036  0
O  O74  1  0.95765211  0.57774603  0.77239662  1  0  -0.670483  0  2.068806  0  0  -0.594676  0  2.35023  0  0  -0.623998  0  2.33189  0  0  -0.339343  -0.57409  0  2.362109  0
O  O75  1  0.04238533  0.42226207  0.22759647  1  0  -0.670488  0  2.068966  0  0  -0.594715  0  2.350442  0  0  -0.624027  0  2.332076  0  0  -0.339444  -0.574128  0  2.362324  0
O  O76  1  0.12453837  0.82836009  0.85303570  1  0  -0.626398  0  1.942314  0  0  -0.587256  0  2.174858  0  0  -0.608288  0  2.162528  0  0  -0.327587  -0.572561  0  2.182872  0
O  O77  1  0.87546834  0.17163723  0.14697456  1  0  -0.626574  0  1.941733  0  0  -0.58744  0  2.174256  0  0  -0.608469  0  2.161907  0  0  -0.32768  -0.572746  0  2.182285  0
O  O78  1  0.70550694  0.50698801  0.59684312  1  0  -0.837458  0  1.924203  0  0  -0.764605  0  2.149791  0  0  -0.787559  0  2.110001  0  0  -0.567262  -0.748443  0  2.177465  0
O  O79  1  0.29448008  0.49299329  0.40315588  1  0  -0.837658  0  1.924135  0  0  -0.764769  0  2.149781  0  0  -0.787713  0  2.109985  0  0  -0.567266  -0.74861  0  2.177459  0
F  F80  1  0.39929437  0.61745523  0.85120552  1  0  -0.150873  0  1.293618  0  0  -0.102714  0  1.476237  0  0  -0.113008  0  1.468012  0  0  -0.065796  -0.09523  0  1.481853  0
F  F81  1  0.60068754  0.38255452  0.14880879  1  0  -0.15057  0  1.293871  0  0  -0.10241  0  1.476455  0  0  -0.112705  0  1.468233  0  0  -0.065612  -0.094923  0  1.48207  0
F  F82  1  0.36415081  0.16634452  0.01620486  1  0  -0.163492  0  1.203822  0  0  -0.109283  0  1.35557  0  0  -0.116977  0  1.345988  0  0  -0.088106  -0.103694  0  1.362198  0
F  F83  1  0.63587429  0.83365185  0.98379786  1  0  -0.163466  0  1.203937  0  0  -0.109256  0  1.355662  0  0  -0.116951  0  1.346082  0  0  -0.088067  -0.103667  0  1.36229  0
