# generated using pymatgen
data_CuMoAsH12C12N2O6F
_symmetry_space_group_name_H-M   'P 1'
_cell_length_a   8.43039663
_cell_length_b   10.58294204
_cell_length_c   17.25431868
_cell_angle_alpha   90.00002270
_cell_angle_beta   103.04256864
_cell_angle_gamma   89.99976775
_symmetry_Int_Tables_number   1
_chemical_formula_structural   CuMoAsH12C12N2O6F
_chemical_formula_sum   'Cu4 Mo4 As4 H48 C48 N8 O24 F4'
_cell_volume   1499.69020160
_cell_formula_units_Z   4
loop_
 _symmetry_equiv_pos_site_id
 _symmetry_equiv_pos_as_xyz
  1  'x, y, z'
loop_
 _atom_site_type_symbol
 _atom_site_label
 _atom_site_symmetry_multiplicity
 _atom_site_fract_x
 _atom_site_fract_y
 _atom_site_fract_z
 _atom_site_occupancy
 _atom_site_pbe_bader_charge
 _atom_site_pbe_bader_spin_density
 _atom_site_pbe_cm5_charge
 _atom_site_pbe_ddec_charge
 _atom_site_pbe_ddec_spin_density
 _atom_site_pbe_ddec_sum_bond_order
 _atom_site_pbe_magmom
Cu  Cu0  1  0.89787895  0.76235477  0.50809825  1  1.066249  -0.544451  0.755884  0.835385  -0.719809  2.28141  -0.544
Cu  Cu1  1  0.10211904  0.26235820  0.99189988  1  1.066289  -0.544439  0.755909  0.835339  -0.719794  2.281481  -0.544
Cu  Cu2  1  0.10212569  0.23763901  0.49189819  1  1.066356  0.54445  0.755906  0.835326  0.719802  2.281596  0.544
Cu  Cu3  1  0.89787950  0.73764693  0.00810052  1  1.066447  0.544443  0.755869  0.835372  0.719798  2.281455  0.544
Mo  Mo4  1  0.38482860  0.01136402  0.39821346  1  2.65228  0.002394  1.527886  2.121578  0.002108  4.62557  0.003
Mo  Mo5  1  0.61517290  0.51136818  0.10178710  1  2.652359  0.002393  1.52782  2.121455  0.002108  4.625969  0.003
Mo  Mo6  1  0.61517846  0.98863449  0.60178847  1  2.652433  -0.002393  1.527902  2.121587  -0.002108  4.625678  -0.003
Mo  Mo7  1  0.38482321  0.48864072  0.89821303  1  2.652238  -0.002393  1.527924  2.121612  -0.002108  4.625587  -0.003
As  As8  1  0.79024350  0.05220647  0.45103226  1  2.529155  -0.000488  0.656702  1.6952  -0.000671  4.548589  -0.001
As  As9  1  0.20975535  0.55221379  0.04896744  1  2.529416  -0.000486  0.656652  1.695016  -0.000676  4.54836  -0.001
As  As10  1  0.20976236  0.94778543  0.54896606  1  2.529434  0.000489  0.656615  1.695031  0.000677  4.548503  0.001
As  As11  1  0.79024197  0.44779511  0.95103225  1  2.529127  0.000485  0.65677  1.695281  0.00067  4.548265  0.001
H  H12  1  0.64439326  0.79287973  0.35601418  1  0.137902  -0.003006  0.120486  0.093383  -0.001453  1.03552  -0.003
H  H13  1  0.35560921  0.29288400  0.14398308  1  0.137891  -0.003007  0.120488  0.09339  -0.001453  1.035496  -0.003
H  H14  1  0.35560285  0.20711312  0.64398595  1  0.137978  0.003006  0.120504  0.093383  0.001453  1.035534  0.003
H  H15  1  0.64439056  0.70712396  0.85601571  1  0.137985  0.003006  0.12052  0.093398  0.001453  1.035502  0.003
H  H16  1  0.44283209  0.64867910  0.26953196  1  0.13307  -0.001066  0.115588  0.135523  -0.000545  0.989114  -0.001
H  H17  1  0.55716870  0.14868184  0.23046566  1  0.083446  -0.0011  0.115611  0.135551  -0.000545  0.988973  -0.001
H  H18  1  0.55716035  0.35131657  0.73047066  1  0.132979  0.001066  0.115613  0.135505  0.000545  0.989044  0.001
H  H19  1  0.44282497  0.85132329  0.76953420  1  0.083775  0.001099  0.115609  0.135554  0.000545  0.989012  0.001
H  H20  1  0.59610662  0.35583407  0.44406786  1  0.10066  -0.001635  0.116765  0.140457  -0.00082  0.981894  -0.001
H  H21  1  0.40388943  0.85583794  0.05592871  1  0.100762  -0.001635  0.116789  0.140438  -0.00082  0.981847  -0.001
H  H22  1  0.40388949  0.64415877  0.55593112  1  0.100788  0.001635  0.11684  0.140532  0.00082  0.981821  0.001
H  H23  1  0.59611034  0.14416813  0.94406951  1  0.100637  0.001635  0.116745  0.140401  0.00082  0.981942  0.001
H  H24  1  0.75785667  0.31496525  0.55817286  1  0.118631  -0.001701  0.11353  0.13778  -0.000878  1.007167  -0.001
H  H25  1  0.24213984  0.81496988  0.94182280  1  0.118739  -0.001702  0.113574  0.137909  -0.000878  1.007116  -0.001
H  H26  1  0.24214919  0.68502382  0.44182429  1  0.11869  0.001702  0.11353  0.13781  0.000878  1.007231  0.001
H  H27  1  0.75785749  0.18503808  0.05817515  1  0.118602  0.001702  0.113532  0.13784  0.000878  1.00712  0.001
H  H28  1  0.15258694  0.46871653  0.73664485  1  0.133167  -0.000993  0.108672  0.12379  -0.000535  1.050494  -0.001
H  H29  1  0.84740265  0.96872477  0.76335762  1  0.133095  -0.000993  0.108628  0.123762  -0.000535  1.050465  -0.001
H  H30  1  0.84741891  0.53127442  0.26335405  1  0.133132  0.000993  0.108691  0.12372  0.000535  1.050564  0.001
H  H31  1  0.15259223  0.03128319  0.23664643  1  0.133194  0.000993  0.108665  0.12377  0.000535  1.050519  0.001
H  H32  1  0.12267949  0.67056969  0.65817717  1  0.172316  -0.002999  0.126363  0.115522  -0.001569  0.995895  -0.003
H  H33  1  0.87731166  0.17057807  0.84182598  1  0.172314  -0.003  0.126375  0.115541  -0.00157  0.995857  -0.003
H  H34  1  0.87732027  0.32942127  0.34182337  1  0.172286  0.003  0.126373  0.115587  0.001569  0.995904  0.003
H  H35  1  0.12268078  0.82942989  0.15817723  1  0.172312  0.002999  0.126367  0.115541  0.001569  0.995853  0.003
H  H36  1  0.27458557  0.39202014  0.32473805  1  0.058632  0.000261  0.095528  0.144536  0.000123  1.017644  0.0
H  H37  1  0.72541030  0.89202399  0.17525619  1  0.058637  0.000261  0.095521  0.144538  0.000123  1.01769  0.0
H  H38  1  0.72540323  0.60797176  0.67526185  1  0.058666  -0.000262  0.095563  0.144603  -0.000123  1.017594  0.0
H  H39  1  0.27458459  0.10798113  0.82474264  1  0.058589  -0.000261  0.095538  0.144528  -0.000123  1.017636  0.0
H  H40  1  0.43622956  0.30540879  0.30277472  1  0.072175  4.5e-05  0.099472  0.152891  2.5e-05  0.994816  0.0
H  H41  1  0.56376676  0.80541129  0.19721955  1  0.072217  4.5e-05  0.099483  0.152919  2.5e-05  0.994801  0.0
H  H42  1  0.56375924  0.69458594  0.69722344  1  0.072233  -4.5e-05  0.099499  0.152947  -2.5e-05  0.994699  0.0
H  H43  1  0.43622813  0.19459572  0.80277929  1  0.072138  -4.5e-05  0.099485  0.152943  -2.5e-05  0.994765  0.0
H  H44  1  0.34801894  0.43389115  0.23948274  1  0.040855  -6.5e-05  0.095928  0.138845  -0.000102  1.015432  0.0
H  H45  1  0.65198035  0.93389340  0.26051363  1  0.040948  -6.5e-05  0.095921  0.138828  -0.000102  1.015331  0.0
H  H46  1  0.65196742  0.56610547  0.76051747  1  0.04088  6.5e-05  0.095894  0.138781  0.000102  1.015442  0.0
H  H47  1  0.34801697  0.06611172  0.73948606  1  0.04096  6.5e-05  0.095888  0.138735  0.000102  1.015352  0.0
H  H48  1  0.02079475  0.17943705  0.66135631  1  0.117778  0.000306  0.099412  0.17016  0.000192  1.000908  0.0
H  H49  1  0.97920003  0.67944680  0.83864318  1  0.117054  0.000306  0.099433  0.170161  0.000192  1.000874  0.0
H  H50  1  0.97921720  0.82054824  0.33864152  1  0.117286  -0.000306  0.099303  0.170037  -0.000192  1.001015  0.0
H  H51  1  0.02079730  0.32056305  0.16135651  1  0.117761  -0.000306  0.099427  0.170189  -0.000192  1.000926  0.0
H  H52  1  0.85600663  0.21785509  0.70353550  1  0.102127  0.00013  0.095621  0.154827  7e-05  1.025524  0.0
H  H53  1  0.14399037  0.71786467  0.79646541  1  0.102398  0.00013  0.095653  0.154854  7e-05  1.025537  0.0
H  H54  1  0.14401261  0.78213114  0.29646836  1  0.102287  -0.00013  0.095656  0.154906  -7e-05  1.02537  0.0
H  H55  1  0.85600695  0.28214423  0.20353543  1  0.102157  -0.00013  0.095638  0.154819  -7e-05  1.025555  0.0
H  H56  1  0.05892695  0.26144729  0.75458884  1  0.060641  1.8e-05  0.092391  0.1475  -5e-06  1.01825  0.0
H  H57  1  0.94106740  0.76145522  0.74540946  1  0.06084  1.8e-05  0.092345  0.147442  -5e-06  1.018239  0.0
H  H58  1  0.94109475  0.73854177  0.24540718  1  0.060548  -1.8e-05  0.092308  0.147403  5e-06  1.018315  0.0
H  H59  1  0.05893114  0.23855369  0.25459094  1  0.060755  -1.8e-05  0.092383  0.147477  5e-06  1.018236  0.0
C  C60  1  0.62832564  0.69563175  0.37274905  1  0.52434  0.00107  0.057185  0.132061  -0.00022  3.928154  0.001
C  C61  1  0.37167125  0.19563502  0.12724699  1  0.524481  0.001069  0.057274  0.132158  -0.00022  3.928344  0.001
C  C62  1  0.37166925  0.30436109  0.62725037  1  0.52419  -0.001068  0.057195  0.132041  0.000221  3.928286  -0.001
C  C63  1  0.62832486  0.80437200  0.87275256  1  0.524665  -0.001069  0.057258  0.132175  0.00022  3.928135  -0.001
C  C64  1  0.51702597  0.61475271  0.32573572  1  -0.059406  -0.007004  -0.074072  -0.177383  -0.004738  3.877203  -0.006
C  C65  1  0.48297013  0.11475470  0.17426079  1  -0.009843  -0.006971  -0.074094  -0.177378  -0.004739  3.87708  -0.006
C  C66  1  0.48296648  0.38524202  0.67426400  1  -0.059387  0.007004  -0.074107  -0.177306  0.004739  3.877101  0.006
C  C67  1  0.51702354  0.88525043  0.82573907  1  -0.01018  0.006971  -0.074135  -0.177448  0.004739  3.877055  0.006
C  C68  1  0.50252345  0.49011632  0.35044415  1  0.032346  0.003491  0.023453  0.238019  0.002329  3.939144  0.002
C  C69  1  0.49747312  0.99011806  0.14955193  1  0.032976  0.003491  0.02342  0.238001  0.002329  3.938975  0.002
C  C70  1  0.49746900  0.50988030  0.64955615  1  0.033347  -0.003492  0.023438  0.238037  -0.002329  3.939044  -0.002
C  C71  1  0.50252420  0.00988707  0.85044834  1  0.032458  -0.003491  0.023447  0.238036  -0.002329  3.938981  -0.002
C  C72  1  0.60250463  0.45254818  0.42322824  1  -0.013226  -0.00362  -0.073953  -0.207057  -0.002726  3.857521  -0.003
C  C73  1  0.39748848  0.95255303  0.07676860  1  -0.013759  -0.00362  -0.073968  -0.207001  -0.002726  3.857512  -0.003
C  C74  1  0.39749148  0.54744372  0.57677131  1  -0.013871  0.00362  -0.074028  -0.207184  0.002726  3.857583  0.003
C  C75  1  0.60251006  0.04745682  0.92323180  1  -0.013343  0.00362  -0.073871  -0.206897  0.002726  3.857319  0.003
C  C76  1  0.71259176  0.53792975  0.46752903  1  0.434967  -0.001286  0.115223  0.166721  -0.001578  4.019933  -0.001
C  C77  1  0.28740230  0.03793512  0.03246839  1  0.435665  -0.001287  0.115261  0.166814  -0.001577  4.020337  -0.001
C  C78  1  0.28740435  0.46206025  0.53247052  1  0.435628  0.001285  0.115231  0.16681  0.001577  4.019985  0.001
C  C79  1  0.71259381  0.96207284  0.96753000  1  0.435354  0.001288  0.115226  0.166702  0.001578  4.020107  0.001
C  C80  1  0.82848092  0.50819589  0.54275458  1  0.448476  -0.001999  0.113598  0.161326  -0.002103  4.029668  -0.002
C  C81  1  0.17151352  0.00820002  0.95724773  1  0.448457  -0.001999  0.113632  0.161385  -0.002103  4.029936  -0.002
C  C82  1  0.17151883  0.49179411  0.45724654  1  0.448407  0.001999  0.113614  0.161431  0.002103  4.030152  0.002
C  C83  1  0.82848502  0.99180700  0.04275441  1  0.448239  0.002  0.113611  0.161345  0.002103  4.029722  0.002
C  C84  1  0.83950807  0.39244263  0.58205870  1  -0.031556  -0.003856  -0.079075  -0.230175  -0.002982  3.891623  -0.003
C  C85  1  0.16048437  0.89245035  0.91794059  1  -0.031543  -0.003856  -0.079166  -0.230439  -0.002982  3.891871  -0.003
C  C86  1  0.16049413  0.60754549  0.41794037  1  -0.031406  0.003855  -0.079085  -0.23037  0.002982  3.892237  0.003
C  C87  1  0.83951295  0.10755855  0.08206026  1  -0.031248  0.003855  -0.079103  -0.230327  0.002982  3.891711  0.003
C  C88  1  0.95707603  0.37498607  0.65321721  1  0.00776  0.003271  0.024101  0.243184  0.002149  3.93583  0.002
C  C89  1  0.04291528  0.87499318  0.84678310  1  0.007744  0.003271  0.024144  0.2432  0.002149  3.935822  0.002
C  C90  1  0.04293105  0.62500394  0.34678124  1  0.007926  -0.003272  0.024098  0.243276  -0.002149  3.935781  -0.002
C  C91  1  0.95708082  0.12501478  0.15321819  1  0.007759  -0.003271  0.024133  0.243185  -0.002149  3.935863  -0.002
C  C92  1  0.05958926  0.47690342  0.68176636  1  0.012806  -0.007795  -0.078486  -0.176821  -0.005394  3.878404  -0.007
C  C93  1  0.94040272  0.97690951  0.81823638  1  0.012675  -0.007796  -0.078387  -0.176736  -0.005394  3.87821  -0.007
C  C94  1  0.94041781  0.52308658  0.31823441  1  0.012664  0.007796  -0.078408  -0.176614  0.005394  3.878321  0.007
C  C95  1  0.05959337  0.02309751  0.18176723  1  0.012688  0.007795  -0.078508  -0.17684  0.005394  3.878442  0.007
C  C96  1  0.04405225  0.58945626  0.63941432  1  0.425996  -0.000158  0.054187  0.114  -0.000955  3.933016  0.0
C  C97  1  0.95594176  0.08946251  0.86058971  1  0.426124  -0.000157  0.054115  0.113895  -0.000955  3.932935  0.0
C  C98  1  0.95595116  0.41053470  0.36058663  1  0.426128  0.000157  0.054073  0.113754  0.000956  3.933284  0.0
C  C99  1  0.04405555  0.91054545  0.13941462  1  0.42605  0.000158  0.054174  0.114027  0.000955  3.932803  0.0
C  C100  1  0.38465794  0.40068484  0.30107788  1  -0.037127  -0.000149  -0.237434  -0.420958  -0.0001  3.892004  0.0
C  C101  1  0.61533910  0.90068717  0.19891707  1  -0.037702  -0.000149  -0.23745  -0.421016  -0.0001  3.891969  0.0
C  C102  1  0.61533086  0.59931178  0.69892144  1  -0.038073  0.000149  -0.237475  -0.42105  0.0001  3.891925  0.0
C  C103  1  0.38465701  0.09931890  0.80108190  1  -0.037169  0.000149  -0.237422  -0.420914  0.0001  3.891867  0.0
C  C104  1  0.97478933  0.25212797  0.69640378  1  -0.119894  0.000102  -0.246876  -0.446837  6.9e-05  3.87951  0.0
C  C105  1  0.02520505  0.75213700  0.80359684  1  -0.119436  0.000103  -0.246903  -0.446786  6.9e-05  3.879551  0.0
C  C106  1  0.02522627  0.74785731  0.30359503  1  -0.119372  -0.000102  -0.246746  -0.446751  -6.9e-05  3.879432  0.0
C  C107  1  0.97479349  0.24787285  0.19640414  1  -0.120019  -0.000103  -0.246885  -0.446811  -6.9e-05  3.87956  0.0
N  N108  1  0.72393352  0.65800976  0.44172086  1  -1.224715  -0.094666  -0.351716  -0.281623  -0.063725  3.619796  -0.081
N  N109  1  0.27606478  0.15801140  0.05827707  1  -1.225242  -0.094672  -0.351761  -0.281779  -0.06373  3.62014  -0.081
N  N110  1  0.27606503  0.34198308  0.55827780  1  -1.224847  0.094671  -0.351693  -0.281649  0.063728  3.619838  0.081
N  N111  1  0.72393133  0.84199467  0.94172191  1  -1.22533  0.094665  -0.351783  -0.281748  0.063727  3.620061  0.081
N  N112  1  0.93063744  0.60478891  0.57188854  1  -1.226525  -0.10074  -0.35325  -0.285432  -0.067613  3.626316  -0.086
N  N113  1  0.06935771  0.10479335  0.92811445  1  -1.226666  -0.100744  -0.353289  -0.285374  -0.067614  3.62636  -0.086
N  N114  1  0.06936475  0.39520109  0.42811285  1  -1.226745  0.100745  -0.353221  -0.285364  0.067616  3.626767  0.086
N  N115  1  0.93063961  0.89521367  0.07188813  1  -1.226525  0.100735  -0.35328  -0.28545  0.06761  3.626192  0.086
O  O116  1  0.59805810  0.08084813  0.38877542  1  -1.081988  0.002514  -0.450829  -0.809444  0.001918  2.056176  0.002
O  O117  1  0.40195034  0.58085488  0.11122535  1  -1.081944  0.002511  -0.450909  -0.809432  0.001917  2.056152  0.002
O  O118  1  0.40195384  0.91914660  0.61122531  1  -1.081965  -0.002511  -0.450875  -0.809442  -0.001917  2.05616  -0.002
O  O119  1  0.59805307  0.41916064  0.88877385  1  -1.081882  -0.002512  -0.450872  -0.809533  -0.001918  2.056121  -0.002
O  O120  1  0.35702843  0.90974749  0.31883056  1  -0.827564  -0.000457  -0.507364  -0.651151  -0.000317  1.699593  0.0
O  O121  1  0.64297221  0.40974519  0.18116653  1  -0.827537  -0.000457  -0.507357  -0.651171  -0.000317  1.699627  0.0
O  O122  1  0.64298108  0.09025952  0.68116758  1  -0.827627  0.000456  -0.507406  -0.651217  0.000317  1.699582  0.0
O  O123  1  0.35701903  0.59025993  0.81883190  1  -0.827622  0.000457  -0.507383  -0.651176  0.000317  1.69956  0.0
O  O124  1  0.26765563  0.14070536  0.36323938  1  -0.822965  -0.000923  -0.512262  -0.680906  -0.000732  1.716108  0.0
O  O125  1  0.73234518  0.64070633  0.13676577  1  -0.82305  -0.000923  -0.512225  -0.680877  -0.000732  1.716209  0.0
O  O126  1  0.73235020  0.85929693  0.63676647  1  -0.82306  0.000923  -0.512223  -0.680896  0.000732  1.71621  0.0
O  O127  1  0.26765579  0.35929880  0.86323722  1  -0.822916  0.000923  -0.512248  -0.680883  0.000732  1.716151  0.0
O  O128  1  0.76893456  0.07541464  0.54835745  1  -1.062934  0.000222  -0.439913  -0.806907  0.000166  2.135644  0.0
O  O129  1  0.23107294  0.57542309  0.95164227  1  -1.06295  0.000221  -0.439905  -0.806903  0.000166  2.135554  0.0
O  O130  1  0.23108225  0.92457537  0.45164267  1  -1.062987  -0.000221  -0.439823  -0.806819  -0.000166  2.13558  0.0
O  O131  1  0.76892682  0.42458865  0.04835826  1  -1.062925  -0.000222  -0.439923  -0.806884  -0.000166  2.13562  0.0
O  O132  1  0.86088402  0.90575539  0.43533304  1  -1.066852  -0.077197  -0.416804  -0.792207  -0.051223  2.133528  -0.066
O  O133  1  0.13912029  0.40575842  0.06466330  1  -1.067042  -0.077193  -0.416803  -0.792105  -0.051218  2.133483  -0.066
O  O134  1  0.13912551  0.09423557  0.56465989  1  -1.066972  0.077183  -0.416827  -0.792136  0.051213  2.133477  0.065
O  O135  1  0.86088313  0.59425143  0.93533359  1  -1.067029  0.077202  -0.416847  -0.792236  0.051227  2.133469  0.066
O  O136  1  0.90541728  0.16999677  0.42542146  1  -1.05999  0.074855  -0.4252  -0.769312  0.049074  2.078105  0.063
O  O137  1  0.09458582  0.67000732  0.07457932  1  -1.059971  0.07485  -0.425136  -0.769282  0.049072  2.078198  0.063
O  O138  1  0.09459223  0.82998946  0.57457610  1  -1.060023  -0.074853  -0.425152  -0.769291  -0.049073  2.078083  -0.063
O  O139  1  0.90541759  0.33000442  0.92542394  1  -1.05992  -0.074845  -0.425183  -0.769293  -0.049067  2.078105  -0.063
F  F140  1  0.54931084  0.89374318  0.48348195  1  -0.747724  0.000354  -0.360772  -0.626435  0.000348  1.184662  0.0
F  F141  1  0.45069718  0.39374895  0.01651886  1  -0.747787  0.000354  -0.360735  -0.626417  0.000348  1.184697  0.0
F  F142  1  0.45070232  0.10625250  0.51651892  1  -0.747859  -0.000354  -0.360739  -0.626448  -0.000348  1.184709  0.0
F  F143  1  0.54930014  0.60626090  0.98348141  1  -0.747773  -0.000354  -0.360739  -0.626403  -0.000348  1.184693  0.0
