# generated using pymatgen
data_HoH9C14(NO5)2
_symmetry_space_group_name_H-M   'P 1'
_cell_length_a   9.07406883
_cell_length_b   9.16469714
_cell_length_c   9.52718877
_cell_angle_alpha   86.20726814
_cell_angle_beta   85.69125194
_cell_angle_gamma   85.68154781
_symmetry_Int_Tables_number   1
_chemical_formula_structural   HoH9C14(NO5)2
_chemical_formula_sum   'Ho2 H18 C28 N4 O20'
_cell_volume   786.35003372
_cell_formula_units_Z   2
loop_
 _symmetry_equiv_pos_site_id
 _symmetry_equiv_pos_as_xyz
  1  'x, y, z'
loop_
 _atom_site_type_symbol
 _atom_site_label
 _atom_site_symmetry_multiplicity
 _atom_site_fract_x
 _atom_site_fract_y
 _atom_site_fract_z
 _atom_site_occupancy
 _atom_site_pbe_bader_spin_density
 _atom_site_pbe_cm5_charge
 _atom_site_pbe_ddec_charge
 _atom_site_pbe_ddec_spin_density
 _atom_site_pbe_ddec_sum_bond_order
 _atom_site_pbe_magmom
Ho  Ho0  1  0.13650688  0.08619673  0.85720394  1  0  1.515669  1.966351  0  2.179168  0
Ho  Ho1  1  0.86349289  0.91380335  0.14279402  1  0  1.515681  1.966358  0  2.179138  0
H  H2  1  0.87415183  0.63419357  0.62986572  1  0  0.350953  0.413738  0  0.827882  0
H  H3  1  0.12585959  0.36581302  0.37014157  1  0  0.350933  0.413696  0  0.828038  0
H  H4  1  0.18385894  0.01665421  0.55696798  1  0  0.307822  0.410127  0  0.912448  0
H  H5  1  0.81614311  0.98334476  0.44303199  1  0  0.307835  0.41014  0  0.91243  0
H  H6  1  0.03269598  0.96719750  0.62613207  1  0  0.314527  0.401903  0  0.90989  0
H  H7  1  0.96730301  0.03279820  0.37386409  1  0  0.314546  0.401923  0  0.909883  0
H  H8  1  0.20508403  0.29862439  0.05264397  1  0  0.311032  0.396454  0  0.919367  0
H  H9  1  0.79492387  0.70137020  0.94735375  1  0  0.311032  0.396427  0  0.919374  0
H  H10  1  0.10147997  0.37405035  0.94461525  1  0  0.30572  0.401887  0  0.92622  0
H  H11  1  0.89851914  0.62594310  0.05539049  1  0  0.305713  0.401847  0  0.926261  0
H  H12  1  0.52773301  0.43550410  0.58040775  1  0  0.108939  0.116238  0  1.045035  0
H  H13  1  0.47226227  0.56449709  0.41958835  1  0  0.108944  0.116221  0  1.045065  0
H  H14  1  0.75613198  0.29930801  0.66776261  1  0  0.125825  0.141726  0  0.963105  0
H  H15  1  0.24386661  0.70069317  0.33223432  1  0  0.125821  0.141706  0  0.963071  0
H  H16  1  0.60476161  0.53505814  0.80397634  1  0  0.117165  0.115163  0  1.016518  0
H  H17  1  0.39524037  0.46494193  0.19602252  1  0  0.117162  0.115166  0  1.016514  0
H  H18  1  0.34578855  0.50884206  0.91863139  1  0  0.113586  0.132072  0  1.02962  0
H  H19  1  0.65421337  0.49115913  0.08136321  1  0  0.113601  0.132097  0  1.029583  0
C  C20  1  0.23624242  0.34061788  0.62949626  1  0  0.197672  0.555125  0  4.269309  0
C  C21  1  0.76375417  0.65937997  0.37050835  1  0  0.197757  0.555221  0  4.269208  0
C  C22  1  0.38587641  0.26723714  0.66717869  1  0  0.120423  0.132033  0  3.958855  0
C  C23  1  0.61412003  0.73276291  0.33282475  1  0  0.12045  0.132044  0  3.958598  0
C  C24  1  0.52157243  0.32830983  0.63552746  1  0  -0.069776  -0.12087  0  3.91282  0
C  C25  1  0.47842174  0.67169134  0.36447187  1  0  -0.069769  -0.120847  0  3.912921  0
C  C26  1  0.64904988  0.25147108  0.68152889  1  0  -0.049991  -0.022915  0  3.863658  0
C  C27  1  0.35094784  0.74852680  0.31846934  1  0  -0.050031  -0.022925  0  3.863753  0
C  C28  1  0.64107819  0.11062649  0.74714294  1  0  -0.000699  -0.092155  0  3.884786  0
C  C29  1  0.35892054  0.88937246  0.25285935  1  0  -0.000686  -0.092151  0  3.884701  0
C  C30  1  0.50292754  0.04881150  0.75843578  1  0  0.142258  0.193256  0  3.915283  0
C  C31  1  0.49707325  0.95118966  0.24156415  1  0  0.142263  0.193301  0  3.915273  0
C  C32  1  0.47407205  0.89306250  0.79817129  1  0  0.154092  0.211724  0  3.88387  0
C  C33  1  0.52592645  0.10693977  0.20182768  1  0  0.154039  0.211587  0  3.883866  0
C  C34  1  0.57331528  0.76902903  0.77414698  1  0  0.002641  -0.102185  0  3.886224  0
C  C35  1  0.42667896  0.23097103  0.22585345  1  0  0.002649  -0.10214  0  3.886212  0
C  C36  1  0.52802878  0.63023913  0.82090054  1  0  -0.054514  -0.033343  0  3.915374  0
C  C37  1  0.47196886  0.36975985  0.17909868  1  0  -0.054512  -0.033337  0  3.915362  0
C  C38  1  0.38658628  0.61504478  0.88393311  1  0  -0.06564  -0.112948  0  3.894199  0
C  C39  1  0.61341238  0.38495530  0.11606493  1  0  -0.065651  -0.113015  0  3.894163  0
C  C40  1  0.29278769  0.74159698  0.89622571  1  0  0.130748  0.139453  0  3.945418  0
C  C41  1  0.70721437  0.25840200  0.10377215  1  0  0.130727  0.139455  0  3.945262  0
C  C42  1  0.13734023  0.73534583  0.96343424  1  0  0.22736  0.577906  0  4.179516  0
C  C43  1  0.86266380  0.26465643  0.03656541  1  0  0.227388  0.577894  0  4.179352  0
C  C44  1  0.77397415  0.04095511  0.81708489  1  0  0.223344  0.627612  0  4.195327  0
C  C45  1  0.22602429  0.95904827  0.18291193  1  0  0.2233  0.627564  0  4.195274  0
C  C46  1  0.71463870  0.77339005  0.68388627  1  0  0.246079  0.592753  0  4.111173  0
C  C47  1  0.28535973  0.22661331  0.31611265  1  0  0.246137  0.592823  0  4.111356  0
N  N48  1  0.37903156  0.13156000  0.72865040  1  0  -0.388072  -0.389735  0  3.519534  0
N  N49  1  0.62096938  0.86843896  0.27135069  1  0  -0.388076  -0.389747  0  3.519386  0
N  N50  1  0.33577716  0.87541217  0.85407027  1  0  -0.35841  -0.347748  0  3.492334  0
N  N51  1  0.66422481  0.12458789  0.14593069  1  0  -0.358412  -0.347694  0  3.49225  0
O  O52  1  0.12307200  0.27937153  0.68881515  1  0  -0.419535  -0.655067  0  2.2822  0
O  O53  1  0.87692563  0.72062743  0.31118512  1  0  -0.419587  -0.655129  0  2.282056  0
O  O54  1  0.23537457  0.44724482  0.54021792  1  0  -0.330588  -0.553598  0  2.092324  0
O  O55  1  0.76462298  0.55275525  0.45978229  1  0  -0.330614  -0.553627  0  2.092428  0
O  O56  1  0.05546728  0.85804344  0.95655611  1  0  -0.444607  -0.745703  0  2.460697  0
O  O57  1  0.94453688  0.14195660  0.04344786  1  0  -0.444619  -0.745709  0  2.460624  0
O  O58  1  0.09896599  0.61820464  0.02389376  1  0  -0.278444  -0.491404  0  2.15852  0
O  O59  1  0.90103684  0.38179870  0.97610905  1  0  -0.278447  -0.49138  0  2.158534  0
O  O60  1  0.73647169  0.86563472  0.58654846  1  0  -0.257724  -0.486351  0  2.246379  0
O  O61  1  0.26352483  0.13436425  0.41345189  1  0  -0.257795  -0.486425  0  2.246254  0
O  O62  1  0.81109669  0.65964707  0.71541907  1  0  -0.310403  -0.46324  0  2.273761  0
O  O63  1  0.18890975  0.34035184  0.28459005  1  0  -0.310349  -0.463166  0  2.274183  0
O  O64  1  0.90006025  0.08099578  0.76940213  1  0  -0.375787  -0.635287  0  2.319071  0
O  O65  1  0.09993715  0.91900649  0.23059586  1  0  -0.375765  -0.635251  0  2.31904  0
O  O66  1  0.74909379  0.95390911  0.92416770  1  0  -0.373163  -0.656981  0  2.362701  0
O  O67  1  0.25090938  0.04608989  0.07582799  1  0  -0.373141  -0.656957  0  2.362705  0
O  O68  1  0.13950904  0.95611729  0.63601856  1  0  -0.615329  -0.803852  0  2.008151  0
O  O69  1  0.86049089  0.04388058  0.36398056  1  0  -0.615365  -0.803903  0  2.008137  0
O  O70  1  0.19704970  0.31344779  0.95109482  1  0  -0.623168  -0.812146  0  2.141203  0
O  O71  1  0.80295243  0.68655009  0.04890415  1  0  -0.623158  -0.812058  0  2.141161  0
