# generated using pymatgen
data_Dy3H40C68N7O19
_symmetry_space_group_name_H-M   'P 1'
_cell_length_a   10.31032766
_cell_length_b   19.04528862
_cell_length_c   19.70902648
_cell_angle_alpha   78.20922710
_cell_angle_beta   76.60684353
_cell_angle_gamma   81.42108741
_symmetry_Int_Tables_number   1
_chemical_formula_structural   Dy3H40C68N7O19
_chemical_formula_sum   'Dy6 H80 C136 N14 O38'
_cell_volume   3664.29975837
_cell_formula_units_Z   2
loop_
 _symmetry_equiv_pos_site_id
 _symmetry_equiv_pos_as_xyz
  1  'x, y, z'
loop_
 _atom_site_type_symbol
 _atom_site_label
 _atom_site_symmetry_multiplicity
 _atom_site_fract_x
 _atom_site_fract_y
 _atom_site_fract_z
 _atom_site_occupancy
 _atom_site_pbe_bader_charge
 _atom_site_pbe_bader_spin_density
 _atom_site_pbe_cm5_charge
 _atom_site_pbe_ddec_charge
 _atom_site_pbe_ddec_spin_density
 _atom_site_pbe_ddec_sum_bond_order
 _atom_site_pbe_magmom
Dy  Dy0  1  0.36625699  0.94156632  0.57202152  1  2.147177  0  1.516865  1.952262  0  2.221381  0
Dy  Dy1  1  0.81488185  0.48072582  0.56912910  1  2.150594  0  1.55725  1.937976  0  2.308845  0
Dy  Dy2  1  0.84959698  0.58120988  0.96098801  1  2.159829  0  1.533151  1.980492  0  2.247498  0
Dy  Dy3  1  0.63374266  0.05843241  0.42797894  1  2.147265  0  1.516837  1.952229  0  2.221435  0
Dy  Dy4  1  0.18512124  0.51927560  0.43086837  1  2.150576  0  1.557306  1.937931  0  2.308899  0
Dy  Dy5  1  0.15040644  0.41878993  0.03901127  1  2.159789  0  1.533118  1.980409  0  2.247648  0
H  H6  1  0.88903015  0.00483196  0.56183708  1  0.135266  0  0.116098  0.1351  0  1.011943  0
H  H7  1  0.57241449  0.00192096  0.74831462  1  0.07628  0  0.106683  0.105527  0  0.992101  0
H  H8  1  0.74205609  0.99330936  0.82265356  1  0.06736  0  0.099708  0.095167  0  0.994463  0
H  H9  1  0.98675300  0.98754917  0.76547019  1  0.099381  0  0.104093  0.106659  0  0.996318  0
H  H10  1  0.69898167  0.72937658  0.53582342  1  0.116209  0  0.108936  0.11578  0  1.019023  0
H  H11  1  0.01970445  0.71035738  0.35558356  1  0.093644  0  0.10099  0.097933  0  1.050161  0
H  H12  1  0.96287710  0.83967321  0.30350534  1  0.074035  0  0.099691  0.097499  0  1.002233  0
H  H13  1  0.77436258  0.91304726  0.36918741  1  0.122932  0  0.109542  0.106002  0  1.054448  0
H  H14  1  0.99760726  0.48104142  0.25052860  1  0.080597  0  0.108545  0.110854  0  1.012492  0
H  H15  1  0.65237153  0.58704666  0.17052433  1  0.111905  0  0.109907  0.112254  0  1.001474  0
H  H16  1  0.53386969  0.60458570  0.29312191  1  0.059797  0  0.097535  0.094561  0  1.025962  0
H  H17  1  0.65077118  0.56053187  0.39416419  1  0.104131  0  0.111939  0.120692  0  0.994435  0
H  H18  1  0.60758083  0.42424334  0.00539711  1  0.111061  0  0.115136  0.123031  0  1.027211  0
H  H19  1  0.51251819  0.21553251  0.99507695  1  0.08816  0  0.106839  0.11058  0  0.989567  0
H  H20  1  0.75110987  0.16495716  0.99767120  1  0.052747  0  0.100615  0.096062  0  0.994112  0
H  H21  1  0.91696408  0.24632929  0.00240264  1  0.07077  0  0.110386  0.114029  0  0.989379  0
H  H22  1  0.16098631  0.87817320  0.49562361  1  0.133968  0  0.122523  0.091658  0  1.020038  0
H  H23  1  0.02801622  0.77551112  0.50441820  1  0.087814  0  0.105514  0.112342  0  1.021942  0
H  H24  1  0.03027795  0.67245119  0.60708323  1  0.126804  0  0.117561  0.124971  0  0.96825  0
H  H25  1  0.10454912  0.62046266  0.72092865  1  0.089676  0  0.105545  0.107957  0  1.036006  0
H  H26  1  0.21747868  0.63263646  0.81434916  1  0.082339  0  0.112332  0.122045  0  0.98396  0
H  H27  1  0.35295501  0.70386472  0.86074906  1  0.094659  0  0.104354  0.103077  0  1.027697  0
H  H28  1  0.47537004  0.81291751  0.84157412  1  0.07934  0  0.106448  0.112632  0  0.996241  0
H  H29  1  0.48216101  0.90144614  0.72704833  1  0.134323  0  0.115497  0.08139  0  1.041132  0
H  H30  1  0.64852540  0.40979312  0.47388297  1  0.162509  0  0.123785  0.091853  0  1.029603  0
H  H31  1  0.55002885  0.29926700  0.47011126  1  0.096684  0  0.111832  0.122285  0  1.004475  0
H  H32  1  0.55024744  0.19490119  0.57108754  1  0.10018  0  0.113545  0.118208  0  0.998446  0
H  H33  1  0.60525428  0.14460118  0.69053259  1  0.095393  0  0.104536  0.107475  0  1.018033  0
H  H34  1  0.68476535  0.16215049  0.79458283  1  0.065562  0  0.103356  0.104389  0  1.002011  0
H  H35  1  0.76796511  0.24468005  0.85668866  1  0.084355  0  0.103365  0.098862  0  1.02404  0
H  H36  1  0.84123228  0.36548517  0.85235075  1  0.072991  0  0.110752  0.119025  0  1.00079  0
H  H37  1  0.84927153  0.45683138  0.74013705  1  0.123936  0  0.123337  0.091012  0  1.013324  0
H  H38  1  0.00088192  0.74016620  0.89111453  1  0.13193  0  0.116714  0.083837  0  1.022823  0
H  H39  1  0.01322873  0.84764621  0.79230028  1  0.078692  0  0.107529  0.114869  0  0.999401  0
H  H40  1  0.88831907  0.85301230  0.69595944  1  0.081416  0  0.106329  0.105328  0  1.011667  0
H  H41  1  0.73850675  0.79465397  0.64541831  1  0.07576  0  0.108555  0.116213  0  0.990061  0
H  H42  1  0.59047429  0.69883109  0.66012025  1  0.115076  0  0.110148  0.118954  0  0.993976  0
H  H43  1  0.47782573  0.59531462  0.73777875  1  0.113939  0  0.107964  0.105291  0  1.050441  0
H  H44  1  0.46680499  0.49865149  0.84748939  1  0.092564  0  0.110219  0.122696  0  1.009029  0
H  H45  1  0.62718334  0.49421009  0.92502855  1  0.120471  0  0.118088  0.076201  0  1.060285  0
H  H46  1  0.11096817  0.99516839  0.43816271  1  0.135246  0  0.11611  0.135096  0  1.011911  0
H  H47  1  0.42758427  0.99807722  0.25168505  1  0.076176  0  0.106666  0.105465  0  0.992167  0
H  H48  1  0.25794168  0.00668882  0.17734573  1  0.067345  0  0.099687  0.095117  0  0.994532  0
H  H49  1  0.01324753  0.01245011  0.23453006  1  0.099356  0  0.104082  0.106641  0  0.996334  0
H  H50  1  0.30101997  0.27062217  0.46417731  1  0.116244  0  0.108952  0.115763  0  1.019054  0
H  H51  1  0.98029631  0.28964082  0.64441739  1  0.093636  0  0.100978  0.09794  0  1.050178  0
H  H52  1  0.03712555  0.16032553  0.69649376  1  0.07407  0  0.099683  0.097472  0  1.002271  0
H  H53  1  0.22563884  0.08695257  0.63081313  1  0.122893  0  0.109538  0.106001  0  1.054533  0
H  H54  1  0.00239229  0.51895784  0.74946975  1  0.08061  0  0.108542  0.110845  0  1.012491  0
H  H55  1  0.34762791  0.41295314  0.82947442  1  0.111937  0  0.109837  0.112125  0  1.001558  0
H  H56  1  0.46613163  0.39541465  0.70687650  1  0.059783  0  0.097549  0.094601  0  1.025912  0
H  H57  1  0.34922726  0.43946793  0.60583418  1  0.104123  0  0.11195  0.12071  0  0.994431  0
H  H58  1  0.39242159  0.57575647  0.99460128  1  0.111031  0  0.115194  0.123172  0  1.027199  0
H  H59  1  0.48748266  0.78446517  0.00492714  1  0.088144  0  0.106867  0.110578  0  0.989612  0
H  H60  1  0.24889365  0.83504213  0.00233021  1  0.052732  0  0.100659  0.096084  0  0.994169  0
H  H61  1  0.08303813  0.75367160  0.99759556  1  0.070788  0  0.110396  0.114047  0  0.989373  0
H  H62  1  0.83901224  0.12182606  0.50437586  1  0.133983  0  0.122515  0.091658  0  1.020064  0
H  H63  1  0.97198011  0.22448922  0.49558183  1  0.087892  0  0.10555  0.112379  0  1.021922  0
H  H64  1  0.96972159  0.32754809  0.39291715  1  0.126827  0  0.11755  0.124961  0  0.96826  0
H  H65  1  0.89545230  0.37953716  0.27907037  1  0.089684  0  0.105571  0.108013  0  1.035977  0
H  H66  1  0.78252263  0.36736390  0.18564976  1  0.082318  0  0.112309  0.122018  0  0.983991  0
H  H67  1  0.64704642  0.29613509  0.13924996  1  0.09468  0  0.104336  0.103045  0  1.027687  0
H  H68  1  0.52463172  0.18708069  0.15842519  1  0.079315  0  0.106418  0.112626  0  0.99622  0
H  H69  1  0.51784064  0.09855260  0.27295190  1  0.134296  0  0.115481  0.081371  0  1.041173  0
H  H70  1  0.35146838  0.59020508  0.52611933  1  0.162336  0  0.123779  0.091886  0  1.029611  0
H  H71  1  0.44996813  0.70073013  0.52989138  1  0.096651  0  0.11184  0.122298  0  1.004487  0
H  H72  1  0.44975453  0.80509593  0.42891348  1  0.100249  0  0.113526  0.118185  0  0.998438  0
H  H73  1  0.39474945  0.85539704  0.30946902  1  0.095463  0  0.104539  0.107512  0  1.017981  0
H  H74  1  0.31523419  0.83784879  0.20541906  1  0.065627  0  0.103353  0.104411  0  1.001994  0
H  H75  1  0.23202822  0.75532031  0.14331325  1  0.084341  0  0.103367  0.098825  0  1.024072  0
H  H76  1  0.15876404  0.63451518  0.14765030  1  0.073374  0  0.110756  0.119059  0  1.000774  0
H  H77  1  0.15072712  0.54316735  0.25986354  1  0.123898  0  0.123337  0.091007  0  1.013289  0
H  H78  1  0.99911850  0.25983362  0.10888613  1  0.132224  0  0.116705  0.083808  0  1.022837  0
H  H79  1  0.98677358  0.15235415  0.20770004  1  0.078739  0  0.107496  0.114852  0  0.999304  0
H  H80  1  0.11168303  0.14698913  0.30403968  1  0.081468  0  0.106348  0.105341  0  1.011652  0
H  H81  1  0.26149646  0.20534692  0.35458028  1  0.075805  0  0.108567  0.116254  0  0.990022  0
H  H82  1  0.40952138  0.30117250  0.33988022  1  0.115053  0  0.110121  0.118853  0  0.994013  0
H  H83  1  0.52216883  0.40468952  0.26222225  1  0.11381  0  0.107976  0.105253  0  1.05049  0
H  H84  1  0.53319079  0.50135157  0.15251118  1  0.092562  0  0.110249  0.122718  0  1.009061  0
H  H85  1  0.37281798  0.50579026  0.07496986  1  0.12041  0  0.118104  0.076227  0  1.060312  0
C  C86  1  0.95222168  0.99467229  0.66077778  1  -0.047038  0  -0.01741  -0.024791  0  3.963508  0
C  C87  1  0.85646443  0.00276116  0.61892795  1  -0.067703  0  -0.069976  -0.104974  0  3.8842  0
C  C88  1  0.71974263  0.00572380  0.65038223  1  -0.009109  0  -0.013215  -0.035938  0  3.963091  0
C  C89  1  0.67903924  0.00067644  0.72406340  1  -0.028292  0  -0.082616  -0.100721  0  3.986002  0
C  C90  1  0.77426049  0.99577826  0.76550591  1  -0.007335  0  -0.097181  -0.099276  0  4.053933  0
C  C91  1  0.91051144  0.99272532  0.73404849  1  -0.120071  0  -0.079457  -0.091688  0  3.972517  0
C  C92  1  0.09841595  0.98566783  0.62726176  1  1.53849  0  0.185565  0.555881  0  4.25707  0
C  C93  1  0.61999283  0.01451149  0.60357402  1  1.597868  0  0.234298  0.645528  0  4.142875  0
C  C94  1  0.72689680  0.82662442  0.45751923  1  -0.021203  0  -0.017587  -0.043776  0  3.971553  0
C  C95  1  0.75707655  0.75390898  0.48533700  1  -0.010765  0  -0.071371  -0.099654  0  3.921315  0
C  C96  1  0.86348059  0.71253639  0.44871739  1  -0.067949  0  -0.016912  -0.045693  0  3.967834  0
C  C97  1  0.93797614  0.74369756  0.38337309  1  -0.067645  0  -0.078232  -0.078654  0  3.956159  0
C  C98  1  0.90567726  0.81559256  0.35462232  1  -0.002744  0  -0.093117  -0.091619  0  4.020805  0
C  C99  1  0.80049002  0.85703712  0.39161980  1  -0.082552  0  -0.07358  -0.071459  0  3.930469  0
C  C100  1  0.61632534  0.87131364  0.49780965  1  1.527664  0  0.218347  0.623963  0  4.170947  0
C  C101  1  0.89699221  0.63504010  0.47875059  1  1.590436  0  0.231655  0.654435  0  4.15276  0
C  C102  1  0.83296428  0.52021934  0.32838749  1  -6.1e-05  0  -0.016748  -0.046562  0  3.961178  0
C  C103  1  0.89652474  0.50888441  0.26008698  1  -0.008229  0  -0.079146  -0.114105  0  3.959346  0
C  C104  1  0.83045046  0.53149571  0.20368516  1  -0.086995  0  -0.016263  -0.040398  0  3.959947  0
C  C105  1  0.70083097  0.56786153  0.21553750  1  -0.101729  0  -0.074661  -0.077793  0  3.940724  0
C  C106  1  0.63603826  0.57809850  0.28380918  1  0.048  0  -0.090646  -0.080775  0  4.003314  0
C  C107  1  0.70090336  0.55377147  0.34039382  1  -0.095083  0  -0.075692  -0.073737  0  3.922049  0
C  C108  1  0.90481235  0.49725267  0.38847080  1  1.586335  0  0.234578  0.649073  0  4.149771  0
C  C109  1  0.89656618  0.51563558  0.13136962  1  1.615165  0  0.233415  0.65213  0  4.159748  0
C  C110  1  0.77300763  0.34067270  0.00279211  1  -0.062892  0  -0.016495  -0.046204  0  3.980695  0
C  C111  1  0.64016583  0.36796850  0.00139191  1  -0.013927  0  -0.072139  -0.111604  0  3.930944  0
C  C112  1  0.54712546  0.32344812  0.99754868  1  0.02579  0  -0.013703  -0.01451  0  3.958575  0
C  C113  1  0.58683925  0.24990717  0.99694317  1  -0.092284  0  -0.077032  -0.090378  0  3.960669  0
C  C114  1  0.71972609  0.22213953  0.99855010  1  -0.080529  0  -0.09565  -0.104731  0  4.057033  0
C  C115  1  0.81295646  0.26721014  0.00132395  1  -0.014065  0  -0.079168  -0.093065  0  3.965449  0
C  C116  1  0.86923904  0.39089829  0.00646052  1  1.584081  0  0.235205  0.645945  0  4.160033  0
C  C117  1  0.40625454  0.35637032  0.99615779  1  1.528745  0  0.179735  0.556572  0  4.260116  0
C  C118  1  0.15856690  0.83293653  0.53962545  1  0.503091  0  0.062111  0.125377  0  3.941372  0
C  C119  1  0.08456636  0.77503715  0.54486462  1  -0.018948  0  -0.083424  -0.126682  0  3.96878  0
C  C120  1  0.08620288  0.71849443  0.60118188  1  -0.064933  0  -0.057366  -0.064561  0  3.908538  0
C  C121  1  0.15939223  0.72107708  0.65292510  1  -0.034838  0  0.000351  0.043394  0  3.999184  0
C  C122  1  0.23031039  0.78212569  0.64363059  1  0.515191  0  0.125723  0.137735  0  3.961276  0
C  C123  1  0.15927385  0.66671665  0.71473660  1  0.003765  0  -0.077526  -0.098207  0  3.961741  0
C  C124  1  0.22243810  0.67334423  0.76635010  1  -0.030792  0  -0.080223  -0.116  0  3.975108  0
C  C125  1  0.29320682  0.73444637  0.75938553  1  0.005125  0  -0.001714  0.038124  0  4.007011  0
C  C126  1  0.35665982  0.74422448  0.81255461  1  -0.0714  0  -0.066571  -0.076246  0  3.948612  0
C  C127  1  0.42375965  0.80432602  0.80202498  1  -0.024801  0  -0.087463  -0.135058  0  4.002822  0
C  C128  1  0.42779960  0.85407793  0.73829881  1  0.499873  0  0.058382  0.116922  0  3.953899  0
C  C129  1  0.30043289  0.78840418  0.69723277  1  0.481295  0  0.123604  0.133063  0  3.954789  0
C  C130  1  0.64436837  0.36477064  0.51804417  1  0.503058  0  0.066711  0.135005  0  3.92421  0
C  C131  1  0.58898747  0.30212505  0.51615664  1  -0.007448  0  -0.073471  -0.108797  0  3.934754  0
C  C132  1  0.58835798  0.24507270  0.57199414  1  -0.011114  0  -0.056233  -0.06147  0  3.896655  0
C  C133  1  0.63922008  0.25176965  0.63086111  1  -0.036375  0  -0.00108  0.044939  0  3.998974  0
C  C134  1  0.68961947  0.31772638  0.62908414  1  0.532728  0  0.121941  0.131001  0  3.991805  0
C  C135  1  0.64040667  0.19556460  0.69131987  1  -0.009217  0  -0.081957  -0.109448  0  3.985146  0
C  C136  1  0.68435584  0.20528357  0.74867662  1  -0.070317  0  -0.089805  -0.133515  0  4.010186  0
C  C137  1  0.72997576  0.27226129  0.75014383  1  -0.044775  0  -0.003285  0.042095  0  4.007292  0
C  C138  1  0.77074868  0.28619130  0.80935012  1  -0.02051  0  -0.063317  -0.069374  0  3.92673  0
C  C139  1  0.81148903  0.35268600  0.80710592  1  -0.049111  0  -0.079703  -0.120311  0  3.958704  0
C  C140  1  0.81507422  0.40434105  0.74469696  1  0.552005  0  0.066878  0.131026  0  3.937595  0
C  C141  1  0.73504548  0.32828150  0.68979616  1  0.463539  0  0.120211  0.125713  0  3.994988  0
C  C142  1  0.94612413  0.74504030  0.84892113  1  0.494392  0  0.060727  0.120247  0  3.958017  0
C  C143  1  0.95278227  0.80496422  0.79342457  1  0.006218  0  -0.088547  -0.139607  0  4.001456  0
C  C144  1  0.88454649  0.80778494  0.74021195  1  -0.061188  0  -0.066681  -0.07304  0  3.944816  0
C  C145  1  0.80795937  0.75115840  0.74339771  1  0.021836  0  -0.003526  0.039124  0  4.011245  0
C  C146  1  0.80519441  0.69354530  0.80242771  1  0.466654  0  0.120621  0.13018  0  3.966854  0
C  C147  1  0.73255786  0.75074857  0.69091550  1  -0.074097  0  -0.087229  -0.130367  0  3.99469  0
C  C148  1  0.65110633  0.69803088  0.69886949  1  -0.028553  0  -0.076366  -0.102464  0  3.967548  0
C  C149  1  0.63930727  0.64181221  0.75979498  1  0.026764  0  0.000412  0.042722  0  3.98197  0
C  C150  1  0.54479549  0.59122392  0.77401761  1  -0.018326  0  -0.061136  -0.048984  0  3.923421  0
C  C151  1  0.53903054  0.53818468  0.83361486  1  -0.011599  0  -0.085992  -0.131666  0  3.948625  0
C  C152  1  0.62836731  0.53574294  0.87816013  1  0.48901  0  0.060195  0.127765  0  3.965041  0
C  C153  1  0.72037302  0.63752762  0.81007802  1  0.461394  0  0.121548  0.14117  0  3.969564  0
C  C154  1  0.04777621  0.00533021  0.33922010  1  -0.046909  0  -0.017413  -0.024812  0  3.963503  0
C  C155  1  0.14352958  0.99724080  0.38107152  1  -0.0678  0  -0.069959  -0.104901  0  3.884199  0
C  C156  1  0.28025360  0.99427708  0.34961720  1  -0.008937  0  -0.013268  -0.035997  0  3.9632  0
C  C157  1  0.32095831  0.99932283  0.27593671  1  -0.028178  0  -0.08258  -0.100684  0  3.986049  0
C  C158  1  0.22573784  0.00422209  0.23449338  1  -0.007381  0  -0.097147  -0.099158  0  4.053922  0
C  C159  1  0.08948888  0.00727503  0.26594954  1  -0.120201  0  -0.079488  -0.09174  0  3.972551  0
C  C160  1  0.90158138  0.01433252  0.37273815  1  1.538474  0  0.185584  0.555843  0  4.257069  0
C  C161  1  0.38000494  0.98548670  0.39642679  1  1.597271  0  0.23435  0.645599  0  4.143064  0
C  C162  1  0.27310871  0.17337488  0.54248245  1  -0.020992  0  -0.017619  -0.043795  0  3.971602  0
C  C163  1  0.24292708  0.24608977  0.51466400  1  -0.010809  0  -0.07133  -0.099512  0  3.921149  0
C  C164  1  0.13652183  0.28746343  0.55128253  1  -0.067902  0  -0.016936  -0.045835  0  3.967766  0
C  C165  1  0.06202650  0.25630118  0.61662651  1  -0.067569  0  -0.078187  -0.078601  0  3.956113  0
C  C166  1  0.09432339  0.18440618  0.64537802  1  -0.002817  0  -0.093162  -0.091615  0  4.020955  0
C  C167  1  0.19951239  0.14296272  0.60838214  1  -0.082764  0  -0.073549  -0.071462  0  3.930689  0
C  C168  1  0.38368027  0.12868513  0.50219314  1  1.527636  0  0.218351  0.623906  0  4.1711  0
C  C169  1  0.10300999  0.36496080  0.52124862  1  1.590451  0  0.231648  0.654492  0  4.152744  0
C  C170  1  0.16703459  0.47977831  0.67161278  1  7.1e-05  0  -0.016751  -0.046577  0  3.961071  0
C  C171  1  0.10347303  0.49111379  0.73991433  1  -0.008236  0  -0.07916  -0.114138  0  3.959457  0
C  C172  1  0.16954931  0.46850247  0.79631388  1  -0.087108  0  -0.016275  -0.04039  0  3.960063  0
C  C173  1  0.29916869  0.43213720  0.78446094  1  -0.101647  0  -0.074611  -0.077691  0  3.940685  0
C  C174  1  0.36396339  0.42190023  0.71618902  1  0.047964  0  -0.09062  -0.080726  0  4.003179  0
C  C175  1  0.29909718  0.44622780  0.65960491  1  -0.095179  0  -0.075692  -0.073782  0  3.922017  0
C  C176  1  0.09518798  0.50274767  0.61152672  1  1.586072  0  0.234735  0.649322  0  4.149482  0
C  C177  1  0.10343758  0.48436261  0.86862894  1  1.615251  0  0.233457  0.652139  0  4.159716  0
C  C178  1  0.22699568  0.65932765  0.99720607  1  -0.063001  0  -0.016535  -0.046194  0  3.980644  0
C  C179  1  0.35983760  0.63203131  0.99860636  1  -0.013973  0  -0.072201  -0.111878  0  3.931119  0
C  C180  1  0.45287795  0.67655171  0.00245162  1  0.02593  0  -0.01376  -0.014397  0  3.958383  0
C  C181  1  0.41316239  0.75009158  0.00305858  1  -0.092277  0  -0.07704  -0.090462  0  3.96064  0
C  C182  1  0.28027323  0.77786083  0.00145110  1  -0.080433  0  -0.095628  -0.104611  0  4.057083  0
C  C183  1  0.18704574  0.73279076  0.99867475  1  -0.014134  0  -0.079181  -0.09311  0  3.965428  0
C  C184  1  0.13076217  0.60910260  0.99353830  1  1.584098  0  0.235189  0.645901  0  4.160145  0
C  C185  1  0.59374888  0.64362951  0.00384201  1  1.528776  0  0.179689  0.556449  0  4.260079  0
C  C186  1  0.84143154  0.16706328  0.46037393  1  0.503357  0  0.062085  0.125304  0  3.94128  0
C  C187  1  0.91543097  0.22496321  0.45513580  1  -0.01947  0  -0.083446  -0.126681  0  3.968822  0
C  C188  1  0.91379556  0.28150538  0.39881801  1  -0.064956  0  -0.057383  -0.064599  0  3.908628  0
C  C189  1  0.84060720  0.27892273  0.34707467  1  -0.034833  0  0.000367  0.04342  0  3.999212  0
C  C190  1  0.76969004  0.21787412  0.35636855  1  0.515178  0  0.125746  0.137716  0  3.961325  0
C  C191  1  0.84072669  0.33328262  0.28526315  1  0.003745  0  -0.077575  -0.098316  0  3.961731  0
C  C192  1  0.77756344  0.32665504  0.23364901  1  -0.030239  0  -0.080202  -0.115962  0  3.975114  0
C  C193  1  0.70679693  0.26555182  0.24061354  1  0.004703  0  -0.001722  0.038034  0  4.007164  0
C  C194  1  0.64334493  0.25577371  0.18744434  1  -0.070867  0  -0.066531  -0.076126  0  3.948645  0
C  C195  1  0.57624621  0.19567163  0.19797293  1  -0.025399  0  -0.087461  -0.135086  0  4.002796  0
C  C196  1  0.57220515  0.14592027  0.26169963  1  0.499855  0  0.058311  0.116806  0  3.953937  0
C  C197  1  0.69956954  0.21159564  0.30276664  1  0.481154  0  0.123638  0.133171  0  3.954748  0
C  C198  1  0.35562850  0.63522702  0.48195787  1  0.503335  0  0.06663  0.134877  0  3.924303  0
C  C199  1  0.41100930  0.69787315  0.48384529  1  -0.007205  0  -0.073433  -0.108739  0  3.93477  0
C  C200  1  0.41164000  0.75492442  0.42800788  1  -0.011425  0  -0.056257  -0.061473  0  3.896609  0
C  C201  1  0.36077956  0.74822909  0.36914038  1  -0.035822  0  -0.001038  0.044953  0  3.998921  0
C  C202  1  0.31037708  0.68227290  0.37091760  1  0.532891  0  0.121941  0.131065  0  3.991819  0
C  C203  1  0.35959508  0.80443361  0.30868146  1  -0.009696  0  -0.081961  -0.109469  0  3.985097  0
C  C204  1  0.31564480  0.79471517  0.25132424  1  -0.070306  0  -0.089745  -0.133535  0  4.010122  0
C  C205  1  0.27002367  0.72773854  0.24985746  1  -0.044868  0  -0.003276  0.042201  0  4.007261  0
C  C206  1  0.22924775  0.71380853  0.19065305  1  -0.020703  0  -0.063321  -0.069323  0  3.926791  0
C  C207  1  0.18850740  0.64731382  0.19289573  1  -0.049392  0  -0.079768  -0.12043  0  3.958756  0
C  C208  1  0.18492333  0.59565822  0.25530365  1  0.552292  0  0.066945  0.131018  0  3.937548  0
C  C209  1  0.26495506  0.67171778  0.31020460  1  0.463439  0  0.120211  0.125663  0  3.994973  0
C  C210  1  0.05387608  0.25496060  0.15107883  1  0.494025  0  0.06076  0.120344  0  3.958093  0
C  C211  1  0.04721982  0.19503722  0.20657506  1  0.006248  0  -0.088535  -0.139665  0  4.001518  0
C  C212  1  0.11545460  0.19221649  0.25978779  1  -0.06121  0  -0.06671  -0.072983  0  3.94473  0
C  C213  1  0.19204073  0.24884303  0.25660164  1  0.021857  0  -0.003472  0.039156  0  4.011186  0
C  C214  1  0.19480458  0.30645667  0.19757217  1  0.466335  0  0.120568  0.130168  0  3.966703  0
C  C215  1  0.26744002  0.24925394  0.30908390  1  -0.073555  0  -0.087264  -0.13051  0  3.994723  0
C  C216  1  0.34888823  0.30197325  0.30113202  1  -0.029086  0  -0.076309  -0.102247  0  3.967431  0
C  C217  1  0.36068629  0.35819192  0.24020614  1  0.02657  0  0.000398  0.042648  0  3.982028  0
C  C218  1  0.45519985  0.40878129  0.22598257  1  -0.018141  0  -0.061184  -0.048938  0  3.923448  0
C  C219  1  0.46096601  0.46181945  0.16638539  1  -0.011599  0  -0.085969  -0.13168  0  3.948825  0
C  C220  1  0.37163058  0.46425956  0.12183877  1  0.489393  0  0.060148  0.127691  0  3.965218  0
C  C221  1  0.27962486  0.36247489  0.18992240  1  0.461874  0  0.121604  0.141196  0  3.969685  0
N  N222  1  0.78004307  0.39251079  0.68740064  1  -1.22271  0  -0.372377  -0.365381  0  3.50586  0
N  N223  1  0.69402476  0.37259668  0.57249747  1  -1.264834  0  -0.380137  -0.380253  0  3.499425  0
N  N224  1  0.23016072  0.83651799  0.58692640  1  -1.2477  0  -0.376204  -0.363811  0  3.497344  0
N  N225  1  0.36804830  0.84699870  0.68732764  1  -1.219204  0  -0.35853  -0.33607  0  3.471416  0
N  N226  1  0.87512533  0.69064916  0.85375708  1  -1.220483  0  -0.347822  -0.335204  0  3.460529  0
N  N227  1  0.71551012  0.58396823  0.86782971  1  -1.248939  0  -0.38923  -0.388335  0  3.516449  0
N  N228  1  0.55408321  0.55349682  0.61068485  1  0.824217  0  0.082946  0.724142  0  4.419627  0
N  N229  1  0.21995547  0.60748849  0.31260036  1  -1.22283  0  -0.372428  -0.365329  0  3.505767  0
N  N230  1  0.30596990  0.62740205  0.42750411  1  -1.265135  0  -0.380129  -0.380273  0  3.49943  0
N  N231  1  0.76983971  0.16348182  0.41307173  1  -1.247506  0  -0.376154  -0.363698  0  3.497212  0
N  N232  1  0.63195523  0.15300058  0.31267175  1  -1.219131  0  -0.358483  -0.336037  0  3.471419  0
N  N233  1  0.12487388  0.30935173  0.14624199  1  -1.220451  0  -0.34785  -0.335285  0  3.460419  0
N  N234  1  0.28449076  0.41603428  0.13216832  1  -1.249369  0  -0.389246  -0.388267  0  3.516487  0
N  N235  1  0.44591734  0.44650731  0.38931289  1  0.824425  0  0.082894  0.724069  0  4.419796  0
O  O236  1  0.13472254  0.98947844  0.56053594  1  -1.171131  0  -0.363877  -0.605252  0  2.233366  0
O  O237  1  0.18526016  0.97222295  0.66698322  1  -1.187518  0  -0.396362  -0.649896  0  2.19895  0
O  O238  1  0.51862341  0.97875009  0.62591971  1  -1.196113  0  -0.385898  -0.649286  0  2.282296  0
O  O239  1  0.64623169  0.05717218  0.54477497  1  -1.192308  0  -0.385426  -0.64161  0  2.345837  0
O  O240  1  0.52805893  0.84052440  0.54652741  1  -1.175967  0  -0.374328  -0.623904  0  2.228095  0
O  O241  1  0.61073375  0.94021017  0.48244215  1  -1.193037  0  -0.422165  -0.721515  0  2.455905  0
O  O242  1  0.81233644  0.60483971  0.52956696  1  -1.187752  0  -0.391478  -0.639325  0  2.301219  0
O  O243  1  0.00871978  0.60339499  0.45085957  1  -1.221103  0  -0.420985  -0.707913  0  2.407659  0
O  O244  1  0.83312558  0.48831055  0.45086803  1  -1.207619  0  -0.407551  -0.670641  0  2.375113  0
O  O245  1  0.03277158  0.48894550  0.37397256  1  -1.189819  0  -0.396953  -0.658676  0  2.286774  0
O  O246  1  0.85544483  0.55533277  0.07895978  1  -1.203657  0  -0.404876  -0.672718  0  2.361728  0
O  O247  1  0.98820902  0.46276572  0.12799257  1  -1.197001  0  -0.402646  -0.678799  0  2.323018  0
O  O248  1  0.83962841  0.45781705  0.98631503  1  -1.190406  0  -0.390094  -0.666424  0  2.353739  0
O  O249  1  0.97358242  0.36254941  0.03002108  1  -1.18896  0  -0.395301  -0.649917  0  2.32019  0
O  O250  1  0.31091312  0.31613674  0.01367387  1  -1.174187  0  -0.38837  -0.632027  0  2.153471  0
O  O251  1  0.38465954  0.42506646  0.98107448  1  -1.157593  0  -0.377602  -0.622377  0  2.226984  0
O  O252  1  0.58259844  0.52959355  0.55244402  1  -0.537399  0  -0.213196  -0.486652  0  2.025171  0
O  O253  1  0.63858769  0.53250314  0.65182508  1  -0.573136  0  -0.255873  -0.52767  0  2.074882  0
O  O254  1  0.45155442  0.59451267  0.62761118  1  -0.509837  0  -0.140962  -0.376673  0  1.97177  0
O  O255  1  0.86527467  0.01052245  0.43946489  1  -1.171132  0  -0.363874  -0.605254  0  2.233377  0
O  O256  1  0.81473561  0.02777524  0.33301833  1  -1.187546  0  -0.396341  -0.649809  0  2.198928  0
O  O257  1  0.48137524  0.02124865  0.37408139  1  -1.195996  0  -0.385894  -0.649279  0  2.282472  0
O  O258  1  0.35376408  0.94282601  0.45522556  1  -1.191802  0  -0.385482  -0.641687  0  2.345836  0
O  O259  1  0.47194978  0.15947384  0.45347714  1  -1.175931  0  -0.374363  -0.623915  0  2.228083  0
O  O260  1  0.38926788  0.05978859  0.51756112  1  -1.193105  0  -0.422132  -0.721423  0  2.455938  0
O  O261  1  0.18766178  0.39516117  0.47043173  1  -1.187886  0  -0.391522  -0.639407  0  2.301286  0
O  O262  1  0.99128065  0.39660483  0.54914059  1  -1.22108  0  -0.420955  -0.707922  0  2.407666  0
O  O263  1  0.16687652  0.51169088  0.54913058  1  -1.207449  0  -0.40763  -0.670785  0  2.375065  0
O  O264  1  0.96722732  0.51105699  0.62602369  1  -1.18975  0  -0.397052  -0.658818  0  2.286781  0
O  O265  1  0.14455914  0.44466434  0.92103846  1  -1.203733  0  -0.404908  -0.672731  0  2.361756  0
O  O266  1  0.01180026  0.53723466  0.87200843  1  -1.196979  0  -0.402641  -0.67876  0  2.322961  0
O  O267  1  0.16037479  0.54218384  0.01368305  1  -1.190406  0  -0.390077  -0.6664  0  2.35376  0
O  O268  1  0.02641889  0.63745095  0.96997937  1  -1.188972  0  -0.395291  -0.649903  0  2.320246  0
O  O269  1  0.68908930  0.68386308  0.98632605  1  -1.174253  0  -0.388325  -0.63197  0  2.153458  0
O  O270  1  0.61534376  0.57493391  0.01892775  1  -1.157557  0  -0.377603  -0.622361  0  2.226983  0
O  O271  1  0.41739845  0.47040895  0.44755550  1  -0.537416  0  -0.21318  -0.486582  0  2.025172  0
O  O272  1  0.36141563  0.46750207  0.34817211  1  -0.573088  0  -0.25584  -0.527609  0  2.074885  0
O  O273  1  0.54844535  0.40549038  0.37238789  1  -0.509937  0  -0.140977  -0.376674  0  1.971835  0
