# generated using pymatgen
data_ZnH15C25N7O4
_symmetry_space_group_name_H-M   'P 1'
_cell_length_a   9.22024662
_cell_length_b   10.18006567
_cell_length_c   14.82600000
_cell_angle_alpha   95.69626933
_cell_angle_beta   92.11529069
_cell_angle_gamma   99.94677652
_symmetry_Int_Tables_number   1
_chemical_formula_structural   ZnH15C25N7O4
_chemical_formula_sum   'Zn2 H30 C50 N14 O8'
_cell_volume   1361.84647411
_cell_formula_units_Z   2
loop_
 _symmetry_equiv_pos_site_id
 _symmetry_equiv_pos_as_xyz
  1  'x, y, z'
loop_
 _atom_site_type_symbol
 _atom_site_label
 _atom_site_symmetry_multiplicity
 _atom_site_fract_x
 _atom_site_fract_y
 _atom_site_fract_z
 _atom_site_occupancy
 _atom_site_hle17_bader_spin_density
 _atom_site_hle17_ddec_charge
 _atom_site_hle17_ddec_spin_density
 _atom_site_hle17_ddec_sum_bond_order
 _atom_site_hle17_magmom
 _atom_site_hse06_10hf_bader_spin_density
 _atom_site_hse06_10hf_ddec_charge
 _atom_site_hse06_10hf_ddec_spin_density
 _atom_site_hse06_10hf_ddec_sum_bond_order
 _atom_site_hse06_10hf_magmom
 _atom_site_hse06_bader_spin_density
 _atom_site_hse06_ddec_charge
 _atom_site_hse06_ddec_spin_density
 _atom_site_hse06_ddec_sum_bond_order
 _atom_site_hse06_magmom
 _atom_site_pbe_bader_charge
 _atom_site_pbe_bader_spin_density
 _atom_site_pbe_cm5_charge
 _atom_site_pbe_ddec_charge
 _atom_site_pbe_ddec_spin_density
 _atom_site_pbe_ddec_sum_bond_order
 _atom_site_pbe_magmom
Zn  Zn0  1  0.36151250  0.12747841  0.46954526  1  0  1.041101  0  1.801694  0  0  0.857983  0  2.251423  0  0  0.909404  0  2.196243  0  1.317397  0  0.685469  0.819526  0  2.291456  0
Zn  Zn1  1  0.63848754  0.87252068  0.53045434  1  0  1.041077  0  1.801748  0  0  0.857964  0  2.251467  0  0  0.909382  0  2.196287  0  1.317412  0  0.685471  0.819507  0  2.2915  0
H  H2  1  0.91163400  0.86636669  0.68335802  1  0  0.330293  0  0.939093  0  0  0.306358  0  1.009596  0  0  0.316148  0  1.000949  0  0.570439  0  0.306653  0.299426  0  1.015723  0
H  H3  1  0.08836515  0.13363340  0.31664163  1  0  0.330307  0  0.939056  0  0  0.306374  0  1.009559  0  0  0.316163  0  1.000912  0  0.570446  0  0.306665  0.299442  0  1.015688  0
H  H4  1  0.78010622  0.74960134  0.77509320  1  0  0.082101  0  0.933459  0  0  0.090051  0  0.996673  0  0  0.093216  0  0.994119  0  0.125662  0  0.11531  0.087733  0  0.998467  0
H  H5  1  0.21989382  0.25039775  0.22490640  1  0  0.0821  0  0.933472  0  0  0.09005  0  0.996687  0  0  0.093216  0  0.994132  0  0.125673  0  0.115316  0.087732  0  0.99848  0
H  H6  1  0.87627634  0.09878285  0.97048357  1  0  0.102019  0  0.939123  0  0  0.111148  0  1.003036  0  0  0.115337  0  0.998968  0  0.09121  0  0.110966  0.108136  0  1.005922  0
H  H7  1  0.12372479  0.90121624  0.02951606  1  0  0.102007  0  0.939121  0  0  0.111138  0  1.003026  0  0  0.115328  0  0.998959  0  0.091136  0  0.110959  0.108123  0  1.005921  0
H  H8  1  0.53436797  0.75971655  0.00290247  1  0  0.086418  0  0.914996  0  0  0.093151  0  0.976554  0  0  0.097318  0  0.972311  0  0.104009  0  0.116397  0.090132  0  0.97959  0
H  H9  1  0.46563227  0.24028354  0.99709653  1  0  0.086451  0  0.915008  0  0  0.093184  0  0.976557  0  0  0.097352  0  0.972314  0  0.104002  0  0.116412  0.090165  0  0.979594  0
H  H10  1  0.29710673  0.31871157  0.80268889  1  0  0.12007  0  0.926326  0  0  0.134699  0  0.9747  0  0  0.137957  0  0.973779  0  0.103534  0  0.114078  0.132355  0  0.97549  0
H  H11  1  0.70289243  0.68128852  0.19731144  1  0  0.120068  0  0.926343  0  0  0.134677  0  0.974735  0  0  0.137938  0  0.973809  0  0.103622  0  0.114057  0.132333  0  0.975524  0
H  H12  1  0.40507488  0.30391692  0.64982130  1  0  0.090932  0  0.935639  0  0  0.10155  0  0.994426  0  0  0.103818  0  0.992927  0  0.131228  0  0.118517  0.099807  0  0.995587  0
H  H13  1  0.59492408  0.69608217  0.35017827  1  0  0.090928  0  0.935703  0  0  0.101588  0  0.994443  0  0  0.103855  0  0.992945  0  0.131214  0  0.118534  0.099846  0  0.995601  0
H  H14  1  0.11777465  0.95354673  0.55387873  1  0  0.110233  0  0.948029  0  0  0.117529  0  1.009403  0  0  0.120451  0  1.006975  0  0.12962  0  0.122819  0.115313  0  1.011283  0
H  H15  1  0.88222540  0.04645236  0.44612087  1  0  0.110257  0  0.948006  0  0  0.117551  0  1.009384  0  0  0.120473  0  1.006955  0  0.129644  0  0.122824  0.115335  0  1.011265  0
H  H16  1  0.37879434  0.94827446  0.29230202  1  0  0.103036  0  0.931241  0  0  0.113003  0  0.988236  0  0  0.115464  0  0.986021  0  0.121407  0  0.124168  0.111073  0  0.989993  0
H  H17  1  0.62120718  0.05172663  0.70769842  1  0  0.103053  0  0.931198  0  0  0.113024  0  0.988198  0  0  0.115482  0  0.985986  0  0.121375  0  0.124175  0.111095  0  0.989951  0
H  H18  1  0.59312535  0.32806343  0.39764581  1  0  0.092074  0  0.952032  0  0  0.101756  0  1.013974  0  0  0.103708  0  1.012873  0  0.100989  0  0.120014  0.100214  0  1.014909  0
H  H19  1  0.40687795  0.67193565  0.60235589  1  0  0.092007  0  0.951999  0  0  0.101707  0  1.013944  0  0  0.103642  0  1.012861  0  0.100996  0  0.119976  0.100169  0  1.014873  0
H  H20  1  0.75977029  0.35283889  0.26807996  1  0  0.118995  0  0.95647  0  0  0.131897  0  1.010551  0  0  0.134983  0  1.009537  0  0.08625  0  0.111387  0.1297  0  1.011268  0
H  H21  1  0.24022887  0.64716120  0.73192036  1  0  0.119008  0  0.95647  0  0  0.131913  0  1.010543  0  0  0.134998  0  1.009528  0  0.086243  0  0.111403  0.129715  0  1.01126  0
H  H22  1  0.14705385  0.45272615  0.64195537  1  0  0.083842  0  0.96207  0  0  0.093868  0  1.023715  0  0  0.096666  0  1.023499  0  0.083844  0  0.096805  0.09203  0  1.023763  0
H  H23  1  0.85294619  0.54727293  0.35804423  1  0  0.08382  0  0.962058  0  0  0.093843  0  1.023711  0  0  0.096639  0  1.023498  0  0.083843  0  0.096793  0.092004  0  1.02376  0
H  H24  1  0.61469131  0.40515936  0.54947494  1  0  0.122064  0  0.961328  0  0  0.127142  0  1.031937  0  0  0.131723  0  1.027199  0  0.142226  0  0.108571  0.12381  0  1.035487  0
H  H25  1  0.38530912  0.59484174  0.45052615  1  0  0.122068  0  0.961314  0  0  0.12714  0  1.03193  0  0  0.131722  0  1.027191  0  0.142223  0  0.108579  0.123813  0  1.035481  0
H  H26  1  0.99008322  0.22665046  0.61632003  1  0  0.093083  0  0.983824  0  0  0.09864  0  1.054633  0  0  0.101237  0  1.054042  0  0.105547  0  0.098692  0.096787  0  1.055001  0
H  H27  1  0.00991663  0.77334762  0.38367883  1  0  0.093086  0  0.983867  0  0  0.098637  0  1.054666  0  0  0.101233  0  1.054075  0  0.105322  0  0.098686  0.096784  0  1.055035  0
H  H28  1  0.03566937  0.65665851  0.62095045  1  0  0.088035  0  0.960625  0  0  0.095001  0  1.030514  0  0  0.098513  0  1.028231  0  0.088487  0  0.096927  0.092508  0  1.032015  0
H  H29  1  0.96433067  0.34334058  0.37905050  1  0  0.088042  0  0.960613  0  0  0.095009  0  1.030497  0  0  0.098522  0  1.028214  0  0.08848  0  0.096936  0.092518  0  1.031993  0
H  H30  1  0.81077651  0.18694694  0.09880826  1  0  0.31212  0  0.853802  0  0  0.309202  0  0.889321  0  0  0.314843  0  0.886501  0  0.479182  0  0.343602  0.30513  0  0.891504  0
H  H31  1  0.18922264  0.81305316  0.90119139  1  0  0.312134  0  0.853762  0  0  0.309235  0  0.88924  0  0  0.314877  0  0.886415  0  0.479181  0  0.343589  0.305163  0  0.891424  0
C  C32  1  0.75958643  0.80540756  0.83882344  1  0  0.093977  0  3.694323  0  0  0.05848  0  3.957339  0  0  0.065532  0  3.972301  0  0.511735  0  0.045326  0.054169  0  3.947096  0
C  C33  1  0.24041381  0.19459253  0.16117624  1  0  0.093987  0  3.694366  0  0  0.058489  0  3.957385  0  0  0.065542  0  3.972344  0  0.511733  0  0.045331  0.05418  0  3.947143  0
C  C34  1  0.84244167  0.93356607  0.86673330  1  0  -0.05949  0  3.807028  0  0  -0.035932  0  4.043736  0  0  -0.044028  0  4.068292  0  -0.023839  0  -0.005461  -0.031179  0  4.027459  0
C  C35  1  0.15755858  0.06643402  0.13326637  1  0  -0.059506  0  3.807011  0  0  -0.035951  0  4.043729  0  0  -0.044047  0  4.068286  0  -0.024126  0  -0.005471  -0.031202  0  4.027458  0
C  C36  1  0.81128651  0.99974330  0.94911184  1  0  -0.052707  0  3.659528  0  0  -0.093486  0  3.913111  0  0  -0.089322  0  3.928772  0  -0.038955  0  -0.061401  -0.095611  0  3.902179  0
C  C37  1  0.18871264  0.00025679  0.05088781  1  0  -0.052679  0  3.659498  0  0  -0.093461  0  3.913094  0  0  -0.089297  0  3.928751  0  -0.038601  0  -0.061382  -0.095587  0  3.902164  0
C  C38  1  0.69921198  0.93766572  0.99940011  1  0  -0.049053  0  3.798439  0  0  -0.030022  0  4.042026  0  0  -0.036275  0  4.064001  0  0.047243  0  -0.000533  -0.02636  0  4.027317  0
C  C39  1  0.30078717  0.06233437  0.00059954  1  0  -0.048973  0  3.798407  0  0  -0.029954  0  4.041986  0  0  -0.036203  0  4.06396  0  0.047246  0  -0.000506  -0.026292  0  4.027276  0
C  C40  1  0.62286123  0.80948615  0.96466792  1  0  0.118043  0  3.66946  0  0  0.081656  0  3.931695  0  0  0.089557  0  3.944318  0  0.578925  0  0.055246  0.07673  0  3.92305  0
C  C41  1  0.37713901  0.19051394  0.03533175  1  0  0.117899  0  3.669535  0  0  0.081513  0  3.931769  0  0  0.089412  0  3.944392  0  0.578924  0  0.055196  0.076587  0  3.923123  0
C  C42  1  0.95645870  0.99785748  0.81183003  1  0  0.350153  0  3.783249  0  0  0.317041  0  4.059891  0  0  0.334207  0  4.073496  0  0.985401  0  0.22169  0.305957  0  4.05026  0
C  C43  1  0.04354135  0.00214161  0.18817024  1  0  0.350111  0  3.783251  0  0  0.316998  0  4.059916  0  0  0.334165  0  4.073519  0  0.985421  0  0.221671  0.305915  0  4.050285  0
C  C44  1  0.09032352  0.03053925  0.69401839  1  0  0.11241  0  3.81651  0  0  0.104853  0  4.066038  0  0  0.105141  0  4.088403  0  0.340742  0  0.096197  0.104338  0  4.051395  0
C  C45  1  0.90967435  0.96945984  0.30598116  1  0  0.112302  0  3.816643  0  0  0.104828  0  4.066067  0  0  0.105119  0  4.088427  0  0.340227  0  0.09617  0.104314  0  4.051423  0
C  C46  1  0.13633742  0.13472678  0.76568661  1  0  0.18327  0  3.832354  0  0  0.180772  0  4.086246  0  0  0.188009  0  4.106802  0  0.42148  0  0.097099  0.176133  0  4.072342  0
C  C47  1  0.86366173  0.86527331  0.23431237  1  0  0.183363  0  3.832379  0  0  0.180875  0  4.0862  0  0  0.188113  0  4.106755  0  0.421512  0  0.097139  0.176235  0  4.072296  0
C  C48  1  0.25354252  0.23667340  0.75071741  1  0  -0.180935  0  3.721046  0  0  -0.198048  0  3.972234  0  0  -0.205163  0  3.992731  0  -0.000701  0  -0.084964  -0.193568  0  3.958538  0
C  C49  1  0.74645643  0.76332569  0.24928149  1  0  -0.180904  0  3.72102  0  0  -0.198008  0  3.972198  0  0  -0.205125  0  3.99269  0  -0.000822  0  -0.084932  -0.193528  0  3.958502  0
C  C50  1  0.31361607  0.22857942  0.66615085  1  0  0.105127  0  3.713508  0  0  0.068658  0  3.975191  0  0  0.074374  0  3.995451  0  0.417465  0  0.03064  0.064893  0  3.961506  0
C  C51  1  0.68638308  0.77142067  0.33384880  1  0  0.105042  0  3.713536  0  0  0.068521  0  3.975251  0  0  0.074237  0  3.995513  0  0.418287  0  0.030598  0.064757  0  3.961561  0
C  C52  1  0.15399398  0.03001463  0.61064179  1  0  0.050449  0  3.681386  0  0  0.014368  0  3.93489  0  0  0.021637  0  3.949783  0  0.562672  0  0.044808  0.009468  0  3.925064  0
C  C53  1  0.84600626  0.96998546  0.38935789  1  0  0.050425  0  3.681408  0  0  0.014312  0  3.934886  0  0  0.02158  0  3.949779  0  0.562779  0  0.044794  0.009414  0  3.925056  0
C  C54  1  0.55092101  0.03808453  0.20904374  1  0  0.089885  0  3.843303  0  0  0.095425  0  4.098845  0  0  0.093291  0  4.123391  0  0.445184  0  0.090313  0.096557  0  4.082376  0
C  C55  1  0.44907943  0.96191656  0.79095533  1  0  0.089854  0  3.843231  0  0  0.095428  0  4.098765  0  0  0.093294  0  4.123307  0  0.445208  0  0.090344  0.096558  0  4.082296  0
C  C56  1  0.46397676  0.03396582  0.28408686  1  0  0.086965  0  3.64971  0  0  0.04885  0  3.9009  0  0  0.056667  0  3.917593  0  0.525765  0  0.05607  0.043756  0  3.889567  0
C  C57  1  0.53602387  0.96603628  0.71591229  1  0  0.086989  0  3.64968  0  0  0.048854  0  3.90087  0  0  0.056674  0  3.917561  0  0.525747  0  0.056077  0.04376  0  3.889541  0
C  C58  1  0.58688696  0.24797226  0.34244555  1  0  0.125783  0  3.701062  0  0  0.09131  0  3.954423  0  0  0.097455  0  3.975821  0  0.518749  0  0.037046  0.086898  0  3.940677  0
C  C59  1  0.41311545  0.75202783  0.65755552  1  0  0.125888  0  3.700987  0  0  0.091408  0  3.954312  0  0  0.097548  0  3.975752  0  0.518767  0  0.037084  0.086996  0  3.940553  0
C  C60  1  0.67908380  0.26181699  0.27064572  1  0  -0.21293  0  3.753213  0  0  -0.228469  0  4.006449  0  0  -0.236663  0  4.026368  0  -0.006026  0  -0.093112  -0.223155  0  3.993034  0
C  C61  1  0.32091624  0.73818210  0.72935455  1  0  -0.212978  0  3.753253  0  0  -0.228509  0  4.006514  0  0  -0.236698  0  4.026429  0  -0.006127  0  -0.09311  -0.223195  0  3.993099  0
C  C62  1  0.66025355  0.15337734  0.20352457  1  0  0.206011  0  3.813333  0  0  0.187962  0  4.069821  0  0  0.19693  0  4.090232  0  0.353422  0  0.109251  0.182187  0  4.055872  0
C  C63  1  0.33974797  0.84662376  0.79647520  1  0  0.206094  0  3.813176  0  0  0.187984  0  4.069722  0  0  0.19695  0  4.090132  0  0.353522  0  0.10921  0.18221  0  4.055773  0
C  C64  1  0.69722532  0.16483369  0.56527677  1  0  0.657354  0  3.903981  0  0  0.60412  0  4.198546  0  0  0.639734  0  4.189235  0  1.577795  0  0.212314  0.579715  0  4.204295  0
C  C65  1  0.30277472  0.83516540  0.43472283  1  0  0.657338  0  3.904287  0  0  0.604138  0  4.198807  0  0  0.639753  0  4.189495  0  1.577926  0  0.212352  0.57973  0  4.204552  0
C  C66  1  0.79251974  0.30116944  0.58260967  1  0  -0.085954  0  3.767393  0  0  -0.057396  0  3.997913  0  0  -0.068236  0  4.021919  0  -0.036419  0  -0.024402  -0.050471  0  3.982014  0
C  C67  1  0.20747941  0.69883065  0.41738998  1  0  -0.085908  0  3.767391  0  0  -0.057372  0  3.997901  0  0  -0.068211  0  4.021904  0  -0.03652  0  -0.02439  -0.050444  0  3.981998  0
C  C68  1  0.02984833  0.44330608  0.62361421  1  0  -0.087215  0  3.78502  0  0  -0.097781  0  4.040436  0  0  -0.103537  0  4.062778  0  -0.125234  0  -0.096733  -0.094182  0  4.024777  0
C  C69  1  0.97015152  0.55669200  0.37638599  1  0  -0.087156  0  3.785041  0  0  -0.097727  0  4.040441  0  0  -0.103484  0  4.062786  0  -0.125257  0  -0.096709  -0.094128  0  4.024782  0
C  C70  1  0.75284234  0.66228788  0.56663091  1  0  0.629905  0  3.921002  0  0  0.581373  0  4.209458  0  0  0.614828  0  4.203844  0  1.522919  0  0.198579  0.558591  0  4.212501  0
C  C71  1  0.24715957  0.33771522  0.43337036  1  0  0.629954  0  3.921127  0  0  0.58144  0  4.20956  0  0  0.614891  0  4.203942  0  1.522974  0  0.198596  0.558658  0  4.212604  0
C  C72  1  0.81847838  0.54276803  0.58498933  1  0  -0.074323  0  3.786218  0  0  -0.04587  0  4.014765  0  0  -0.056185  0  4.039267  0  -0.027969  0  -0.022747  -0.039468  0  3.998817  0
C  C73  1  0.18152116  0.45723407  0.41501114  1  0  -0.07441  0  3.786285  0  0  -0.045987  0  4.014872  0  0  -0.056299  0  4.03937  0  -0.027993  0  -0.022793  -0.039586  0  3.998926  0
C  C74  1  0.73091854  0.41512812  0.57075765  1  0  -0.068984  0  3.683374  0  0  -0.103499  0  3.923797  0  0  -0.100378  0  3.94246  0  -0.055888  0  -0.07546  -0.105585  0  3.912053  0
C  C75  1  0.26908082  0.58487297  0.42924274  1  0  -0.068901  0  3.683385  0  0  -0.103408  0  3.923818  0  0  -0.100285  0  3.942476  0  -0.055986  0  -0.07543  -0.105501  0  3.912077  0
C  C76  1  0.94264605  0.31588786  0.60872752  1  0  -0.042257  0  3.702562  0  0  -0.070765  0  3.950346  0  0  -0.067139  0  3.969  0  0.039012  0  -0.080829  -0.072125  0  3.936901  0
C  C77  1  0.05735272  0.68411023  0.39127064  1  0  -0.042341  0  3.702684  0  0  -0.070813  0  3.950435  0  0  -0.067187  0  3.969092  0  0.039466  0  -0.080857  -0.072173  0  3.936987  0
C  C78  1  0.96815049  0.55669902  0.61218702  1  0  -0.064796  0  3.744467  0  0  -0.093281  0  3.995739  0  0  -0.090777  0  4.015263  0  -0.070494  0  -0.086516  -0.093978  0  3.981986  0
C  C79  1  0.03184975  0.44330107  0.38781332  1  0  -0.064815  0  3.744465  0  0  -0.093294  0  3.995743  0  0  -0.090788  0  4.015263  0  -0.070507  0  -0.086529  -0.09399  0  3.98199  0
C  C80  1  0.65750516  0.00013843  0.08484851  1  0  0.356632  0  3.763005  0  0  0.323988  0  4.043715  0  0  0.339353  0  4.05835  0  0.965917  0  0.230576  0.313868  0  4.033576  0
C  C81  1  0.34249399  0.99986166  0.91515114  1  0  0.35654  0  3.763114  0  0  0.323916  0  4.043789  0  0  0.33928  0  4.058425  0  0.965927  0  0.230524  0.313797  0  4.033649  0
N  N82  1  0.65218540  0.74433809  0.88659580  1  0  -0.306565  0  3.067373  0  0  -0.277176  0  3.34095  0  0  -0.286228  0  3.352545  0  -1.210025  0  -0.331278  -0.271223  0  3.332893  0
N  N83  1  0.34781573  0.25566099  0.11340450  1  0  -0.306474  0  3.067414  0  0  -0.277082  0  3.340986  0  0  -0.286135  0  3.352582  0  -1.210021  0  -0.331245  -0.271128  0  3.332927  0
N  N84  1  0.97737136  0.94462219  0.72577088  1  0  -0.387434  0  3.361222  0  0  -0.330383  0  3.595915  0  0  -0.349407  0  3.608724  0  -1.275868  0  -0.377581  -0.317638  0  3.58737  0
N  N85  1  0.02262799  0.05537890  0.27422952  1  0  -0.387397  0  3.361239  0  0  -0.330387  0  3.595927  0  0  -0.349409  0  3.608735  0  -1.275853  0  -0.377568  -0.317641  0  3.587381  0
N  N86  1  0.05075041  0.11202973  0.83881079  1  0  -0.459214  0  2.889633  0  0  -0.439158  0  3.157252  0  0  -0.454317  0  3.167883  0  -1.151792  0  -0.348983  -0.428995  0  3.149729  0
N  N87  1  0.94924983  0.88797036  0.16118821  1  0  -0.459208  0  2.889611  0  0  -0.439163  0  3.157228  0  0  -0.454324  0  3.167862  0  -1.151818  0  -0.348986  -0.428999  0  3.149706  0
N  N88  1  0.26478420  0.12929201  0.59785388  1  0  -0.317126  0  3.299566  0  0  -0.237599  0  3.568005  0  0  -0.257822  0  3.587992  0  -1.219086  0  -0.325323  -0.223965  0  3.554507  0
N  N89  1  0.73521456  0.87070608  0.40214630  1  0  -0.317067  0  3.299526  0  0  -0.237528  0  3.567962  0  0  -0.257755  0  3.587954  0  -1.2195  0  -0.325318  -0.223894  0  3.554463  0
N  N90  1  0.55127678  0.94538454  0.13437741  1  0  -0.426598  0  2.932515  0  0  -0.40788  0  3.201443  0  0  -0.421917  0  3.216412  0  -1.130039  0  -0.330179  -0.398245  0  3.191199  0
N  N91  1  0.44872474  0.05461655  0.86562303  1  0  -0.426582  0  2.932525  0  0  -0.407889  0  3.201451  0  0  -0.421925  0  3.216417  0  -1.130047  0  -0.330194  -0.398254  0  3.191207  0
N  N92  1  0.48334836  0.13735690  0.34942621  1  0  -0.327275  0  3.288889  0  0  -0.251284  0  3.5624  0  0  -0.271887  0  3.581358  0  -1.220724  0  -0.322838  -0.237226  0  3.549421  0
N  N93  1  0.51665405  0.86264320  0.65057486  1  0  -0.327355  0  3.288882  0  0  -0.251361  0  3.562411  0  0  -0.271962  0  3.581362  0  -1.22073  0  -0.322864  -0.237303  0  3.549432  0
N  N94  1  0.72619778  0.12656961  0.12394243  1  0  -0.384038  0  3.329829  0  0  -0.330085  0  3.561648  0  0  -0.347874  0  3.572253  0  -1.241836  0  -0.375106  -0.318027  0  3.554173  0
N  N95  1  0.27380049  0.87343149  0.87605659  1  0  -0.384062  0  3.329804  0  0  -0.330084  0  3.561564  0  0  -0.347874  0  3.572171  0  -1.241825  0  -0.375053  -0.318026  0  3.554087  0
O  O96  1  0.75938964  0.06255505  0.57213711  1  0  -0.635489  0  2.053723  0  0  -0.56778  0  2.315635  0  0  -0.594781  0  2.301664  0  -1.180823  0  -0.316307  -0.548394  0  2.325752  0
O  O97  1  0.24061149  0.93744404  0.42786252  1  0  -0.635488  0  2.053918  0  0  -0.567797  0  2.31582  0  0  -0.594805  0  2.301864  0  -1.180901  0  -0.316327  -0.548415  0  2.32595  0
O  O98  1  0.56131901  0.15804675  0.54661228  1  0  -0.655478  0  2.148405  0  0  -0.596798  0  2.438346  0  0  -0.623477  0  2.423092  0  -1.211809  0  -0.320798  -0.577222  0  2.44762  0
O  O99  1  0.43868084  0.84195134  0.45338995  1  0  -0.655462  0  2.14847  0  0  -0.596779  0  2.438362  0  0  -0.623455  0  2.423104  0  -1.211802  0  -0.320797  -0.577213  0  2.447663  0
O  O100  1  0.63024583  0.64667269  0.52194722  1  0  -0.607491  0  1.979721  0  0  -0.551642  0  2.222388  0  0  -0.577792  0  2.212579  0  -1.168555  0  -0.307732  -0.532672  0  2.228062  0
O  O101  1  0.36975608  0.35333041  0.47805405  1  0  -0.607542  0  1.979809  0  0  -0.551693  0  2.222449  0  0  -0.577844  0  2.212646  0  -1.168635  0  -0.307736  -0.532715  0  2.228105  0
O  O102  1  0.82355062  0.78047863  0.59502873  1  0  -0.656995  0  2.035587  0  0  -0.597503  0  2.282837  0  0  -0.624274  0  2.272531  0  -1.199397  0  -0.32725  -0.577649  0  2.289995  0
O  O103  1  0.17645296  0.21952748  0.40497278  1  0  -0.657023  0  2.035743  0  0  -0.597492  0  2.282894  0  0  -0.624288  0  2.272653  0  -1.199383  0  -0.32726  -0.577639  0  2.290053  0
