# generated using pymatgen
data_CuH8C7I(NO)2
_symmetry_space_group_name_H-M   'P 1'
_cell_length_a   4.21815539
_cell_length_b   9.86491321
_cell_length_c   11.09229363
_cell_angle_alpha   82.57906901
_cell_angle_beta   89.61217190
_cell_angle_gamma   83.03455503
_symmetry_Int_Tables_number   1
_chemical_formula_structural   CuH8C7I(NO)2
_chemical_formula_sum   'Cu2 H16 C14 I2 N4 O4'
_cell_volume   454.30687391
_cell_formula_units_Z   2
loop_
 _symmetry_equiv_pos_site_id
 _symmetry_equiv_pos_as_xyz
  1  'x, y, z'
loop_
 _atom_site_type_symbol
 _atom_site_label
 _atom_site_symmetry_multiplicity
 _atom_site_fract_x
 _atom_site_fract_y
 _atom_site_fract_z
 _atom_site_occupancy
 _atom_site_hle17_bader_spin_density
 _atom_site_hle17_ddec_charge
 _atom_site_hle17_ddec_spin_density
 _atom_site_hle17_ddec_sum_bond_order
 _atom_site_hle17_magmom
 _atom_site_hse06_10hf_bader_spin_density
 _atom_site_hse06_10hf_ddec_charge
 _atom_site_hse06_10hf_ddec_spin_density
 _atom_site_hse06_10hf_ddec_sum_bond_order
 _atom_site_hse06_10hf_magmom
 _atom_site_hse06_bader_spin_density
 _atom_site_hse06_ddec_charge
 _atom_site_hse06_ddec_spin_density
 _atom_site_hse06_ddec_sum_bond_order
 _atom_site_hse06_magmom
 _atom_site_pbe_bader_spin_density
 _atom_site_pbe_cm5_charge
 _atom_site_pbe_ddec_charge
 _atom_site_pbe_ddec_spin_density
 _atom_site_pbe_ddec_sum_bond_order
 _atom_site_pbe_magmom
Cu  Cu0  1  0.81096054  0.11117217  0.47817849  1  0  0.238259  0  2.173261  0  0  0.163449  0  2.635693  0  0  0.175459  0  2.582448  0  0  0.248093  0.157477  0  2.670966  0
Cu  Cu1  1  0.18902199  0.88882801  0.52182361  1  0  0.238236  0  2.173198  0  0  0.163474  0  2.635571  0  0  0.17544  0  2.582326  0  0  0.24812  0.157493  0  2.670868  0
H  H2  1  0.39604307  0.36635588  0.47664531  1  0  0.067787  0  0.974521  0  0  0.075824  0  1.04315  0  0  0.078119  0  1.041489  0  0  0.096857  0.073528  0  1.045127  0
H  H3  1  0.60394705  0.63364227  0.52335157  1  0  0.067744  0  0.974492  0  0  0.075841  0  1.043075  0  0  0.078137  0  1.041417  0  0  0.096873  0.073543  0  1.045053  0
H  H4  1  0.25770553  0.58977011  0.34324593  1  0  0.116685  0  0.958161  0  0  0.120204  0  1.030559  0  0  0.124356  0  1.028819  0  0  0.101859  0.116803  0  1.032835  0
H  H5  1  0.74229615  0.41022905  0.65674989  1  0  0.116742  0  0.958135  0  0  0.120291  0  1.030472  0  0  0.124443  0  1.028732  0  0  0.10186  0.116877  0  1.03279  0
H  H6  1  0.93444979  0.43467154  0.08424863  1  0  0.127117  0  0.969077  0  0  0.133218  0  1.035128  0  0  0.137631  0  1.03218  0  0  0.109491  0.12998  0  1.037657  0
H  H7  1  0.06556327  0.56532961  0.91575142  1  0  0.127155  0  0.969023  0  0  0.13321  0  1.035111  0  0  0.137634  0  1.032147  0  0  0.109485  0.129975  0  1.037639  0
H  H8  1  0.23775574  0.21983959  0.14841210  1  0  0.338722  0  0.898267  0  0  0.324969  0  0.954006  0  0  0.331697  0  0.949029  0  0  0.304626  0.320375  0  0.95732  0
H  H9  1  0.76224975  0.78015439  0.85158697  1  0  0.338737  0  0.898279  0  0  0.324981  0  0.954016  0  0  0.331706  0  0.949044  0  0  0.304656  0.320388  0  0.957332  0
H  H10  1  0.17911996  0.12080216  0.28699600  1  0  0.306678  0  0.934736  0  0  0.284958  0  1.015106  0  0  0.293864  0  1.005749  0  0  0.276939  0.277911  0  1.022818  0
H  H11  1  0.82087612  0.87919180  0.71300852  1  0  0.30664  0  0.934705  0  0  0.284922  0  1.015082  0  0  0.293828  0  1.005722  0  0  0.276925  0.277875  0  1.022799  0
H  H12  1  0.15774351  0.85970444  0.98743233  1  0  0.090194  0  0.961662  0  0  0.105033  0  1.032738  0  0  0.105942  0  1.031757  0  0  0.098633  0.104363  0  1.033522  0
H  H13  1  0.84225513  0.14029773  0.01257309  1  0  0.0902  0  0.961557  0  0  0.105004  0  1.03268  0  0  0.105911  0  1.031701  0  0  0.098641  0.104331  0  1.033459  0
H  H14  1  0.41815966  0.93368095  0.08199406  1  0  0.082132  0  0.954773  0  0  0.100753  0  1.021254  0  0  0.101102  0  1.020991  0  0  0.094842  0.100392  0  1.021626  0
H  H15  1  0.58184072  0.06632331  0.91800662  1  0  0.082129  0  0.954738  0  0  0.100781  0  1.021171  0  0  0.10113  0  1.020908  0  0  0.094866  0.100417  0  1.021551  0
H  H16  1  0.00911247  0.92709454  0.12431781  1  0  0.092022  0  0.969285  0  0  0.10723  0  1.039451  0  0  0.10825  0  1.038991  0  0  0.09106  0.106223  0  1.040125  0
H  H17  1  0.99089412  0.07290453  0.87568791  1  0  0.092016  0  0.969227  0  0  0.107217  0  1.039411  0  0  0.108236  0  1.038954  0  0  0.091056  0.106211  0  1.040089  0
C  C18  1  0.51213120  0.38724782  0.38926278  1  0  0.133557  0  3.719588  0  0  0.106658  0  3.967479  0  0  0.114877  0  3.984556  0  0  0.026912  0.102371  0  3.955254  0
C  C19  1  0.48786338  0.61275134  0.61073397  1  0  0.133746  0  3.719285  0  0  0.106803  0  3.967192  0  0  0.115014  0  3.984271  0  0  0.027006  0.10252  0  3.954964  0
C  C20  1  0.43393331  0.51028606  0.31523812  1  0  -0.169724  0  3.757297  0  0  -0.197356  0  4.019015  0  0  -0.205065  0  4.040293  0  0  -0.105917  -0.19213  0  4.004327  0
C  C21  1  0.56606866  0.48971206  0.68475871  1  0  -0.169978  0  3.757212  0  0  -0.197641  0  4.019005  0  0  -0.205348  0  4.04028  0  0  -0.106004  -0.192417  0  4.004309  0
C  C22  1  0.58797381  0.52827043  0.20222639  1  0  -0.002637  0  3.801604  0  0  0.00782  0  4.047556  0  0  0.008761  0  4.065128  0  0  -0.008493  0.00669  0  4.034849  0
C  C23  1  0.41202977  0.47173074  0.79777371  1  0  -0.00252  0  3.801569  0  0  0.007893  0  4.047506  0  0  0.008841  0  4.065087  0  0  -0.00848  0.006764  0  4.034796  0
C  C24  1  0.80950314  0.42399841  0.17042265  1  0  -0.211912  0  3.650829  0  0  -0.23987  0  3.901538  0  0  -0.24756  0  3.919295  0  0  -0.087653  -0.234834  0  3.890695  0
C  C25  1  0.19050152  0.57599866  0.82957609  1  0  -0.211935  0  3.650751  0  0  -0.239832  0  3.901425  0  0  -0.247533  0  3.919168  0  0  -0.087636  -0.234797  0  3.890583  0
C  C26  1  0.87965098  0.30153116  0.25175149  1  0  0.476071  0  3.798748  0  0  0.453871  0  4.052193  0  0  0.472237  0  4.066165  0  0  0.221904  0.440291  0  4.043353  0
C  C27  1  0.12035256  0.69847003  0.74824680  1  0  0.475901  0  3.798829  0  0  0.453733  0  4.052244  0  0  0.472117  0  4.066187  0  0  0.221877  0.440146  0  4.04342  0
C  C28  1  0.52212634  0.65706664  0.11617811  1  0  0.591004  0  3.77291  0  0  0.542652  0  4.061229  0  0  0.576442  0  4.049434  0  0  0.24086  0.519693  0  4.068084  0
C  C29  1  0.47787562  0.34293149  0.88381781  1  0  0.590967  0  3.773066  0  0  0.542709  0  4.061228  0  0  0.576477  0  4.049469  0  0  0.240875  0.519742  0  4.068083  0
C  C30  1  0.21383696  0.87473654  0.08082388  1  0  -0.073849  0  3.612347  0  0  -0.177776  0  3.880517  0  0  -0.169952  0  3.88314  0  0  -0.151797  -0.183061  0  3.879186  0
C  C31  1  0.78616821  0.12526769  0.91917948  1  0  -0.073783  0  3.612119  0  0  -0.177705  0  3.880292  0  0  -0.169879  0  3.882913  0  0  -0.151796  -0.182996  0  3.878961  0
I  I32  1  0.29074410  0.11004351  0.62629775  1  0  -0.347921  0  1.753185  0  0  -0.296416  0  2.209677  0  0  -0.310314  0  2.164885  0  0  -0.161046  -0.286039  0  2.240694  0
I  I33  1  0.70924718  0.88996800  0.37369947  1  0  -0.34792  0  1.753228  0  0  -0.296419  0  2.209705  0  0  -0.310298  0  2.164894  0  0  -0.161036  -0.286046  0  2.240723  0
N  N34  1  0.72983904  0.28377349  0.36062719  1  0  -0.373517  0  3.293557  0  0  -0.300041  0  3.575476  0  0  -0.317292  0  3.58325  0  0  -0.372457  -0.288471  0  3.569107  0
N  N35  1  0.27015608  0.71622363  0.63936888  1  0  -0.373463  0  3.293638  0  0  -0.300027  0  3.575588  0  0  -0.317275  0  3.583343  0  0  -0.372491  -0.288453  0  3.569231  0
N  N36  1  0.09462206  0.19794654  0.22083570  1  0  -0.671804  0  3.109876  0  0  -0.635428  0  3.341822  0  0  -0.656676  0  3.3393  0  0  -0.585712  -0.620459  0  3.344404  0
N  N37  1  0.90537732  0.80205259  0.77916464  1  0  -0.671698  0  3.109842  0  0  -0.635346  0  3.341793  0  0  -0.656595  0  3.339264  0  0  -0.585704  -0.620372  0  3.344386  0
O  O38  1  0.28513901  0.74388005  0.15524552  1  0  -0.27169  0  2.357938  0  0  -0.1924  0  2.598862  0  0  -0.214911  0  2.601137  0  0  -0.165158  -0.17666  0  2.596745  0
O  O39  1  0.71487306  0.25612516  0.84476131  1  0  -0.271673  0  2.358273  0  0  -0.192357  0  2.599135  0  0  -0.21486  0  2.601416  0  0  -0.165121  -0.176595  0  2.597007  0
O  O40  1  0.66593615  0.68254432  0.02055941  1  0  -0.537175  0  1.98111  0  0  -0.487362  0  2.199591  0  0  -0.506968  0  2.192319  0  0  -0.273871  -0.474444  0  2.204563  0
O  O41  1  0.33403796  0.31745178  0.97944137  1  0  -0.537243  0  1.980965  0  0  -0.487523  0  2.199416  0  0  -0.507124  0  2.192157  0  0  -0.273947  -0.474605  0  2.204391  0
