# generated using pymatgen
data_GaPH4CO4F
_symmetry_space_group_name_H-M   'P 1'
_cell_length_a   4.98804704
_cell_length_b   7.10549919
_cell_length_c   8.36661100
_cell_angle_alpha   108.70848918
_cell_angle_beta   91.43558620
_cell_angle_gamma   108.73082072
_symmetry_Int_Tables_number   1
_chemical_formula_structural   GaPH4CO4F
_chemical_formula_sum   'Ga2 P2 H8 C2 O8 F2'
_cell_volume   263.26638506
_cell_formula_units_Z   2
loop_
 _symmetry_equiv_pos_site_id
 _symmetry_equiv_pos_as_xyz
  1  'x, y, z'
loop_
 _atom_site_type_symbol
 _atom_site_label
 _atom_site_symmetry_multiplicity
 _atom_site_fract_x
 _atom_site_fract_y
 _atom_site_fract_z
 _atom_site_occupancy
 _atom_site_hle17_bader_spin_density
 _atom_site_hle17_ddec_charge
 _atom_site_hle17_ddec_spin_density
 _atom_site_hle17_ddec_sum_bond_order
 _atom_site_hle17_magmom
 _atom_site_hse06_10hf_bader_spin_density
 _atom_site_hse06_10hf_ddec_charge
 _atom_site_hse06_10hf_ddec_spin_density
 _atom_site_hse06_10hf_ddec_sum_bond_order
 _atom_site_hse06_10hf_magmom
 _atom_site_hse06_bader_spin_density
 _atom_site_hse06_ddec_charge
 _atom_site_hse06_ddec_spin_density
 _atom_site_hse06_ddec_sum_bond_order
 _atom_site_hse06_magmom
 _atom_site_pbe_bader_spin_density
 _atom_site_pbe_cm5_charge
 _atom_site_pbe_ddec_charge
 _atom_site_pbe_ddec_spin_density
 _atom_site_pbe_ddec_sum_bond_order
 _atom_site_pbe_magmom
Ga  Ga0  1  0.00000139  0.50000111  0.00000034  1  0  1.741085  0  2.255769  0  0  1.578326  0  2.702496  0  0  1.636872  0  2.640678  0  0  0.595983  1.539436  0  2.744136  0
Ga  Ga1  1  0.50000574  0.00000014  0.99999979  1  0  1.727574  0  2.248461  0  0  1.565412  0  2.696776  0  0  1.62357  0  2.635018  0  0  0.587726  1.526951  0  2.738558  0
P  P2  1  0.47843614  0.46521282  0.22728591  1  0  1.573767  0  4.71691  0  0  1.408594  0  5.234092  0  0  1.459796  0  5.193885  0  0  0.394276  1.372947  0  5.261121  0
P  P3  1  0.52156441  0.53478816  0.77271453  1  0  1.573774  0  4.716996  0  0  1.408623  0  5.234173  0  0  1.459818  0  5.193971  0  0  0.394307  1.372974  0  5.261204  0
H  H4  1  0.81423408  0.54547227  0.46430541  1  0  0.138819  0  0.925361  0  0  0.15333  0  0.97865  0  0  0.155356  0  0.978829  0  0  0.114351  0.151848  0  0.978732  0
H  H5  1  0.18575671  0.45453360  0.53570212  1  0  0.138801  0  0.925424  0  0  0.153362  0  0.978686  0  0  0.155391  0  0.978862  0  0  0.114361  0.151877  0  0.978773  0
H  H6  1  0.63385264  0.73041747  0.50266306  1  0  0.143503  0  0.908534  0  0  0.16156  0  0.952182  0  0  0.163894  0  0.952072  0  0  0.11757  0.159824  0  0.952508  0
H  H7  1  0.36612842  0.26958049  0.49733499  1  0  0.143489  0  0.908568  0  0  0.161539  0  0.952227  0  0  0.163872  0  0.95212  0  0  0.117569  0.159803  0  0.952552  0
H  H8  1  0.76754939  0.85341466  0.17370139  1  0  0.448742  0  0.832605  0  0  0.414351  0  0.906357  0  0  0.425904  0  0.889355  0  0  0.313374  0.406289  0  0.918142  0
H  H9  1  0.23245839  0.14658468  0.82629877  1  0  0.448754  0  0.83257  0  0  0.414362  0  0.906339  0  0  0.425914  0  0.889339  0  0  0.313385  0.406297  0  0.918128  0
H  H10  1  0.98364751  0.07452164  0.17742350  1  0  0.446886  0  0.817486  0  0  0.413159  0  0.898961  0  0  0.424111  0  0.884104  0  0  0.319818  0.405539  0  0.908029  0
H  H11  1  0.01635752  0.92547612  0.82257499  1  0  0.446924  0  0.817388  0  0  0.413189  0  0.898888  0  0  0.42414  0  0.884056  0  0  0.319824  0.405568  0  0.907956  0
C  C12  1  0.60265389  0.56049054  0.45227855  1  0  -0.383872  0  3.671689  0  0  -0.40415  0  3.924902  0  0  -0.412412  0  3.933682  0  0  -0.154467  -0.398421  0  3.919171  0
C  C13  1  0.39733467  0.43951055  0.54772288  1  0  -0.38379  0  3.671794  0  0  -0.404107  0  3.925004  0  0  -0.412372  0  3.933791  0  0  -0.154502  -0.398375  0  3.919267  0
O  O14  1  0.71809517  0.58341004  0.14339905  1  0  -0.903152  0  2.083649  0  0  -0.813605  0  2.355403  0  0  -0.840703  0  2.330922  0  0  -0.317548  -0.793989  0  2.370873  0
O  O15  1  0.28190813  0.41659252  0.85660307  1  0  -0.903138  0  2.08367  0  0  -0.813589  0  2.355419  0  0  -0.840689  0  2.330942  0  0  -0.317541  -0.793974  0  2.37089  0
O  O16  1  0.40439926  0.22163372  0.16294616  1  0  -0.913475  0  2.063653  0  0  -0.826203  0  2.348113  0  0  -0.853492  0  2.322753  0  0  -0.32773  -0.806381  0  2.363913  0
O  O17  1  0.59560733  0.77836719  0.83705081  1  0  -0.913481  0  2.063606  0  0  -0.826249  0  2.348105  0  0  -0.853515  0  2.322712  0  0  -0.327754  -0.806426  0  2.363908  0
O  O18  1  0.20579490  0.51681880  0.20680845  1  0  -0.864663  0  1.994467  0  0  -0.789197  0  2.274657  0  0  -0.816638  0  2.25211  0  0  -0.328401  -0.769419  0  2.288759  0
O  O19  1  0.79420492  0.48318059  0.79318917  1  0  -0.864669  0  1.994507  0  0  -0.789208  0  2.274693  0  0  -0.816647  0  2.252145  0  0  -0.328405  -0.76943  0  2.288796  0
O  O20  1  0.78212429  0.00127526  0.18567868  1  0  -0.804972  0  1.866189  0  0  -0.752515  0  2.077574  0  0  -0.77177  0  2.042698  0  0  -0.509471  -0.738525  0  2.099805  0
O  O21  1  0.21788351  0.99872407  0.81432028  1  0  -0.805016  0  1.866035  0  0  -0.752561  0  2.07743  0  0  -0.771819  0  2.042583  0  0  -0.509501  -0.73857  0  2.09966  0
F  F22  1  0.80649794  0.19327460  0.93847053  1  0  -0.615975  0  1.005564  0  0  -0.537219  0  1.206521  0  0  -0.564288  0  1.188513  0  0  -0.213613  -0.52293  0  1.223538  0
F  F23  1  0.19351062  0.80672632  0.06152887  1  0  -0.615915  0  1.005505  0  0  -0.537205  0  1.206498  0  0  -0.564294  0  1.188511  0  0  -0.213611  -0.522916  0  1.223517  0
