# generated using pymatgen
data_PrH20C24Cl3O10
_symmetry_space_group_name_H-M   'P 1'
_cell_length_a   8.37864544
_cell_length_b   9.62837267
_cell_length_c   36.95261077
_cell_angle_alpha   90.00019813
_cell_angle_beta   89.99920029
_cell_angle_gamma   110.94089004
_symmetry_Int_Tables_number   1
_chemical_formula_structural   PrH20C24Cl3O10
_chemical_formula_sum   'Pr4 H80 C96 Cl12 O40'
_cell_volume   2784.16707298
_cell_formula_units_Z   4
loop_
 _symmetry_equiv_pos_site_id
 _symmetry_equiv_pos_as_xyz
  1  'x, y, z'
loop_
 _atom_site_type_symbol
 _atom_site_label
 _atom_site_symmetry_multiplicity
 _atom_site_fract_x
 _atom_site_fract_y
 _atom_site_fract_z
 _atom_site_occupancy
 _atom_site_pbe_bader_charge
 _atom_site_pbe_bader_spin_density
 _atom_site_pbe_cm5_charge
 _atom_site_pbe_ddec_charge
 _atom_site_pbe_ddec_spin_density
 _atom_site_pbe_ddec_sum_bond_order
 _atom_site_pbe_magmom
Pr  Pr0  1  0.47175602  0.73048310  0.24645036  1  2.260746  0  1.502984  2.112822  0  2.13646  0
Pr  Pr1  1  0.02825122  0.26951306  0.74645099  1  2.260847  0  1.503045  2.112732  0  2.136324  0
Pr  Pr2  1  0.52825377  0.26952555  0.75355091  1  2.260694  0  1.502913  2.112717  0  2.136549  0
Pr  Pr3  1  0.97175145  0.73049878  0.25354812  1  2.260828  0  1.503045  2.112774  0  2.136403  0
H  H4  1  0.91215005  0.87429084  0.15218900  1  0.105874  0  0.120566  0.112948  0  0.992036  0
H  H5  1  0.58783435  0.12569171  0.65219824  1  0.105818  0  0.120539  0.112844  0  0.992206  0
H  H6  1  0.08783667  0.12568317  0.84780659  1  0.105644  0  0.120527  0.112833  0  0.99214  0
H  H7  1  0.41215359  0.87430993  0.34780547  1  0.105743  0  0.120557  0.1129  0  0.992052  0
H  H8  1  0.85042562  0.67869531  0.15330585  1  0.13187  0  0.12478  0.129901  0  0.992791  0
H  H9  1  0.64955424  0.32128495  0.65331317  1  0.132216  0  0.124754  0.129857  0  0.992975  0
H  H10  1  0.14955322  0.32128298  0.84668920  1  0.13211  0  0.124726  0.129808  0  0.992919  0
H  H11  1  0.35042836  0.67871218  0.34668865  1  0.132117  0  0.124748  0.12977  0  0.9929  0
H  H12  1  0.63041738  0.74274613  0.05044123  1  0.126729  0  0.102107  0.117643  0  1.019554  0
H  H13  1  0.86958389  0.25724831  0.55044482  1  0.126886  0  0.102163  0.117753  0  1.019556  0
H  H14  1  0.36958456  0.25725466  0.94955679  1  0.126803  0  0.102133  0.117659  0  1.019593  0
H  H15  1  0.13041304  0.74274576  0.44955699  1  0.126795  0  0.102111  0.11766  0  1.019588  0
H  H16  1  0.57865362  0.94390539  0.01630769  1  0.109343  0  0.089645  0.097805  0  1.070942  0
H  H17  1  0.92135618  0.05608718  0.51631310  1  0.109454  0  0.089655  0.097776  0  1.070906  0
H  H18  1  0.42135706  0.05609334  0.98368871  1  0.10936  0  0.089717  0.097924  0  1.070852  0
H  H19  1  0.07864273  0.94390583  0.48369007  1  0.109184  0  0.089708  0.097922  0  1.070843  0
H  H20  1  0.69704609  0.21967091  0.11175943  1  0.094231  0  0.101585  0.111573  0  1.02238  0
H  H21  1  0.80295092  0.78032533  0.61176370  1  0.093851  0  0.101593  0.11153  0  1.022414  0
H  H22  1  0.30294613  0.78032639  0.88823778  1  0.093961  0  0.101575  0.111519  0  1.022357  0
H  H23  1  0.19704915  0.21967984  0.38824082  1  0.094075  0  0.101591  0.111592  0  1.022376  0
H  H24  1  0.74556247  0.01852894  0.14607186  1  0.050509  0  0.105388  0.116162  0  1.005441  0
H  H25  1  0.75442503  0.98146364  0.64607511  1  0.050363  0  0.105409  0.116142  0  1.005567  0
H  H26  1  0.25442157  0.98146270  0.85392698  1  0.046934  0  0.105392  0.11615  0  1.005509  0
H  H27  1  0.24556465  0.01854245  0.35392779  1  0.050482  0  0.105429  0.116167  0  1.005535  0
H  H28  1  0.42849807  0.20128693  0.19144786  1  0.074012  0  0.103349  0.084626  0  1.000833  0
H  H29  1  0.07150336  0.79871937  0.69145152  1  0.074132  0  0.10333  0.084584  0  1.000955  0
H  H30  1  0.57150002  0.79871931  0.80855044  1  0.07396  0  0.103345  0.084642  0  1.00087  0
H  H31  1  0.92850291  0.20129254  0.30855435  1  0.074292  0  0.10334  0.084615  0  1.000892  0
H  H32  1  0.47100594  0.07906156  0.15993765  1  0.118505  0  0.112878  0.103389  0  0.993566  0
H  H33  1  0.02902569  0.92094986  0.65994129  1  0.118966  0  0.112901  0.103477  0  0.993435  0
H  H34  1  0.52899008  0.92094244  0.84006119  1  0.119294  0  0.112911  0.103494  0  0.993415  0
H  H35  1  0.97097495  0.07904759  0.34006296  1  0.118887  0  0.112877  0.103431  0  0.9934  0
H  H36  1  0.03017905  0.05214467  0.10100312  1  0.089757  0  0.100526  0.113636  0  1.032106  0
H  H37  1  0.46982989  0.94783906  0.60100539  1  0.089512  0  0.100553  0.113663  0  1.032191  0
H  H38  1  0.96981635  0.94785159  0.89899463  1  0.089726  0  0.100553  0.113667  0  1.032144  0
H  H39  1  0.53017609  0.05216290  0.39899805  1  0.089659  0  0.100568  0.113654  0  1.032183  0
H  H40  1  0.06051105  0.22408673  0.04923604  1  0.108978  0  0.098159  0.110781  0  1.017753  0
H  H41  1  0.43948491  0.77590146  0.54923716  1  0.109539  0  0.098174  0.110765  0  1.017757  0
H  H42  1  0.93949517  0.77590971  0.95076172  1  0.108614  0  0.09819  0.110812  0  1.017688  0
H  H43  1  0.56049693  0.22409676  0.45076574  1  0.109276  0  0.098163  0.110785  0  1.017754  0
H  H44  1  0.53298554  0.52226297  0.09481380  1  0.122918  0  0.102487  0.118584  0  1.035282  0
H  H45  1  0.96700207  0.47773099  0.59481646  1  0.122753  0  0.102458  0.118532  0  1.035222  0
H  H46  1  0.46701490  0.47772785  0.90518666  1  0.122834  0  0.102477  0.118564  0  1.035307  0
H  H47  1  0.03297141  0.52228254  0.40518806  1  0.123154  0  0.102449  0.11855  0  1.035394  0
H  H48  1  0.50232426  0.35310627  0.14629376  1  0.050756  0  0.102239  0.116869  0  1.00932  0
H  H49  1  0.99768410  0.64688778  0.64629702  1  0.050805  0  0.102201  0.116847  0  1.009408  0
H  H50  1  0.49766853  0.64688331  0.85370751  1  0.050879  0  0.102239  0.116915  0  1.009395  0
H  H51  1  0.00231430  0.35312840  0.35370777  1  0.050979  0  0.102171  0.116773  0  1.009271  0
H  H52  1  0.26883008  0.53955419  0.15897776  1  0.129742  0  0.121592  0.11884  0  1.007882  0
H  H53  1  0.23117946  0.46041268  0.65897493  1  0.129718  0  0.121564  0.118738  0  1.007831  0
H  H54  1  0.73117951  0.46044784  0.84102460  1  0.129793  0  0.121625  0.11888  0  1.007833  0
H  H55  1  0.76883814  0.53957624  0.34101796  1  0.129632  0  0.121558  0.118794  0  1.007789  0
H  H56  1  0.13189731  0.36338448  0.17384748  1  0.063162  0  0.121883  0.120495  0  0.947795  0
H  H57  1  0.36809287  0.63659631  0.67384005  1  0.063566  0  0.12199  0.120564  0  0.947586  0
H  H58  1  0.86810646  0.63662407  0.82615704  1  0.063151  0  0.121936  0.120577  0  0.947604  0
H  H59  1  0.63190863  0.36340336  0.32614986  1  0.063445  0  0.121895  0.120442  0  0.947667  0
H  H60  1  0.84254745  0.42125221  0.07908528  1  0.085201  0  0.094789  0.105165  0  1.060259  0
H  H61  1  0.65746227  0.57873781  0.57907873  1  0.085148  0  0.094734  0.105072  0  1.060401  0
H  H62  1  0.15745886  0.57874755  0.92091789  1  0.085093  0  0.094756  0.105093  0  1.060365  0
H  H63  1  0.34256067  0.42125562  0.42091578  1  0.085332  0  0.094777  0.105146  0  1.06036  0
H  H64  1  0.86996793  0.60999582  0.03142103  1  0.085445  0  0.092961  0.101505  0  1.041878  0
H  H65  1  0.63006057  0.38999811  0.53141251  1  0.084805  0  0.092928  0.101421  0  1.041856  0
H  H66  1  0.13004439  0.39000405  0.96858241  1  0.085102  0  0.092913  0.101424  0  1.041859  0
H  H67  1  0.36996401  0.60999646  0.46858038  1  0.085259  0  0.092958  0.101492  0  1.041906  0
H  H68  1  0.29779081  0.92005439  0.08853793  1  0.086916  0  0.09895  0.11292  0  1.018235  0
H  H69  1  0.20223532  0.07992861  0.58852971  1  0.087599  0  0.098949  0.112869  0  1.018284  0
H  H70  1  0.70221944  0.07994323  0.91146551  1  0.087317  0  0.098959  0.1129  0  1.01818  0
H  H71  1  0.79778358  0.92006364  0.41146290  1  0.08736  0  0.098956  0.113002  0  1.018166  0
H  H72  1  0.27315530  0.73337647  0.13585714  1  0.069615  0  0.104098  0.122448  0  1.021987  0
H  H73  1  0.22685121  0.26660041  0.63584955  1  0.069999  0  0.104144  0.12262  0  1.021732  0
H  H74  1  0.72684741  0.26662323  0.86414657  1  0.069864  0  0.104075  0.122488  0  1.021892  0
H  H75  1  0.77316015  0.73339392  0.36414171  1  0.069584  0  0.104079  0.122413  0  1.021938  0
H  H76  1  0.35469895  0.38400364  0.23170421  1  0.609271  0  0.333008  0.408643  0  0.870362  0
H  H77  1  0.14529417  0.61598462  0.73170098  1  0.609282  0  0.333031  0.408762  0  0.870284  0
H  H78  1  0.64528826  0.61598695  0.76829896  1  0.609439  0  0.332996  0.408684  0  0.870394  0
H  H79  1  0.85470560  0.38401060  0.26829569  1  0.609361  0  0.333033  0.408726  0  0.870267  0
H  H80  1  0.55018799  0.46488588  0.23876731  1  0.606235  0  0.308485  0.387206  0  0.941957  0
H  H81  1  0.94980890  0.53509642  0.73876899  1  0.606236  0  0.308523  0.387311  0  0.941824  0
H  H82  1  0.44980086  0.53510584  0.76123207  1  0.606148  0  0.308481  0.387244  0  0.941931  0
H  H83  1  0.05019156  0.46492200  0.26123309  1  0.606014  0  0.308542  0.387342  0  0.941796  0
C  C84  1  0.68288163  0.75886550  0.18204512  1  1.530636  0  0.214576  0.640834  0  4.119473  0
C  C85  1  0.81712280  0.24112719  0.68204751  1  1.530478  0  0.214633  0.641049  0  4.11942  0
C  C86  1  0.31711073  0.24112297  0.81795209  1  1.53027  0  0.214638  0.640916  0  4.119258  0
C  C87  1  0.18286765  0.75887781  0.31795241  1  1.530311  0  0.21446  0.640682  0  4.119603  0
C  C88  1  0.80091650  0.76957705  0.15036436  1  0.422773  0  -0.055642  -0.135835  0  3.884444  0
C  C89  1  0.69906581  0.23041210  0.65037009  1  0.422578  0  -0.055614  -0.135761  0  3.884718  0
C  C90  1  0.19907051  0.23040691  0.84963258  1  0.422521  0  -0.055604  -0.13576  0  3.884667  0
C  C91  1  0.30091699  0.76959166  0.34963254  1  0.422506  0  -0.055637  -0.135696  0  3.884682  0
C  C92  1  0.69127815  0.86699857  0.10024850  1  0.435603  0  0.081141  0.246643  0  4.049557  0
C  C93  1  0.80871632  0.13299548  0.60025271  1  0.435582  0  0.081346  0.247047  0  4.048625  0
C  C94  1  0.30871604  0.13299766  0.89974926  1  0.435583  0  0.081285  0.246705  0  4.049035  0
C  C95  1  0.19127807  0.86700738  0.39974938  1  0.435626  0  0.08122  0.246727  0  4.048959  0
C  C96  1  0.64388117  0.84721399  0.06373937  1  -0.043566  0  -0.098615  -0.168618  0  3.974473  0
C  C97  1  0.85612185  0.15278704  0.56374345  1  -0.043066  0  -0.098713  -0.168859  0  3.974212  0
C  C98  1  0.35612241  0.15278793  0.93625838  1  -0.043566  0  -0.0987  -0.168693  0  3.974388  0
C  C99  1  0.14387571  0.84721477  0.43625945  1  -0.043634  0  -0.098683  -0.168741  0  3.974369  0
C  C100  1  0.61476212  0.95998794  0.04468182  1  0.016548  0  -0.09929  -0.13378  0  4.034121  0
C  C101  1  0.88524202  0.04000989  0.54468787  1  0.016543  0  -0.099223  -0.133761  0  4.034223  0
C  C102  1  0.38524266  0.04001400  0.95531486  1  0.016883  0  -0.099369  -0.134012  0  4.034423  0
C  C103  1  0.11475828  0.95998976  0.45531666  1  0.016923  0  -0.099333  -0.133966  0  4.034183  0
C  C104  1  0.63399864  0.09396849  0.06202334  1  0.008936  0  -0.000536  0.117697  0  4.070117  0
C  C105  1  0.86599895  0.90602141  0.56202968  1  0.008672  0  -0.000611  0.117717  0  4.0699  0
C  C106  1  0.36599959  0.90602892  0.93797387  1  0.008781  0  -0.000564  0.117685  0  4.070069  0
C  C107  1  0.13400169  0.09397604  0.43797484  1  0.008679  0  -0.000468  0.117855  0  4.069965  0
C  C108  1  0.68041203  0.11467739  0.09839554  1  -0.013952  0  -0.100293  -0.141233  0  4.030418  0
C  C109  1  0.81958453  0.88531561  0.59840120  1  -0.013624  0  -0.100218  -0.141108  0  4.030426  0
C  C110  1  0.31958096  0.88531882  0.90160222  1  -0.013107  0  -0.100232  -0.141116  0  4.030353  0
C  C111  1  0.18041433  0.11468954  0.40160441  1  -0.013264  0  -0.100358  -0.14139  0  4.030528  0
C  C112  1  0.70830789  0.00047832  0.11771884  1  -0.009044  0  -0.110783  -0.209336  0  4.021271  0
C  C113  1  0.79168613  0.99951121  0.61772388  1  -0.00951  0  -0.110873  -0.209435  0  4.021265  0
C  C114  1  0.29168140  0.99951451  0.88227892  1  -0.006215  0  -0.110784  -0.20932  0  4.021433  0
C  C115  1  0.20830946  0.00049167  0.38227929  1  -0.009683  0  -0.110775  -0.209218  0  4.021205  0
C  C116  1  0.31826709  0.97160016  0.20528258  1  1.63122  0  0.237923  0.676504  0  4.136652  0
C  C117  1  0.18173643  0.02839837  0.70528629  1  1.630873  0  0.237964  0.676519  0  4.136541  0
C  C118  1  0.68173778  0.02840509  0.79471707  1  1.631472  0  0.238001  0.67661  0  4.136593  0
C  C119  1  0.81826306  0.97161452  0.29471471  1  1.631558  0  0.237919  0.676438  0  4.136684  0
C  C120  1  0.37051738  0.09432104  0.17698993  1  0.371139  0  -0.062428  -0.118113  0  3.8953  0
C  C121  1  0.12949516  0.90567781  0.67699296  1  0.370503  0  -0.062442  -0.11825  0  3.895124  0
C  C122  1  0.62948008  0.90567746  0.82300864  1  0.37038  0  -0.062475  -0.118312  0  3.895231  0
C  C123  1  0.87050894  0.09432854  0.32301021  1  0.370368  0  -0.062397  -0.118134  0  3.895024  0
C  C124  1  0.26189720  0.19122517  0.12717012  1  0.338635  0  0.069555  0.224642  0  4.071329  0
C  C125  1  0.23810535  0.80876162  0.62717164  1  0.338513  0  0.0697  0.224595  0  4.071355  0
C  C126  1  0.73809209  0.80876766  0.87282980  1  0.338804  0  0.069638  0.224832  0  4.071143  0
C  C127  1  0.76188890  0.19125007  0.37283261  1  0.33841  0  0.069592  0.224429  0  4.071141  0
C  C128  1  0.13902893  0.15602329  0.09967210  1  0.045011  0  -0.102783  -0.175588  0  3.994317  0
C  C129  1  0.36097461  0.84396477  0.59967218  1  0.045381  0  -0.102869  -0.175716  0  3.994709  0
C  C130  1  0.86096690  0.84397408  0.90032728  1  0.045105  0  -0.102783  -0.175619  0  3.994328  0
C  C131  1  0.63902131  0.15603591  0.40033099  1  0.045678  0  -0.10283  -0.175492  0  3.994518  0
C  C132  1  0.15596244  0.25222679  0.07068364  1  0.020621  0  -0.094941  -0.124023  0  4.004435  0
C  C133  1  0.34403671  0.74776686  0.57068369  1  0.020142  0  -0.094909  -0.123864  0  4.004418  0
C  C134  1  0.84403820  0.74777066  0.92931574  1  0.021045  0  -0.094976  -0.124061  0  4.004416  0
C  C135  1  0.65595277  0.25223260  0.42931867  1  0.020105  0  -0.094957  -0.124068  0  4.004217  0
C  C136  1  0.29785408  0.38398625  0.06912688  1  -0.013929  0  0.000297  0.125669  0  4.07426  0
C  C137  1  0.20213392  0.61600611  0.56912699  1  -0.014498  0  0.000226  0.125586  0  4.074258  0
C  C138  1  0.70214689  0.61600899  0.93087304  1  -0.015173  0  0.000331  0.12575  0  4.074247  0
C  C139  1  0.79784667  0.38400423  0.43087671  1  -0.015174  0  0.000319  0.125726  0  4.074337  0
C  C140  1  0.42223889  0.41965457  0.09610044  1  0.016386  0  -0.102213  -0.137501  0  4.014523  0
C  C141  1  0.07775503  0.58033886  0.59610091  1  0.016915  0  -0.102108  -0.137337  0  4.014313  0
C  C142  1  0.57775881  0.58033842  0.90390056  1  0.01715  0  -0.102207  -0.137486  0  4.014415  0
C  C143  1  0.92222490  0.41967589  0.40390171  1  0.016757  0  -0.102226  -0.137644  0  4.01478  0
C  C144  1  0.40480945  0.32277645  0.12525154  1  0.001971  0  -0.113006  -0.211102  0  4.026633  0
C  C145  1  0.09518654  0.67721465  0.62525448  1  0.001668  0  -0.113088  -0.211167  0  4.026629  0
C  C146  1  0.59518103  0.67721641  0.87474838  1  0.001508  0  -0.113082  -0.211295  0  4.026471  0
C  C147  1  0.90480190  0.32280356  0.37474895  1  0.001682  0  -0.112991  -0.210909  0  4.026223  0
C  C148  1  0.07719174  0.54259534  0.19735451  1  1.535564  0  0.220335  0.62882  0  4.147636  0
C  C149  1  0.42281696  0.45741216  0.69735243  1  1.5355  0  0.220434  0.628967  0  4.147321  0
C  C150  1  0.92282348  0.45742114  0.80264839  1  1.536143  0  0.220472  0.629087  0  4.147475  0
C  C151  1  0.57718942  0.54260306  0.30264425  1  1.535706  0  0.220394  0.628865  0  4.147448  0
C  C152  1  0.13449085  0.47383323  0.16527303  1  0.462264  0  -0.05764  -0.129246  0  3.906798  0
C  C153  1  0.36551925  0.52613913  0.66526875  1  0.461883  0  -0.057805  -0.12933  0  3.906938  0
C  C154  1  0.86551733  0.52616214  0.83472987  1  0.461887  0  -0.05782  -0.129593  0  3.907081  0
C  C155  1  0.63449408  0.47385413  0.33472576  1  0.462532  0  -0.057688  -0.12917  0  3.906771  0
C  C156  1  0.05266243  0.56452976  0.11075635  1  0.423162  0  0.075844  0.240927  0  4.051341  0
C  C157  1  0.44734435  0.43545609  0.61074875  1  0.422261  0  0.075756  0.240715  0  4.051701  0
C  C158  1  0.94734672  0.43547116  0.88924790  1  0.421718  0  0.075755  0.240838  0  4.051508  0
C  C159  1  0.55266450  0.56453488  0.38924386  1  0.422585  0  0.075729  0.240706  0  4.05158  0
C  C160  1  0.94063673  0.53129689  0.08125471  1  -0.034071  0  -0.10545  -0.177937  0  3.994865  0
C  C161  1  0.55936554  0.46868967  0.58124810  1  -0.033401  0  -0.10547  -0.177769  0  3.994609  0
C  C162  1  0.05937001  0.46870398  0.91874819  1  -0.033874  0  -0.105481  -0.177898  0  3.994892  0
C  C163  1  0.44064418  0.53130352  0.41874532  1  -0.034141  0  -0.105466  -0.177836  0  3.994928  0
C  C164  1  0.95606446  0.63671402  0.05458923  1  0.048568  0  -0.097857  -0.127724  0  4.022559  0
C  C165  1  0.54395090  0.36326519  0.55458176  1  0.049238  0  -0.097786  -0.127609  0  4.022501  0
C  C166  1  0.04394055  0.36328240  0.94541421  1  0.049092  0  -0.097795  -0.127619  0  4.022347  0
C  C167  1  0.45606540  0.63672039  0.44541166  1  0.049061  0  -0.097867  -0.127767  0  4.022545  0
C  C168  1  0.08458405  0.77674768  0.05750089  1  0.014595  0  -0.00133  0.119948  0  4.070364  0
C  C169  1  0.41544811  0.22323670  0.55749293  1  0.012878  0  -0.001402  0.119869  0  4.070904  0
C  C170  1  0.91542827  0.22325218  0.94250363  1  0.013698  0  -0.001336  0.120064  0  4.070377  0
C  C171  1  0.58457824  0.77675017  0.44249968  1  0.013819  0  -0.001327  0.120019  0  4.070372  0
C  C172  1  0.19694496  0.81108023  0.08675008  1  0.052325  0  -0.097357  -0.120847  0  4.001125  0
C  C173  1  0.30307734  0.18890492  0.58674326  1  0.051228  0  -0.097292  -0.120635  0  4.00156  0
C  C174  1  0.80306178  0.18892064  0.91325255  1  0.051419  0  -0.097404  -0.120943  0  4.001091  0
C  C175  1  0.69694286  0.81109067  0.41324989  1  0.051688  0  -0.0974  -0.121078  0  4.001139  0
C  C176  1  0.18149273  0.70474956  0.11366128  1  -0.046819  0  -0.111641  -0.208187  0  3.984376  0
C  C177  1  0.31851235  0.29522631  0.61365153  1  -0.04506  0  -0.111731  -0.208495  0  3.984646  0
C  C178  1  0.81851064  0.29524573  0.88634324  1  -0.044867  0  -0.111574  -0.208171  0  3.98428  0
C  C179  1  0.68149409  0.70476462  0.38633946  1  -0.045263  0  -0.111515  -0.207997  0  3.984039  0
Cl  Cl180  1  0.60071040  0.23512489  0.03759514  1  -0.227969  0  0.015443  -0.056951  0  1.639453  0
Cl  Cl181  1  0.89929429  0.76487631  0.53759990  1  -0.227728  0  0.015452  -0.057002  0  1.639611  0
Cl  Cl182  1  0.39929481  0.76487817  0.96240099  1  -0.227826  0  0.015456  -0.056941  0  1.63959  0
Cl  Cl183  1  0.10070644  0.23512445  0.46240543  1  -0.227934  0  0.015424  -0.056977  0  1.639367  0
Cl  Cl184  1  0.32048431  0.50294338  0.03264504  1  -0.230758  0  -0.002917  -0.086039  0  1.617344  0
Cl  Cl185  1  0.17950208  0.49705136  0.53264485  1  -0.230628  0  -0.002909  -0.086071  0  1.61742  0
Cl  Cl186  1  0.67952594  0.49705424  0.96735488  1  -0.230125  0  -0.002922  -0.086064  0  1.617305  0
Cl  Cl187  1  0.82046476  0.50295432  0.46735832  1  -0.23037  0  -0.002879  -0.086008  0  1.617524  0
Cl  Cl188  1  0.10397268  0.90767546  0.02396634  1  -0.231701  0  -0.000897  -0.080544  0  1.644868  0
Cl  Cl189  1  0.39606773  0.09231256  0.52395968  1  -0.231222  0  -0.000854  -0.080507  0  1.645128  0
Cl  Cl190  1  0.89604522  0.09232340  0.97603574  1  -0.231511  0  -0.000868  -0.080558  0  1.644989  0
Cl  Cl191  1  0.60396396  0.90767882  0.47603482  1  -0.231335  0  -0.000911  -0.080559  0  1.64477  0
O  O192  1  0.75080467  0.77290512  0.21419539  1  -1.227473  0  -0.464496  -0.772617  0  2.338835  0
O  O193  1  0.74920560  0.22711068  0.71420041  1  -1.227027  0  -0.464608  -0.772886  0  2.338841  0
O  O194  1  0.24920020  0.22710013  0.78580156  1  -1.227224  0  -0.464537  -0.772693  0  2.339029  0
O  O195  1  0.25079456  0.77289780  0.28580032  1  -1.226957  0  -0.464519  -0.772724  0  2.338813  0
O  O196  1  0.52625408  0.73556262  0.17832005  1  -1.173949  0  -0.349383  -0.582882  0  2.199114  0
O  O197  1  0.97372422  0.26440533  0.67832087  1  -1.17424  0  -0.349294  -0.582814  0  2.199409  0
O  O198  1  0.47373765  0.26441811  0.82168014  1  -1.173866  0  -0.349408  -0.582939  0  2.198897  0
O  O199  1  0.02626503  0.73559964  0.32167932  1  -1.174243  0  -0.349232  -0.582651  0  2.199479  0
O  O200  1  0.71979645  0.74915262  0.11617907  1  -1.079644  0  -0.174466  -0.169619  0  2.59779  0
O  O201  1  0.78016839  0.25083530  0.61618511  1  -1.079583  0  -0.174687  -0.169822  0  2.597932  0
O  O202  1  0.28017918  0.25083886  0.88381787  1  -1.079416  0  -0.174549  -0.169471  0  2.597834  0
O  O203  1  0.21980821  0.74916173  0.38381617  1  -1.079375  0  -0.174532  -0.169583  0  2.59804  0
O  O204  1  0.44178764  0.95210207  0.22188283  1  -1.203375  0  -0.4125  -0.682118  0  2.218543  0
O  O205  1  0.05824737  0.04790024  0.72188559  1  -1.203621  0  -0.412381  -0.681899  0  2.219108  0
O  O206  1  0.55821299  0.04789538  0.77811520  1  -1.203692  0  -0.412488  -0.682167  0  2.21842  0
O  O207  1  0.94175333  0.95211267  0.27811460  1  -1.203671  0  -0.412435  -0.681958  0  2.219128  0
O  O208  1  0.16133164  0.89853106  0.21092002  1  -1.222183  0  -0.400615  -0.667951  0  2.267758  0
O  O209  1  0.33870972  0.10148577  0.71092140  1  -1.221783  0  -0.400799  -0.668146  0  2.267032  0
O  O210  1  0.83866545  0.10148178  0.78908125  1  -1.222255  0  -0.400707  -0.667974  0  2.267906  0
O  O211  1  0.66129008  0.89853706  0.28907933  1  -1.222185  0  -0.400715  -0.668091  0  2.26722  0
O  O212  1  0.22836461  0.09126596  0.15565174  1  -1.085294  0  -0.189844  -0.195484  0  2.56591  0
O  O213  1  0.27165415  0.90872096  0.65565541  1  -1.084844  0  -0.189809  -0.195276  0  2.565622  0
O  O214  1  0.77162915  0.90872916  0.84434764  1  -1.085247  0  -0.18986  -0.195481  0  2.565869  0
O  O215  1  0.72834505  0.09128198  0.34434803  1  -1.084984  0  -0.189813  -0.195362  0  2.565626  0
O  O216  1  0.18183290  0.58118494  0.22476460  1  -1.24136  0  -0.430733  -0.775536  0  2.376873  0
O  O217  1  0.31818707  0.41881598  0.72476146  1  -1.241125  0  -0.430771  -0.775566  0  2.377049  0
O  O218  1  0.81818035  0.41883261  0.77523829  1  -1.241218  0  -0.430716  -0.775557  0  2.376818  0
O  O219  1  0.68181730  0.58121245  0.27523386  1  -1.24141  0  -0.430776  -0.775518  0  2.377126  0
O  O220  1  0.93370894  0.55637495  0.19865509  1  -1.185037  0  -0.349296  -0.595162  0  2.193073  0
O  O221  1  0.56632643  0.44365684  0.69865765  1  -1.18522  0  -0.349308  -0.595122  0  2.192527  0
O  O222  1  0.06630027  0.44364142  0.80134510  1  -1.185589  0  -0.349394  -0.595205  0  2.19287  0
O  O223  1  0.43367426  0.55635607  0.30134417  1  -1.185187  0  -0.349339  -0.595198  0  2.19254  0
O  O224  1  0.02514494  0.44925297  0.13508805  1  -1.085811  0  -0.184381  -0.179981  0  2.570872  0
O  O225  1  0.47485887  0.55072607  0.63508263  1  -1.086177  0  -0.184214  -0.179808  0  2.571233  0
O  O226  1  0.97486027  0.55075008  0.86491539  1  -1.085619  0  -0.18424  -0.179847  0  2.571019  0
O  O227  1  0.52515926  0.44926727  0.36491134  1  -1.086852  0  -0.184262  -0.179848  0  2.571183  0
O  O228  1  0.45657527  0.46030854  0.22209204  1  -1.199831  0  -0.58621  -0.781625  0  2.020059  0
O  O229  1  0.04341543  0.53967201  0.72209151  1  -1.199858  0  -0.586289  -0.781867  0  2.019768  0
O  O230  1  0.54340757  0.53968308  0.77790977  1  -1.199904  0  -0.586211  -0.781737  0  2.019974  0
O  O231  1  0.95657065  0.46033402  0.27790733  1  -1.199791  0  -0.586312  -0.78187  0  2.01972  0
