# generated using pymatgen
data_Zn2H17C25N8O5
_symmetry_space_group_name_H-M   'P 1'
_cell_length_a   15.40724608
_cell_length_b   14.56386304
_cell_length_c   23.66841305
_cell_angle_alpha   86.74025598
_cell_angle_beta   86.75974700
_cell_angle_gamma   78.01994060
_symmetry_Int_Tables_number   1
_chemical_formula_structural   Zn2H17C25N8O5
_chemical_formula_sum   'Zn8 H68 C100 N32 O20'
_cell_volume   5181.41309220
_cell_formula_units_Z   4
loop_
 _symmetry_equiv_pos_site_id
 _symmetry_equiv_pos_as_xyz
  1  'x, y, z'
loop_
 _atom_site_type_symbol
 _atom_site_label
 _atom_site_symmetry_multiplicity
 _atom_site_fract_x
 _atom_site_fract_y
 _atom_site_fract_z
 _atom_site_occupancy
 _atom_site_pbe_bader_charge
 _atom_site_pbe_bader_spin_density
 _atom_site_pbe_cm5_charge
 _atom_site_pbe_ddec_charge
 _atom_site_pbe_ddec_spin_density
 _atom_site_pbe_ddec_sum_bond_order
 _atom_site_pbe_magmom
Zn  Zn0  1  0.55547739  0.53913095  0.44379113  1  1.182881  0  0.73943  0.604395  0  2.573002  0
Zn  Zn1  1  0.38660077  0.44396820  0.40648657  1  1.182092  0  0.75573  0.64662  0  2.401513  0
Zn  Zn2  1  0.07210261  0.05173372  0.94312051  1  1.181193  0  0.740025  0.598976  0  2.585646  0
Zn  Zn3  1  0.89967299  0.96366122  0.90509359  1  1.179732  0  0.756234  0.647384  0  2.405452  0
Zn  Zn4  1  0.37474530  0.44882829  0.53205102  1  1.18544  0  0.749666  0.652546  0  2.446665  0
Zn  Zn5  1  0.57600864  0.54372169  0.58380287  1  1.207121  0  0.739657  0.652199  0  2.466116  0
Zn  Zn6  1  0.88516840  0.96729120  0.02979860  1  1.182194  0  0.749615  0.648546  0  2.460268  0
Zn  Zn7  1  0.08628075  0.05513482  0.08432955  1  1.20924  0  0.741237  0.655086  0  2.459058  0
H  H8  1  0.43782425  0.74280040  0.42685679  1  0.107881  0  0.116848  0.099545  0  1.02697  0
H  H9  1  0.44624434  0.39759860  0.27924756  1  0.076638  0  0.118862  0.105821  0  0.990923  0
H  H10  1  0.96321955  0.25844655  0.92760574  1  0.09274  0  0.117384  0.100626  0  1.035887  0
H  H11  1  0.95823535  0.91150749  0.78046614  1  0.083532  0  0.119626  0.106157  0  0.990612  0
H  H12  1  0.74083012  0.44893022  0.23396080  1  0.062528  0  0.095244  0.093224  0  1.008199  0
H  H13  1  0.13130112  0.71404774  0.39930454  1  0.030211  0  0.0969  0.096939  0  1.005608  0
H  H14  1  0.26281069  0.93510930  0.73861196  1  0.050611  0  0.094967  0.093069  0  1.008494  0
H  H15  1  0.64373943  0.28243527  0.92409671  1  0.048757  0  0.098315  0.098767  0  0.999803  0
H  H16  1  0.89792634  0.33500819  0.58357578  1  0.053733  0  0.101943  0.102804  0  0.999908  0
H  H17  1  0.05517643  0.33827511  0.57100239  1  0.034605  0  0.098221  0.096025  0  1.009287  0
H  H18  1  0.41933875  0.81214096  0.07322800  1  0.068029  0  0.097721  0.09718  0  1.002341  0
H  H19  1  0.57682542  0.82096252  0.05916341  1  0.044975  0  0.096957  0.094865  0  1.007392  0
H  H20  1  0.03795284  0.33852426  0.38980177  1  0.048649  0  0.096306  0.094694  0  1.005602  0
H  H21  1  0.88017811  0.33424247  0.40237745  1  0.043455  0  0.09719  0.098128  0  1.004403  0
H  H22  1  0.53441067  0.91503279  0.88513277  1  0.022735  0  0.097301  0.095436  0  1.005351  0
H  H23  1  0.37778702  0.90460742  0.89882861  1  0.047408  0  0.095971  0.094142  0  1.01081  0
H  H24  1  0.18127101  0.38537057  0.56270451  1  0.055165  0  0.117443  0.102283  0  1.011309  0
H  H25  1  0.74733909  0.38904405  0.59451047  1  0.107063  0  0.122825  0.115838  0  0.995349  0
H  H26  1  0.68304636  0.91714551  0.05754194  1  0.101906  0  0.116578  0.102004  0  1.012751  0
H  H27  1  0.26529714  0.91293342  0.09040522  1  0.075745  0  0.119834  0.110866  0  0.997357  0
H  H28  1  0.44502388  0.71549868  0.62044544  1  0.102548  0  0.117635  0.106964  0  1.00858  0
H  H29  1  0.51489352  0.37396817  0.75639280  1  0.050884  0  0.102468  0.088417  0  1.007731  0
H  H30  1  0.94878464  0.22949061  0.12483152  1  0.113062  0  0.118916  0.109768  0  1.006727  0
H  H31  1  0.06050447  0.81098989  0.22134157  1  0.049037  0  0.100466  0.088016  0  1.011777  0
H  H32  1  0.22311404  0.59185074  0.44887338  1  0.117769  0  0.120876  0.11505  0  1.006618  0
H  H33  1  0.67700079  0.48810759  0.33306842  1  0.099959  0  0.118168  0.1034  0  1.001275  0
H  H34  1  0.74015145  0.11942886  0.94515429  1  0.095027  0  0.122301  0.11755  0  1.004966  0
H  H35  1  0.19576446  0.98911387  0.83347663  1  0.087617  0  0.11742  0.100825  0  1.005357  0
H  H36  1  0.52007911  0.91055145  0.41602652  1  0.07716  0  0.10089  0.106519  0  1.007755  0
H  H37  1  0.48405314  0.08055823  0.41322332  1  0.045363  0  0.10042  0.099887  0  1.009255  0
H  H38  1  0.02677007  0.41876360  0.91849105  1  0.073282  0  0.100576  0.105012  0  1.006756  0
H  H39  1  0.98616913  0.58881126  0.91505904  1  0.050076  0  0.101709  0.101427  0  1.00672  0
H  H40  1  0.75355007  0.14935018  0.52911855  1  0.625976  0  0.335541  0.382949  0  0.873677  0
H  H41  1  0.74251863  0.87234986  0.63746791  1  0.630151  0  0.345737  0.391923  0  0.844453  0
H  H42  1  0.27008098  0.65854947  0.07025562  1  0.621966  0  0.337956  0.38715  0  0.870391  0
H  H43  1  0.25178396  0.38550350  0.13730239  1  0.622119  0  0.342391  0.384572  0  0.859726  0
H  H44  1  0.63855968  0.04263288  0.63867226  1  0.628636  0  0.324315  0.366103  0  0.907113  0
H  H45  1  0.83274423  0.94939059  0.54063332  1  0.632158  0  0.32935  0.385618  0  0.885998  0
H  H46  1  0.14691167  0.55766741  0.14073906  1  0.62993  0  0.325551  0.368926  0  0.903492  0
H  H47  1  0.33673565  0.47323696  0.04447584  1  0.631801  0  0.3228  0.374633  0  0.903362  0
H  H48  1  0.35851490  0.81813222  0.67983682  1  0.056742  0  0.100592  0.10232  0  1.001634  0
H  H49  1  0.56176196  0.37926066  0.84843932  1  0.080971  0  0.099424  0.101391  0  1.002977  0
H  H50  1  0.84607802  0.33790561  0.17617320  1  0.051434  0  0.100118  0.101246  0  1.002656  0
H  H51  1  0.05579163  0.81216739  0.32208295  1  0.062263  0  0.097647  0.098729  0  1.004681  0
H  H52  1  0.56253667  0.25603341  0.24985647  1  0.034257  0  0.094824  0.095275  0  1.010633  0
H  H53  1  0.34408512  0.86647928  0.38031188  1  0.051749  0  0.09409  0.093602  0  1.013102  0
H  H54  1  0.06205411  0.76758653  0.75021226  1  0.035591  0  0.093807  0.093301  0  1.013952  0
H  H55  1  0.88825387  0.34402497  0.84946165  1  -0.000241  0  0.092618  0.091464  0  1.015043  0
H  H56  1  0.15626721  0.65216201  0.68912471  1  0.081931  0  0.097112  0.107318  0  1.025064  0
H  H57  1  0.80797229  0.43627793  0.77310111  1  0.019716  0  0.090603  0.082129  0  1.03576  0
H  H58  1  0.66625163  0.14602321  0.19034800  1  0.090796  0  0.09749  0.108415  0  1.029418  0
H  H59  1  0.27176900  0.95980820  0.30105917  1  0.033121  0  0.091072  0.085162  0  1.029094  0
H  H60  1  0.26382743  0.45950575  0.64719608  1  0.593684  0  0.344848  0.373589  0  0.862199  0
H  H61  1  0.74380357  0.55708184  0.73299578  1  0.609296  0  0.327988  0.361191  0  0.898119  0
H  H62  1  0.77709882  0.96411750  0.14103279  1  0.637677  0  0.345646  0.373973  0  0.862144  0
H  H63  1  0.18087255  0.07851335  0.26404677  1  0.624282  0  0.329114  0.362268  0  0.893432  0
H  H64  1  0.18909936  0.37273755  0.38012602  1  0.080227  0  0.117208  0.106648  0  0.998272  0
H  H65  1  0.72380443  0.38023927  0.41329925  1  0.075151  0  0.11148  0.098327  0  1.02688  0
H  H66  1  0.70103406  0.90062020  0.87510080  1  0.090884  0  0.118378  0.107772  0  0.996937  0
H  H67  1  0.22898477  0.88383415  0.91257168  1  0.064791  0  0.112412  0.09988  0  1.025671  0
H  H68  1  0.63450350  0.81059209  0.60268955  1  0.643306  0  0.303445  0.353287  0  0.981348  0
H  H69  1  0.55857501  0.18632958  0.59235803  1  0.658287  0  0.306722  0.359634  0  0.961467  0
H  H70  1  0.13997299  0.32461059  0.10482316  1  0.653181  0  0.303865  0.35548  0  0.975448  0
H  H71  1  0.05872615  0.70245374  0.09267599  1  0.646161  0  0.309549  0.361276  0  0.951625  0
H  H72  1  0.60389844  0.69248836  0.37336695  1  0.628749  0  0.334483  0.362876  0  0.886432  0
H  H73  1  0.56356259  0.17846069  0.37277636  1  0.622005  0  0.338295  0.370818  0  0.87988  0
H  H74  1  0.13102286  0.20007216  0.87509884  1  0.609111  0  0.334721  0.363219  0  0.886138  0
H  H75  1  0.06635021  0.68779083  0.87307687  1  0.647622  0  0.338874  0.372436  0  0.878066  0
C  C76  1  0.39488029  0.69296127  0.43615998  1  0.436183  0  0.022596  -0.018031  0  3.907919  0
C  C77  1  0.49412398  0.42850045  0.29951289  1  0.436649  0  0.010219  -0.038897  0  3.974493  0
C  C78  1  0.91793109  0.21071420  0.93562406  1  0.404554  0  0.019014  -0.024337  0  3.920802  0
C  C79  1  0.00815985  0.93985023  0.80036051  1  0.406353  0  0.010484  -0.036709  0  3.971059  0
C  C80  1  0.32225359  0.65697430  0.64393230  1  0.053399  0  -0.041199  -0.150698  0  4.05011  0
C  C81  1  0.63025293  0.44839241  0.75197122  1  0.020497  0  -0.07306  -0.220439  0  4.142229  0
C  C82  1  0.82768899  0.16603464  0.14490088  1  0.022736  0  -0.042658  -0.154125  0  4.056003  0
C  C83  1  0.12568760  0.92624065  0.24787824  1  0.003769  0  -0.074956  -0.224741  0  4.147912  0
C  C84  1  0.14783158  0.36451184  0.47323174  1  0.044154  0  -0.035376  -0.03684  0  4.080219  0
C  C85  1  0.77752139  0.36313517  0.50114843  1  -0.039639  0  -0.044322  -0.064525  0  4.099678  0
C  C86  1  0.65543274  0.89432247  0.96742413  1  0.019683  0  -0.035271  -0.035792  0  4.090188  0
C  C87  1  0.28892665  0.87959466  0.99777281  1  0.018312  0  -0.041672  -0.051813  0  4.095455  0
C  C88  1  0.61611452  0.79101135  0.49143932  1  0.048342  0  -0.06449  -0.294593  0  4.074525  0
C  C89  1  0.54047737  0.20029449  0.47980824  1  0.068383  0  -0.075226  -0.333746  0  4.125658  0
C  C90  1  0.12784193  0.30261003  0.99344146  1  0.077226  0  -0.064638  -0.293355  0  4.080112  0
C  C91  1  0.04109720  0.71198218  0.97982110  1  0.021637  0  -0.070419  -0.323119  0  4.116073  0
C  C92  1  0.64697952  0.94603754  0.51989927  1  0.053785  0  -0.029641  -0.111403  0  3.909594  0
C  C93  1  0.62895244  0.04411778  0.51656860  1  -0.125025  0  -0.035039  -0.128213  0  3.989687  0
C  C94  1  0.15228687  0.46003358  0.02161040  1  -0.163167  0  -0.028101  -0.108925  0  3.91395  0
C  C95  1  0.13133523  0.55810391  0.01821414  1  0.02816  0  -0.030622  -0.109101  0  3.937848  0
C  C96  1  0.60833016  0.89191242  0.48539947  1  -0.002045  0  -0.00279  0.131997  0  4.028748  0
C  C97  1  0.56960478  0.09881853  0.47963515  1  -0.016358  0  -0.017868  0.107057  0  4.094315  0
C  C98  1  0.11589902  0.40400002  0.98719488  1  0.041962  0  -0.004125  0.129503  0  4.035291  0
C  C99  1  0.07116367  0.61069631  0.98082749  1  0.014297  0  -0.010945  0.116464  0  4.076652  0
C  C100  1  0.55278396  0.94668515  0.44491652  1  0.041219  0  -0.089442  -0.120763  0  3.953662  0
C  C101  1  0.53364091  0.04460769  0.44257800  1  -0.136327  0  -0.096665  -0.151176  0  3.994979  0
C  C102  1  0.05856872  0.45655851  0.94699195  1  -0.050043  0  -0.08636  -0.116789  0  3.952552  0
C  C103  1  0.03660601  0.55453114  0.94433127  1  0.016105  0  -0.096568  -0.156062  0  3.994193  0
C  C104  1  0.69135875  0.05233770  0.56240793  1  1.040899  0  0.145696  0.367167  0  3.949001  0
C  C105  1  0.71400122  0.93971583  0.56559805  1  0.962636  0  0.153844  0.382511  0  3.907994  0
C  C106  1  0.19394970  0.56857333  0.06345019  1  1.001241  0  0.147712  0.376361  0  3.924171  0
C  C107  1  0.21965659  0.45577009  0.06670279  1  1.001864  0  0.147741  0.367868  0  3.916162  0
C  C108  1  0.29306965  0.80670633  0.69454539  1  -0.031673  0  -0.096136  -0.135041  0  3.988057  0
C  C109  1  0.63373946  0.37106309  0.84829785  1  -0.051215  0  -0.099031  -0.136238  0  3.983522  0
C  C110  1  0.78385135  0.31920707  0.19200527  1  0.006802  0  -0.096563  -0.135424  0  3.996537  0
C  C111  1  0.11971364  0.82360194  0.33447723  1  -0.00664  0  -0.101818  -0.14048  0  3.995098  0
C  C112  1  0.72439102  0.38207411  0.22480220  1  -0.066917  0  -0.102262  -0.14162  0  4.029268  0
C  C113  1  0.16244375  0.76858507  0.37846789  1  -0.117117  0  -0.099198  -0.130751  0  4.025  0
C  C114  1  0.23906411  0.87284443  0.72811445  1  0.031156  0  -0.100314  -0.1395  0  4.027879  0
C  C115  1  0.68022123  0.31652458  0.89117566  1  -0.077132  0  -0.099016  -0.133063  0  4.022207  0
C  C116  1  0.64339623  0.36111769  0.24631060  1  -0.064986  0  -0.020341  0.067184  0  4.071205  0
C  C117  1  0.24677684  0.77840554  0.39425694  1  0.026201  0  -0.025353  0.05581  0  4.057398  0
C  C118  1  0.15441996  0.86103739  0.74858351  1  -0.077475  0  -0.02019  0.068721  0  4.070417  0
C  C119  1  0.77344891  0.30199259  0.89171462  1  0.030821  0  -0.025811  0.057422  0  4.058749  0
C  C120  1  0.30988154  0.56934810  0.62768885  1  0.986808  0  0.180711  0.351983  0  4.087022  0
C  C121  1  0.65242613  0.50429506  0.70486704  1  0.961742  0  0.162969  0.340336  0  4.120003  0
C  C122  1  0.81966548  0.07744231  0.12776902  1  0.978414  0  0.181062  0.350828  0  4.092741  0
C  C123  1  0.13937536  0.00365285  0.21238028  1  0.979477  0  0.164128  0.345626  0  4.119308  0
C  C124  1  0.62396305  0.27514983  0.23265806  1  -0.037917  0  -0.100342  -0.135634  0  4.024414  0
C  C125  1  0.28050779  0.85375694  0.36808644  1  -0.041177  0  -0.101912  -0.131488  0  4.020891  0
C  C126  1  0.12632354  0.78014606  0.73362770  1  0.024792  0  -0.100339  -0.136594  0  4.023622  0
C  C127  1  0.81611304  0.35267795  0.85038273  1  0.001361  0  -0.102075  -0.130776  0  4.024722  0
C  C128  1  0.17990849  0.71423915  0.69967376  1  -0.049286  0  -0.100266  -0.139638  0  3.984624  0
C  C129  1  0.76971871  0.40638249  0.80697104  1  -0.09664  0  -0.111334  -0.163542  0  4.027564  0
C  C130  1  0.68299999  0.21241308  0.19962302  1  0.017949  0  -0.101704  -0.142084  0  3.986409  0
C  C131  1  0.23827744  0.90826137  0.32336817  1  -0.080667  0  -0.110372  -0.162234  0  4.022839  0
C  C132  1  0.26500112  0.72562887  0.67936431  1  -0.07567  0  -0.008901  0.111602  0  4.033415  0
C  C133  1  0.67761094  0.41255013  0.80258727  1  -0.036639  0  -0.013117  0.115053  0  4.063839  0
C  C134  1  0.76502209  0.23237146  0.17887139  1  -0.022336  0  -0.009424  0.110661  0  4.042335  0
C  C135  1  0.15957837  0.89030118  0.30258539  1  -0.01482  0  -0.013037  0.115981  0  4.065745  0
C  C136  1  0.92791970  0.33499020  0.54074275  1  -0.048112  0  -0.095214  -0.129939  0  4.001316  0
C  C137  1  0.01740556  0.33736886  0.53351887  1  -0.01834  0  -0.0963  -0.130093  0  4.010148  0
C  C138  1  0.44420092  0.83407358  0.03163089  1  -0.076836  0  -0.098808  -0.137236  0  4.012972  0
C  C139  1  0.53306272  0.83982036  0.02383499  1  0.035859  0  -0.097245  -0.132967  0  4.01113  0
C  C140  1  0.05874062  0.34381735  0.47926460  1  -0.019395  0  -0.016779  0.072621  0  4.061365  0
C  C141  1  0.87458011  0.33904741  0.49390716  1  -0.017005  0  -0.013649  0.082018  0  4.049369  0
C  C142  1  0.56702171  0.87230948  0.97177224  1  -0.061899  0  -0.016732  0.074691  0  4.064708  0
C  C143  1  0.38532784  0.86040441  0.98750640  1  -0.038883  0  -0.011008  0.087593  0  4.045597  0
C  C144  1  0.00793703  0.33742537  0.43266108  1  -0.058327  0  -0.097753  -0.133066  0  4.011247  0
C  C145  1  0.91811916  0.33477013  0.43986214  1  0.021012  0  -0.099627  -0.138152  0  4.00254  0
C  C146  1  0.51023941  0.89024099  0.92624569  1  -0.033034  0  -0.097944  -0.134302  0  4.018433  0
C  C147  1  0.42159466  0.88402785  0.93398842  1  -0.013743  0  -0.09609  -0.129471  0  3.999794  0
C  C148  1  0.20077332  0.37911445  0.42440085  1  0.398126  0  0.004248  -0.057736  0  3.983814  0
C  C149  1  0.71538238  0.38878071  0.45868087  1  0.384832  0  -0.000531  -0.063938  0  3.985665  0
C  C150  1  0.71042511  0.90821278  0.91957465  1  0.39545  0  0.006082  -0.055362  0  3.988735  0
C  C151  1  0.22369638  0.89826328  0.95725995  1  0.358624  0  -0.001497  -0.064609  0  3.982532  0
C  C152  1  0.61456174  0.73336291  0.54187793  1  1.089636  0  0.186585  0.379325  0  4.138881  0
C  C153  1  0.51068738  0.25974496  0.52568033  1  1.061288  0  0.189421  0.399808  0  4.111585  0
C  C154  1  0.12407622  0.24589084  0.04397874  1  1.055336  0  0.184205  0.377263  0  4.140636  0
C  C155  1  0.01212318  0.77270128  0.02504734  1  1.11377  0  0.192991  0.404678  0  4.102016  0
C  C156  1  0.19714299  0.38481066  0.51747645  1  0.413989  0  0.010412  -0.047257  0  3.992232  0
C  C157  1  0.72728091  0.39247463  0.55105317  1  0.430001  0  0.01238  -0.043912  0  3.950764  0
C  C158  1  0.70230722  0.91481553  0.01274992  1  0.4066  0  0.00927  -0.048704  0  3.995234  0
C  C159  1  0.24166844  0.91121568  0.04816693  1  0.501693  0  0.011099  -0.046845  0  3.954431  0
C  C160  1  0.61108930  0.72817216  0.44924258  1  1.029927  0  0.178414  0.363866  0  4.173204  0
C  C161  1  0.51506610  0.25975692  0.43202608  1  1.01347  0  0.1812  0.379963  0  4.152497  0
C  C162  1  0.12925470  0.23801725  0.95127234  1  1.010268  0  0.177634  0.361236  0  4.173979  0
C  C163  1  0.01802899  0.77087531  0.93146060  1  1.023082  0  0.183258  0.381889  0  4.143228  0
C  C164  1  0.40614747  0.66164719  0.61798372  1  0.433117  0  0.019678  -0.015059  0  3.955983  0
C  C165  1  0.55351927  0.42028829  0.73390074  1  0.502382  0  -0.011471  -0.044415  0  4.111032  0
C  C166  1  0.91224963  0.17399940  0.12098112  1  0.431113  0  0.019686  -0.01725  0  3.953633  0
C  C167  1  0.08157200  0.87726083  0.21204333  1  0.488838  0  -0.01517  -0.049452  0  4.11621  0
C  C168  1  0.28489785  0.61676266  0.44707846  1  0.296366  0  0.002753  -0.059539  0  3.918881  0
C  C169  1  0.61140303  0.47482021  0.32690943  1  0.361355  0  0.006034  -0.054642  0  3.99969  0
C  C170  1  0.80358494  0.14072028  0.94500420  1  0.342872  0  0.004431  -0.055833  0  3.918186  0
C  C171  1  0.12893230  0.97944397  0.82738073  1  0.386995  0  0.007342  -0.051207  0  3.994857  0
C  C172  1  0.30298090  0.70370347  0.42779006  1  0.036785  0  -0.026432  -0.016168  0  4.041554  0
C  C173  1  0.58506933  0.42133524  0.28607527  1  0.008383  0  -0.033846  -0.028668  0  4.084486  0
C  C174  1  0.82626742  0.22572072  0.92601543  1  0.049661  0  -0.026979  -0.018952  0  4.051252  0
C  C175  1  0.09984373  0.92587808  0.78764970  1  0.041283  0  -0.032512  -0.027798  0  4.079186  0
N  N176  1  0.42866059  0.60603102  0.45664907  1  -0.800946  0  -0.281169  -0.171895  0  3.593754  0
N  N177  1  0.46880356  0.48055066  0.34543116  1  -0.790599  0  -0.284839  -0.18706  0  3.544013  0
N  N178  1  0.94760864  0.12303623  0.95652226  1  -0.799222  0  -0.28494  -0.174487  0  3.599837  0
N  N179  1  0.98484982  0.99553840  0.84486943  1  -0.805489  0  -0.28775  -0.190638  0  3.547029  0
N  N180  1  0.37907997  0.52730156  0.59464001  1  -0.825046  0  -0.304957  -0.314607  0  3.632666  0
N  N181  1  0.59446157  0.50755677  0.66400132  1  -0.836846  0  -0.304403  -0.295478  0  3.578046  0
N  N182  1  0.89129399  0.03801835  0.09581785  1  -0.79872  0  -0.306151  -0.31133  0  3.60474  0
N  N183  1  0.10714920  0.99890217  0.16124238  1  -0.842155  0  -0.303708  -0.298829  0  3.568132  0
N  N184  1  0.27509954  0.40586607  0.43895891  1  -0.798919  0  -0.278085  -0.189488  0  3.583262  0
N  N185  1  0.63632770  0.43220497  0.48161134  1  -0.770631  0  -0.282952  -0.169962  0  3.600814  0
N  N186  1  0.78404365  0.93436185  0.93568224  1  -0.819147  0  -0.279775  -0.188573  0  3.597503  0
N  N187  1  0.14507475  0.94076331  0.98147119  1  -0.797281  0  -0.288633  -0.175294  0  3.594671  0
N  N188  1  0.61031517  0.64568385  0.53015574  1  -0.803816  0  -0.290497  -0.278107  0  3.48156  0
N  N189  1  0.47095738  0.34561144  0.50574827  1  -0.799988  0  -0.302837  -0.297582  0  3.539631  0
N  N190  1  0.12355319  0.15717593  0.03242865  1  -0.80804  0  -0.291013  -0.282098  0  3.490014  0
N  N191  1  0.97529299  0.85897010  0.00432842  1  -0.786603  0  -0.303048  -0.295714  0  3.550014  0
N  N192  1  0.27232649  0.40921924  0.49686562  1  -0.803659  0  -0.27935  -0.178792  0  3.590245  0
N  N193  1  0.64373323  0.43437795  0.53872020  1  -0.784196  0  -0.270449  -0.169095  0  3.535619  0
N  N194  1  0.77864915  0.93836431  0.99357267  1  -0.795492  0  -0.281358  -0.183271  0  3.593813  0
N  N195  1  0.15641791  0.94869839  0.03760728  1  -0.780553  0  -0.269111  -0.164666  0  3.546514  0
N  N196  1  0.60897397  0.64229860  0.47146421  1  -0.858623  0  -0.310928  -0.330384  0  3.563797  0
N  N197  1  0.47454577  0.34535528  0.44701619  1  -0.862102  0  -0.315211  -0.323439  0  3.587906  0
N  N198  1  0.12787282  0.15190488  0.97358713  1  -0.856847  0  -0.309166  -0.327712  0  3.539822  0
N  N199  1  0.97983483  0.85765787  0.94567629  1  -0.876502  0  -0.312709  -0.320175  0  3.579712  0
N  N200  1  0.43982975  0.58483644  0.58896587  1  -0.776072  0  -0.273935  -0.173055  0  3.554933  0
N  N201  1  0.53272775  0.45394847  0.68199366  1  -0.725615  0  -0.28449  -0.235727  0  3.282899  0
N  N202  1  0.94987108  0.09817745  0.09205113  1  -0.798348  0  -0.27188  -0.168931  0  3.533422  0
N  N203  1  0.07141099  0.91913933  0.16082329  1  -0.739856  0  -0.285988  -0.239507  0  3.299646  0
N  N204  1  0.36165076  0.55704476  0.46318162  1  -0.827805  0  -0.303815  -0.224192  0  3.60648  0
N  N205  1  0.54272931  0.50879537  0.36276026  1  -0.805585  0  -0.28697  -0.201542  0  3.581368  0
N  N206  1  0.87783932  0.07776378  0.96213483  1  -0.8202  0  -0.298662  -0.223024  0  3.596043  0
N  N207  1  0.06091619  0.01964111  0.86205129  1  -0.807813  0  -0.285114  -0.200355  0  3.572182  0
O  O208  1  0.76841612  0.08642552  0.54709847  1  -1.139827  0  -0.382586  -0.53395  0  2.228001  0
O  O209  1  0.68716958  0.89962504  0.61898215  1  -1.131569  0  -0.366042  -0.533618  0  2.223352  0
O  O210  1  0.26731728  0.60831747  0.04527567  1  -1.135106  0  -0.383696  -0.539213  0  2.194424  0
O  O211  1  0.19535952  0.41412168  0.12047678  1  -1.132322  0  -0.371478  -0.53647  0  2.220586  0
O  O212  1  0.64972085  0.09418984  0.61266064  1  -1.127254  0  -0.378598  -0.519914  0  2.223402  0
O  O213  1  0.80286428  0.89844495  0.55411750  1  -1.134585  0  -0.389605  -0.526533  0  2.159943  0
O  O214  1  0.15485374  0.60976322  0.11413603  1  -1.147547  0  -0.373185  -0.528278  0  2.231895  0
O  O215  1  0.30915514  0.41893305  0.05430671  1  -1.131698  0  -0.390231  -0.523135  0  2.173556  0
O  O216  1  0.23984875  0.52657371  0.64109304  1  -1.128811  0  -0.349181  -0.464911  0  2.264571  0
O  O217  1  0.71969200  0.55289214  0.69631286  1  -1.146981  0  -0.370917  -0.478139  0  2.249409  0
O  O218  1  0.75150707  0.03132724  0.13930891  1  -1.171767  0  -0.345659  -0.460545  0  2.275109  0
O  O219  1  0.17701843  0.07789361  0.22316181  1  -1.160429  0  -0.372336  -0.478768  0  2.241821  0
O  O220  1  0.60928883  0.75474348  0.59668494  1  -1.179723  0  -0.355117  -0.467758  0  2.318355  0
O  O221  1  0.51164876  0.24142299  0.58181219  1  -1.171556  0  -0.352501  -0.457367  0  2.289791  0
O  O222  1  0.11453849  0.26900597  0.09864591  1  -1.191154  0  -0.358345  -0.472966  0  2.307445  0
O  O223  1  0.01002497  0.75461182  0.08129824  1  -1.172365  0  -0.352262  -0.458442  0  2.299491  0
O  O224  1  0.60803904  0.74906684  0.39247348  1  -1.155387  0  -0.348145  -0.454659  0  2.263423  0
O  O225  1  0.52602423  0.24087302  0.37618154  1  -1.143855  0  -0.347156  -0.459676  0  2.291128  0
O  O226  1  0.13076228  0.25774531  0.89432686  1  -1.140462  0  -0.349075  -0.454943  0  2.260761  0
O  O227  1  0.02931667  0.75058328  0.87584849  1  -1.173613  0  -0.347341  -0.461821  0  2.288639  0
