# generated using pymatgen
data_AlH9C17O6
_symmetry_space_group_name_H-M   'P 1'
_cell_length_a   6.71321142
_cell_length_b   23.60514315
_cell_length_c   26.20016585
_cell_angle_alpha   78.66908520
_cell_angle_beta   90.00144743
_cell_angle_gamma   90.00133500
_symmetry_Int_Tables_number   1
_chemical_formula_structural   AlH9C17O6
_chemical_formula_sum   'Al4 H36 C68 O24'
_cell_volume   4070.91931616
_cell_formula_units_Z   4
loop_
 _symmetry_equiv_pos_site_id
 _symmetry_equiv_pos_as_xyz
  1  'x, y, z'
loop_
 _atom_site_type_symbol
 _atom_site_label
 _atom_site_symmetry_multiplicity
 _atom_site_fract_x
 _atom_site_fract_y
 _atom_site_fract_z
 _atom_site_occupancy
 _atom_site_pbe_bader_charge
 _atom_site_pbe_bader_spin_density
 _atom_site_pbe_cm5_charge
 _atom_site_pbe_ddec_charge
 _atom_site_pbe_ddec_spin_density
 _atom_site_pbe_ddec_sum_bond_order
 _atom_site_pbe_magmom
Al  Al0  1  0.74548647  0.75127455  0.24889159  1  2.50226  0  0.404282  1.645551  0  2.572789  0
Al  Al1  1  0.24797533  0.25031608  0.74925554  1  2.504147  0  0.403642  1.64688  0  2.57378  0
Al  Al2  1  0.24549318  0.74871118  0.25112161  1  2.502412  0  0.404353  1.645644  0  2.572712  0
Al  Al3  1  0.74796992  0.24967308  0.75075373  1  2.504164  0  0.403545  1.646869  0  2.5735  0
H  H4  1  0.31027500  0.37412263  0.83804122  1  0.094632  0  0.111351  0.116891  0  0.993265  0
H  H5  1  0.78772543  0.70092440  0.09660411  1  0.09122  0  0.112613  0.115584  0  0.981947  0
H  H6  1  0.81029764  0.12589925  0.66194662  1  0.094761  0  0.111251  0.116908  0  0.993191  0
H  H7  1  0.28781435  0.79906042  0.40341461  1  0.090625  0  0.112552  0.115566  0  0.982052  0
H  H8  1  0.31295349  0.44244050  0.89985643  1  0.084238  0  0.101469  0.104713  0  1.019824  0
H  H9  1  0.80924270  0.64045938  0.02976845  1  0.079521  0  0.107639  0.108485  0  0.994292  0
H  H10  1  0.81299958  0.05758354  0.60013535  1  0.084192  0  0.101516  0.104648  0  1.019942  0
H  H11  1  0.30934801  0.85952949  0.47024291  1  0.079334  0  0.107575  0.108257  0  0.994428  0
H  H12  1  0.70188765  0.39818468  0.93975240  1  0.074494  0  0.100104  0.097938  0  1.011752  0
H  H13  1  0.19361314  0.52180214  0.13082590  1  0.072737  0  0.102138  0.099213  0  1.005027  0
H  H14  1  0.20185284  0.10178826  0.56026377  1  0.074251  0  0.10011  0.09784  0  1.011865  0
H  H15  1  0.69357565  0.97820934  0.36916789  1  0.072522  0  0.102172  0.099245  0  1.004993  0
H  H16  1  0.69543916  0.33503094  0.87383996  1  0.10199  0  0.112307  0.11843  0  0.990356  0
H  H17  1  0.19764270  0.58738244  0.19342942  1  0.068211  0  0.107495  0.108091  0  0.987676  0
H  H18  1  0.19540735  0.16494284  0.62617181  1  0.101226  0  0.112213  0.118484  0  0.99025  0
H  H19  1  0.69760483  0.91262240  0.30656603  1  0.067915  0  0.107415  0.107973  0  0.987685  0
H  H20  1  0.72379658  0.56505183  0.00496632  1  0.133635  0  0.110855  0.116728  0  1.040605  0
H  H21  1  0.30315160  0.44082920  0.98949580  1  0.065071  0  0.10296  0.09543  0  1.022821  0
H  H22  1  0.22384762  0.93493577  0.49503049  1  0.134726  0  0.110768  0.116614  0  1.040548  0
H  H23  1  0.80312088  0.05918681  0.51050709  1  0.064807  0  0.102967  0.09541  0  1.022932  0
H  H24  1  0.31173633  0.45896716  0.53806123  1  0.073964  0  0.108755  0.109539  0  1.00047  0
H  H25  1  0.66885534  0.53911141  0.46098491  1  0.056513  0  0.109889  0.111518  0  0.998895  0
H  H26  1  0.81173506  0.04105466  0.96197060  1  0.074216  0  0.108659  0.10947  0  1.00046  0
H  H27  1  0.16885490  0.96084819  0.03900195  1  0.056859  0  0.109976  0.111711  0  0.998707  0
H  H28  1  0.31021482  0.53923407  0.46010064  1  0.101303  0  0.11034  0.112208  0  0.998125  0
H  H29  1  0.67015936  0.45889332  0.53896283  1  0.063449  0  0.108355  0.109089  0  1.001705  0
H  H30  1  0.81024980  0.96078944  0.03994096  1  0.100851  0  0.110361  0.112305  0  0.998193  0
H  H31  1  0.17016737  0.04105570  0.96102012  1  0.063199  0  0.108434  0.109184  0  1.00187  0
H  H32  1  0.72153406  0.50010898  0.88786900  1  0.063029  0  0.102389  0.040435  0  0.975716  0
H  H33  1  0.48984960  0.47575702  0.04279540  1  0.037754  0  0.092106  0.018411  0  0.986896  0
H  H34  1  0.22155149  0.99984868  0.61214653  1  0.078665  0  0.102387  0.040426  0  0.975664  0
H  H35  1  0.98984076  0.02427836  0.45720886  1  0.036865  0  0.092098  0.018379  0  0.987142  0
H  H36  1  0.49884056  0.67908904  0.24069685  1  0.617187  0  0.355998  0.434465  0  0.846645  0
H  H37  1  0.50006487  0.32431849  0.72684915  1  0.615725  0  0.356583  0.435274  0  0.846019  0
H  H38  1  0.99885037  0.82089558  0.25930743  1  0.61734  0  0.356106  0.434549  0  0.846598  0
H  H39  1  0.00006105  0.17567854  0.77316756  1  0.61568  0  0.35641  0.435093  0  0.846149  0
C  C40  1  0.49242059  0.82675777  0.17344201  1  1.683603  0  0.270775  0.705615  0  4.176332  0
C  C41  1  0.49620280  0.17457908  0.82742991  1  1.646729  0  0.274867  0.719192  0  4.155308  0
C  C42  1  0.99241509  0.67323860  0.32657611  1  1.683869  0  0.27077  0.705579  0  4.176723  0
C  C43  1  0.99620976  0.32539805  0.67257155  1  1.647364  0  0.274825  0.719164  0  4.15534  0
C  C44  1  0.49398856  0.81265720  0.31267648  1  1.551817  0  0.27582  0.656431  0  4.081072  0
C  C45  1  0.49890262  0.18659880  0.68763487  1  1.569131  0  0.266601  0.63947  0  4.103785  0
C  C46  1  0.99395295  0.68733153  0.18733198  1  1.551337  0  0.27564  0.655949  0  4.081562  0
C  C47  1  0.99892165  0.31338317  0.81238179  1  1.56882  0  0.266804  0.639802  0  4.104399  0
C  C48  1  0.17761548  0.38028739  0.86029500  1  -0.033866  0  -0.078021  -0.080956  0  3.970363  0
C  C49  1  0.88074830  0.66236070  0.10322493  1  -0.003569  0  -0.079109  -0.091603  0  3.977364  0
C  C50  1  0.67761768  0.11972012  0.63970228  1  -0.034444  0  -0.078004  -0.08111  0  3.970397  0
C  C51  1  0.38078592  0.83763167  0.39678551  1  -0.002436  0  -0.079022  -0.091664  0  3.977401  0
C  C52  1  0.17960831  0.41744496  0.89540136  1  -0.062382  0  -0.089291  -0.132051  0  3.966544  0
C  C53  1  0.89157358  0.62774298  0.06603116  1  -0.062362  0  -0.0784  -0.106154  0  3.959953  0
C  C54  1  0.67963635  0.08256528  0.60459518  1  -0.062269  0  -0.089121  -0.131711  0  3.966415  0
C  C55  1  0.39160304  0.87225957  0.43397013  1  -0.061938  0  -0.078301  -0.105799  0  3.959711  0
C  C56  1  0.00735326  0.42544303  0.92382322  1  -0.031815  0  -0.003351  0.073753  0  4.007884  0
C  C57  1  0.00774963  0.57715439  0.07448714  1  -0.045771  0  -0.004547  0.062959  0  3.990761  0
C  C58  1  0.50734392  0.07454687  0.57618977  1  -0.032277  0  -0.003384  0.073646  0  4.007397  0
C  C59  1  0.50776160  0.92285485  0.42551070  1  -0.045911  0  -0.004523  0.063063  0  3.990388  0
C  C60  1  0.83395136  0.39445616  0.91632084  1  -0.06943  0  -0.090496  -0.14321  0  4.005251  0
C  C61  1  0.11034428  0.56205369  0.12200897  1  0.05516  0  -0.083523  -0.104947  0  3.988946  0
C  C62  1  0.33390862  0.10551923  0.58369603  1  -0.068921  0  -0.090493  -0.142898  0  4.004942  0
C  C63  1  0.61034297  0.93795357  0.37798821  1  0.055118  0  -0.083661  -0.105253  0  3.989108  0
C  C64  1  0.83029172  0.35837528  0.88023711  1  -0.039371  0  -0.079793  -0.082687  0  3.975364  0
C  C65  1  0.11011906  0.59827905  0.15781327  1  -0.019953  0  -0.083013  -0.097162  0  3.988574  0
C  C66  1  0.33025582  0.14160234  0.61977501  1  -0.038441  0  -0.079617  -0.082903  0  3.975122  0
C  C67  1  0.61011088  0.90172559  0.34218626  1  -0.019898  0  -0.08282  -0.096772  0  3.988507  0
C  C68  1  0.00222372  0.35112084  0.85189479  1  0.023782  0  -0.013288  -0.042239  0  3.966618  0
C  C69  1  0.99479511  0.64873019  0.14870275  1  -0.037541  0  -0.01079  -0.034759  0  3.985512  0
C  C70  1  0.50220118  0.14886643  0.64811228  1  0.024147  0  -0.013352  -0.042151  0  3.966489  0
C  C71  1  0.49482815  0.85126101  0.35130805  1  -0.038016  0  -0.010919  -0.035105  0  3.985514  0
C  C72  1  0.85067692  0.50391289  0.96417910  1  -0.065993  0  -0.015247  -0.018645  0  3.976349  0
C  C73  1  0.18505406  0.50614790  0.02731426  1  -0.008002  0  -0.009445  -0.01463  0  3.937938  0
C  C74  1  0.35070229  0.99607420  0.53582569  1  -0.066133  0  -0.015206  -0.01948  0  3.977746  0
C  C75  1  0.68505497  0.99386233  0.47269064  1  -0.008319  0  -0.009518  -0.014448  0  3.937962  0
C  C76  1  0.85415820  0.53852705  0.00194677  1  -0.017391  0  -0.070095  -0.13557  0  3.90715  0
C  C77  1  0.17421998  0.46813084  0.99257527  1  -0.071995  0  -0.072174  -0.129963  0  3.95445  0
C  C78  1  0.35419729  0.96146478  0.49805420  1  -0.018528  0  -0.07006  -0.135289  0  3.907477  0
C  C79  1  0.67422061  0.03187301  0.50742896  1  -0.071404  0  -0.072129  -0.129878  0  3.954963  0
C  C80  1  0.01718980  0.54056956  0.03475133  1  0.011552  0  0.017435  0.072062  0  3.917701  0
C  C81  1  0.01009966  0.46575462  0.96025038  1  0.024197  0  0.001749  0.041178  0  3.974876  0
C  C82  1  0.51721701  0.95943472  0.46525061  1  0.012006  0  0.017477  0.072134  0  3.917512  0
C  C83  1  0.51011202  0.03423825  0.53975488  1  0.023619  0  0.001665  0.041319  0  3.975265  0
C  C84  1  0.17096316  0.52135088  0.47764720  1  -0.019274  0  -0.073363  -0.113855  0  3.943533  0
C  C85  1  0.80948848  0.47668934  0.52139402  1  0.024315  0  -0.074345  -0.113275  0  3.950355  0
C  C86  1  0.67098498  0.97866029  0.02238192  1  -0.019462  0  -0.073442  -0.113973  0  3.943658  0
C  C87  1  0.30949475  0.02326947  0.97859948  1  0.026076  0  -0.074281  -0.113433  0  3.950755  0
C  C88  1  0.98936689  0.54440300  0.45552013  1  0.051081  0  0.00903  0.139078  0  4.096229  0
C  C89  1  0.99104134  0.45367058  0.54351856  1  0.051658  0  0.004334  0.126625  0  4.105533  0
C  C90  1  0.48937633  0.95559391  0.04449325  1  0.051213  0  0.008938  0.139024  0  4.096193  0
C  C91  1  0.49104680  0.04630844  0.95648357  1  0.050849  0  0.004204  0.12662  0  4.105981  0
C  C92  1  0.80870708  0.52125663  0.47814403  1  0.016582  0  -0.073562  -0.113338  0  3.943588  0
C  C93  1  0.17178329  0.47675222  0.52087745  1  -0.005281  0  -0.074494  -0.112922  0  3.948188  0
C  C94  1  0.30871429  0.97870826  0.02185261  1  0.01555  0  -0.073468  -0.113189  0  3.943646  0
C  C95  1  0.67179523  0.02325090  0.97914385  1  -0.006502  0  -0.074356  -0.112763  0  3.948458  0
C  C96  1  0.98857066  0.58970710  0.41123797  1  -0.501943  0  -0.027205  -0.050705  0  4.094207  0
C  C97  1  0.99197461  0.40856330  0.58793617  1  -0.366575  0  -0.01964  -0.028157  0  4.091905  0
C  C98  1  0.48858763  0.91029635  0.08878044  1  -0.498821  0  -0.027313  -0.051176  0  4.094136  0
C  C99  1  0.49196212  0.09140809  0.91206405  1  -0.367716  0  -0.0197  -0.028389  0  4.091585  0
C  C100  1  0.99346676  0.36998258  0.62641899  1  0.128643  0  -0.040397  -0.200103  0  3.961042  0
C  C101  1  0.98824336  0.62843022  0.37289158  1  0.213644  0  -0.029702  -0.170327  0  3.941247  0
C  C102  1  0.49344619  0.12999373  0.87357619  1  0.13032  0  -0.040308  -0.199951  0  3.960476  0
C  C103  1  0.48825652  0.87157190  0.12713305  1  0.210389  0  -0.029576  -0.169908  0  3.940876  0
C  C104  1  0.68661640  0.51258823  0.92571686  1  0.919422  0  0.093844  0.257453  0  3.989564  0
C  C105  1  0.38976532  0.51253841  0.04672571  1  0.955911  0  0.100042  0.272547  0  3.991521  0
C  C106  1  0.18665011  0.98738874  0.57429284  1  0.904019  0  0.093829  0.257701  0  3.989714  0
C  C107  1  0.88977667  0.98748956  0.45327545  1  0.956718  0  0.099612  0.271727  0  3.992364  0
O  O108  1  0.32532239  0.79460164  0.30033879  1  -1.249576  0  -0.232067  -0.593463  0  2.328221  0
O  O109  1  0.66709487  0.19971366  0.70468277  1  -1.254636  0  -0.237641  -0.597092  0  2.351048  0
O  O110  1  0.82529621  0.70538776  0.19966939  1  -1.249837  0  -0.232064  -0.593343  0  2.328534  0
O  O111  1  0.16710364  0.30027031  0.79533462  1  -1.255094  0  -0.237693  -0.597216  0  2.351176  0
O  O112  1  0.66489010  0.81037913  0.19043526  1  -1.226999  0  -0.229539  -0.578779  0  2.287321  0
O  O113  1  0.32766747  0.19210508  0.80806969  1  -1.240554  0  -0.229093  -0.585933  0  2.279208  0
O  O114  1  0.16489099  0.68961021  0.30958058  1  -1.227818  0  -0.229506  -0.578753  0  2.287444  0
O  O115  1  0.82767987  0.30787586  0.69193265  1  -1.242045  0  -0.229053  -0.58593  0  2.279272  0
O  O116  1  0.66227615  0.80108577  0.29459151  1  -1.261527  0  -0.233319  -0.596621  0  2.322421  0
O  O117  1  0.32852533  0.20171024  0.70179050  1  -1.258417  0  -0.237398  -0.595694  0  2.341511  0
O  O118  1  0.16224070  0.69890487  0.20541806  1  -1.261204  0  -0.233267  -0.596471  0  2.322379  0
O  O119  1  0.82854251  0.29827187  0.79822430  1  -1.257767  0  -0.237385  -0.595755  0  2.341784  0
O  O120  1  0.82431323  0.69100516  0.30727962  1  -1.233902  0  -0.230749  -0.58116  0  2.277727  0
O  O121  1  0.16711090  0.30787627  0.69019821  1  -1.23475  0  -0.229435  -0.585283  0  2.279477  0
O  O122  1  0.32432419  0.80899037  0.19273941  1  -1.233619  0  -0.230804  -0.581346  0  2.277721  0
O  O123  1  0.66709804  0.19210714  0.80980595  1  -1.234904  0  -0.229513  -0.585374  0  2.279389  0
O  O124  1  0.49693826  0.71562478  0.25229445  1  -1.419421  0  -0.446189  -0.99124  0  2.188445  0
O  O125  1  0.49832746  0.28476021  0.74596349  1  -1.417626  0  -0.448213  -0.993372  0  2.188481  0
O  O126  1  0.99694377  0.78435763  0.24771409  1  -1.419496  0  -0.446432  -0.991463  0  2.188405  0
O  O127  1  0.99832301  0.21523334  0.75404456  1  -1.417582  0  -0.448011  -0.993154  0  2.188492  0
O  O128  1  0.52376197  0.53363783  0.93268618  1  -1.086899  0  -0.262388  -0.357008  0  2.152132  0
O  O129  1  0.45592097  0.55434359  0.06230338  1  -1.079987  0  -0.246446  -0.338206  0  2.179249  0
O  O130  1  0.02378412  0.96634103  0.56731596  1  -1.086914  0  -0.262321  -0.356899  0  2.151787  0
O  O131  1  0.95598539  0.94569609  0.43768974  1  -1.07981  0  -0.246009  -0.337485  0  2.179783  0
