# generated using pymatgen
data_Cd2H8C13N2O9
_symmetry_space_group_name_H-M   'P 1'
_cell_length_a   8.93763567
_cell_length_b   10.71826467
_cell_length_c   15.85868201
_cell_angle_alpha   89.99999746
_cell_angle_beta   90.00000638
_cell_angle_gamma   97.92172403
_symmetry_Int_Tables_number   1
_chemical_formula_structural   Cd2H8C13N2O9
_chemical_formula_sum   'Cd8 H32 C52 N8 O36'
_cell_volume   1504.70014725
_cell_formula_units_Z   4
loop_
 _symmetry_equiv_pos_site_id
 _symmetry_equiv_pos_as_xyz
  1  'x, y, z'
loop_
 _atom_site_type_symbol
 _atom_site_label
 _atom_site_symmetry_multiplicity
 _atom_site_fract_x
 _atom_site_fract_y
 _atom_site_fract_z
 _atom_site_occupancy
 _atom_site_hle17_bader_spin_density
 _atom_site_hle17_ddec_charge
 _atom_site_hle17_ddec_spin_density
 _atom_site_hle17_ddec_sum_bond_order
 _atom_site_hle17_magmom
 _atom_site_hse06_10hf_bader_spin_density
 _atom_site_hse06_10hf_ddec_charge
 _atom_site_hse06_10hf_ddec_spin_density
 _atom_site_hse06_10hf_ddec_sum_bond_order
 _atom_site_hse06_10hf_magmom
 _atom_site_hse06_bader_spin_density
 _atom_site_hse06_ddec_charge
 _atom_site_hse06_ddec_spin_density
 _atom_site_hse06_ddec_sum_bond_order
 _atom_site_hse06_magmom
 _atom_site_pbe_bader_spin_density
 _atom_site_pbe_cm5_charge
 _atom_site_pbe_ddec_charge
 _atom_site_pbe_ddec_spin_density
 _atom_site_pbe_ddec_sum_bond_order
 _atom_site_pbe_magmom
Cd  Cd0  1  0.02554775  0.25715811  0.89318078  1  0  1.250202  0  1.625567  0  0  1.067213  0  2.076663  0  0  1.120995  0  2.022519  0  0  0.802454  1.027492  0  2.114718  0
Cd  Cd1  1  0.47445105  0.24284132  0.39318212  1  0  1.250175  0  1.625572  0  0  1.067199  0  2.076671  0  0  1.120983  0  2.022525  0  0  0.802448  1.027475  0  2.114725  0
Cd  Cd2  1  0.97445209  0.74284174  0.10681785  1  0  1.250165  0  1.625584  0  0  1.067189  0  2.076669  0  0  1.120969  0  2.022528  0  0  0.802451  1.027469  0  2.114724  0
Cd  Cd3  1  0.52554878  0.75715853  0.60681777  1  0  1.250168  0  1.625589  0  0  1.067183  0  2.076689  0  0  1.120966  0  2.022544  0  0  0.802453  1.027462  0  2.114735  0
Cd  Cd4  1  0.27020265  0.49480759  0.03150325  1  0  1.248793  0  1.586161  0  0  1.06568  0  2.028554  0  0  1.124234  0  1.97174  0  0  0.794639  1.022855  0  2.067997  0
Cd  Cd5  1  0.22979817  0.00519092  0.53150445  1  0  1.248764  0  1.586195  0  0  1.065639  0  2.028626  0  0  1.124194  0  1.971813  0  0  0.794627  1.022817  0  2.068076  0
Cd  Cd6  1  0.72979592  0.50519131  0.96849664  1  0  1.248797  0  1.586164  0  0  1.065662  0  2.028569  0  0  1.124217  0  1.971754  0  0  0.794643  1.022836  0  2.06801  0
Cd  Cd7  1  0.77020137  0.99480704  0.46849670  1  0  1.24876  0  1.586227  0  0  1.065639  0  2.028644  0  0  1.124196  0  1.971828  0  0  0.794631  1.022817  0  2.068089  0
H  H8  1  0.00154872  0.19489947  0.66597022  1  0  0.104114  0  0.91669  0  0  0.114829  0  0.975266  0  0  0.117615  0  0.971708  0  0  0.136875  0.112705  0  0.977888  0
H  H9  1  0.49845594  0.30510188  0.16597156  1  0  0.104101  0  0.916821  0  0  0.114835  0  0.975379  0  0  0.117619  0  0.971826  0  0  0.136899  0.112714  0  0.977991  0
H  H10  1  0.99845321  0.80509945  0.33402967  1  0  0.104133  0  0.916773  0  0  0.114877  0  0.975312  0  0  0.117663  0  0.971754  0  0  0.136899  0.112727  0  0.977959  0
H  H11  1  0.50154263  0.69489702  0.83402959  1  0  0.104098  0  0.9168  0  0  0.114831  0  0.975363  0  0  0.117615  0  0.97181  0  0  0.136899  0.112713  0  0.977976  0
H  H12  1  0.12892492  0.17627300  0.10769369  1  0  0.106521  0  0.944749  0  0  0.118013  0  1.00259  0  0  0.121404  0  1.000519  0  0  0.105992  0.115531  0  1.004306  0
H  H13  1  0.37107733  0.32372740  0.60769237  1  0  0.106517  0  0.944785  0  0  0.118054  0  1.002578  0  0  0.121443  0  1.000509  0  0  0.106034  0.115573  0  1.004293  0
H  H14  1  0.87107745  0.82372875  0.89230620  1  0  0.106511  0  0.944753  0  0  0.118  0  1.002601  0  0  0.12139  0  1.000532  0  0  0.105982  0.115517  0  1.004317  0
H  H15  1  0.62892265  0.67627339  0.39230689  1  0  0.106515  0  0.944764  0  0  0.118049  0  1.002557  0  0  0.12144  0  1.000487  0  0  0.106028  0.115565  0  1.004271  0
H  H16  1  0.88183392  0.29754902  0.37009635  1  0  0.105199  0  0.967373  0  0  0.115566  0  1.02932  0  0  0.118939  0  1.027134  0  0  0.103136  0.113007  0  1.031151  0
H  H17  1  0.61816331  0.20245258  0.87009628  1  0  0.105194  0  0.967318  0  0  0.115557  0  1.029273  0  0  0.11893  0  1.027088  0  0  0.103128  0.113002  0  1.031096  0
H  H18  1  0.11816562  0.70244894  0.62990354  1  0  0.10518  0  0.967351  0  0  0.11555  0  1.029293  0  0  0.118924  0  1.027106  0  0  0.103122  0.112991  0  1.031126  0
H  H19  1  0.38183346  0.79754914  0.12990361  1  0  0.105157  0  0.967381  0  0  0.115524  0  1.029331  0  0  0.118896  0  1.027148  0  0  0.103119  0.112976  0  1.031149  0
H  H20  1  0.20489279  0.09580917  0.24690703  1  0  0.10476  0  0.934045  0  0  0.115322  0  0.994734  0  0  0.118806  0  0.992208  0  0  0.107022  0.112902  0  0.996479  0
H  H21  1  0.29510695  0.40418933  0.74690570  1  0  0.104761  0  0.934072  0  0  0.115343  0  0.994753  0  0  0.118827  0  0.992226  0  0  0.10702  0.112921  0  0.996497  0
H  H22  1  0.79510928  0.90419069  0.75309160  1  0  0.104746  0  0.93409  0  0  0.115332  0  0.99475  0  0  0.118815  0  0.992225  0  0  0.107041  0.112911  0  0.996498  0
H  H23  1  0.70489192  0.59581146  0.25309292  1  0  0.104761  0  0.934061  0  0  0.115347  0  0.994722  0  0  0.118831  0  0.992196  0  0  0.107037  0.112924  0  0.996466  0
H  H24  1  0.80190584  0.37307393  0.23080419  1  0  0.106674  0  0.932019  0  0  0.117431  0  0.991809  0  0  0.120699  0  0.989991  0  0  0.10756  0.11523  0  0.992833  0
H  H25  1  0.69809569  0.12692676  0.73080476  1  0  0.10666  0  0.932025  0  0  0.117409  0  0.991828  0  0  0.120677  0  0.990009  0  0  0.107547  0.115208  0  0.992858  0
H  H26  1  0.19809624  0.62692593  0.76919633  1  0  0.10672  0  0.932014  0  0  0.117474  0  0.991807  0  0  0.120743  0  0.989987  0  0  0.107572  0.115271  0  0.992834  0
H  H27  1  0.30190317  0.87307403  0.26919576  1  0  0.106723  0  0.932043  0  0  0.117504  0  0.991807  0  0  0.120773  0  0.989987  0  0  0.10758  0.115298  0  0.992841  0
H  H28  1  0.74872343  0.14265351  0.98078644  1  0  0.435048  0  0.825655  0  0  0.408084  0  0.895878  0  0  0.417539  0  0.884723  0  0  0.311126  0.401374  0  0.903774  0
H  H29  1  0.75127703  0.35734716  0.48078587  1  0  0.435031  0  0.825681  0  0  0.408071  0  0.895895  0  0  0.417525  0  0.884741  0  0  0.311148  0.401359  0  0.903796  0
H  H30  1  0.25127559  0.85734822  0.01921534  1  0  0.435053  0  0.825607  0  0  0.40809  0  0.895833  0  0  0.417545  0  0.884678  0  0  0.311132  0.401381  0  0.903731  0
H  H31  1  0.24872311  0.64265458  0.51921339  1  0  0.435049  0  0.825685  0  0  0.408083  0  0.895904  0  0  0.417537  0  0.88475  0  0  0.311097  0.401375  0  0.9038  0
H  H32  1  0.37519674  0.92894635  0.84917965  1  0  0.396524  0  0.904605  0  0  0.365588  0  0.981583  0  0  0.378962  0  0.967152  0  0  0.297535  0.35624  0  0.990668  0
H  H33  1  0.12480224  0.57105079  0.34917781  1  0  0.396474  0  0.904682  0  0  0.365585  0  0.981556  0  0  0.37896  0  0.967146  0  0  0.297545  0.356239  0  0.990643  0
H  H34  1  0.62480392  0.07105162  0.15082214  1  0  0.396454  0  0.904716  0  0  0.365572  0  0.981589  0  0  0.378947  0  0.967169  0  0  0.297531  0.356226  0  0.990668  0
H  H35  1  0.87519760  0.42894906  0.65082207  1  0  0.396413  0  0.904764  0  0  0.365551  0  0.98159  0  0  0.378925  0  0.967193  0  0  0.297535  0.356203  0  0.99068  0
H  H36  1  0.83564249  0.03278343  0.96174767  1  0  0.428977  0  0.857756  0  0  0.398583  0  0.923854  0  0  0.409212  0  0.90838  0  0  0.297464  0.391026  0  0.934856  0
H  H37  1  0.66435796  0.46721724  0.46174709  1  0  0.428964  0  0.857788  0  0  0.398574  0  0.92387  0  0  0.409202  0  0.908398  0  0  0.297487  0.391017  0  0.934871  0
H  H38  1  0.16435637  0.96721736  0.03825285  1  0  0.428958  0  0.85776  0  0  0.398566  0  0.923874  0  0  0.409194  0  0.908403  0  0  0.297456  0.391009  0  0.934876  0
H  H39  1  0.33564090  0.53278354  0.53825280  1  0  0.428978  0  0.857796  0  0  0.398583  0  0.923862  0  0  0.409212  0  0.90839  0  0  0.297457  0.391024  0  0.934867  0
C  C40  1  0.19344471  0.06431569  0.80416582  1  0  -0.032497  0  3.831134  0  0  -0.035678  0  4.079807  0  0  -0.040028  0  4.105955  0  0  0.066975  -0.032866  0  4.062412  0
C  C41  1  0.30655519  0.43568375  0.30416525  1  0  -0.032636  0  3.831195  0  0  -0.035836  0  4.079892  0  0  -0.040184  0  4.106046  0  0  0.066918  -0.033016  0  4.062483  0
C  C42  1  0.80655498  0.93568321  0.19583533  1  0  -0.032639  0  3.831245  0  0  -0.035848  0  4.079926  0  0  -0.04019  0  4.106072  0  0  0.066904  -0.033031  0  4.062531  0
C  C43  1  0.69344480  0.56431705  0.69583527  1  0  -0.032656  0  3.831235  0  0  -0.035837  0  4.07992  0  0  -0.040197  0  4.106081  0  0  0.066905  -0.033027  0  4.062527  0
C  C44  1  0.07659978  0.14161870  0.70035202  1  0  0.269053  0  3.664623  0  0  0.207332  0  3.951405  0  0  0.221589  0  3.964762  0  0  0.14952  0.198239  0  3.941527  0
C  C45  1  0.42340235  0.35838076  0.20035209  1  0  0.26913  0  3.66461  0  0  0.207387  0  3.951417  0  0  0.221645  0  3.964774  0  0  0.149526  0.198282  0  3.941539  0
C  C46  1  0.92340215  0.85838022  0.29964787  1  0  0.269122  0  3.664594  0  0  0.207379  0  3.951379  0  0  0.221635  0  3.964737  0  0  0.149549  0.19831  0  3.941493  0
C  C47  1  0.57659734  0.64161815  0.79964843  1  0  0.269132  0  3.664619  0  0  0.207384  0  3.951426  0  0  0.221643  0  3.964783  0  0  0.149534  0.198278  0  3.941552  0
C  C48  1  0.23002929  0.03879496  0.89196631  1  0  0.634714  0  3.86471  0  0  0.581627  0  4.165618  0  0  0.615519  0  4.158118  0  0  0.224691  0.558702  0  4.169941  0
C  C49  1  0.26996922  0.46120259  0.39196637  1  0  0.634961  0  3.864764  0  0  0.581864  0  4.165675  0  0  0.615757  0  4.158171  0  0  0.224763  0.558935  0  4.170005  0
C  C50  1  0.76997249  0.96120302  0.10803358  1  0  0.634939  0  3.864744  0  0  0.581904  0  4.165585  0  0  0.615783  0  4.158093  0  0  0.224807  0.558973  0  4.169921  0
C  C51  1  0.73003062  0.53879726  0.60803415  1  0  0.634951  0  3.864759  0  0  0.581854  0  4.165669  0  0  0.61575  0  4.158166  0  0  0.224772  0.55893  0  4.169998  0
C  C52  1  0.92459075  0.33132521  0.07717415  1  0  0.674336  0  3.881424  0  0  0.616686  0  4.181407  0  0  0.652721  0  4.172477  0  0  0.211807  0.591912  0  4.186735  0
C  C53  1  0.57541075  0.16867548  0.57717408  1  0  0.674355  0  3.881496  0  0  0.61672  0  4.181445  0  0  0.652755  0  4.172515  0  0  0.211824  0.591949  0  4.18677  0
C  C54  1  0.07540908  0.66867463  0.92282637  1  0  0.674181  0  3.881527  0  0  0.616547  0  4.181492  0  0  0.652582  0  4.172565  0  0  0.21176  0.591773  0  4.186819  0
C  C55  1  0.42458924  0.83132532  0.42282581  1  0  0.674267  0  3.881567  0  0  0.616609  0  4.181525  0  0  0.652644  0  4.172596  0  0  0.211773  0.591823  0  4.186864  0
C  C56  1  0.07397533  0.20047871  0.16559321  1  0  -0.068881  0  3.713074  0  0  -0.09315  0  3.967703  0  0  -0.094212  0  3.987774  0  0  -0.085783  -0.092497  0  3.954497  0
C  C57  1  0.42602694  0.29952169  0.66559126  1  0  -0.068751  0  3.712978  0  0  -0.093064  0  3.967631  0  0  -0.094126  0  3.987703  0  0  -0.085749  -0.092409  0  3.954418  0
C  C58  1  0.92602563  0.79952115  0.83440731  1  0  -0.068874  0  3.712983  0  0  -0.093151  0  3.967632  0  0  -0.094213  0  3.987702  0  0  -0.085778  -0.092494  0  3.954422  0
C  C59  1  0.57397417  0.70047911  0.33440674  1  0  -0.068845  0  3.713075  0  0  -0.093179  0  3.967712  0  0  -0.094242  0  3.987784  0  0  -0.085803  -0.092522  0  3.954495  0
C  C60  1  0.96112933  0.27927975  0.16102665  1  0  -0.066454  0  3.744419  0  0  -0.046871  0  3.986642  0  0  -0.053793  0  4.00899  0  0  -0.019953  -0.042271  0  3.971713  0
C  C61  1  0.53887107  0.22072093  0.66102657  1  0  -0.066503  0  3.744493  0  0  -0.046898  0  3.986691  0  0  -0.05382  0  4.009041  0  0  -0.019967  -0.042298  0  3.971761  0
C  C62  1  0.03887148  0.72071916  0.83897324  1  0  -0.066392  0  3.744279  0  0  -0.046804  0  3.986488  0  0  -0.053725  0  4.008836  0  0  -0.019955  -0.0422  0  3.971551  0
C  C63  1  0.46112795  0.77928080  0.33897332  1  0  -0.066475  0  3.744355  0  0  -0.046809  0  3.986481  0  0  -0.053731  0  4.008829  0  0  -0.019958  -0.042204  0  3.971543  0
C  C64  1  0.24411055  0.01898230  0.72818788  1  0  -0.007768  0  3.812415  0  0  -0.009798  0  4.056595  0  0  -0.012905  0  4.082462  0  0  0.07426  -0.007824  0  4.039447  0
C  C65  1  0.25589046  0.48101715  0.22818731  1  0  -0.007657  0  3.812395  0  0  -0.009652  0  4.056554  0  0  -0.012775  0  4.082438  0  0  0.074338  -0.007683  0  4.039395  0
C  C66  1  0.75589025  0.98101662  0.27181326  1  0  -0.007689  0  3.81239  0  0  -0.009694  0  4.056578  0  0  -0.012803  0  4.08244  0  0  0.074325  -0.007726  0  4.039434  0
C  C67  1  0.74411065  0.51898364  0.77181258  1  0  -0.007642  0  3.812356  0  0  -0.009678  0  4.056533  0  0  -0.012784  0  4.082404  0  0  0.074323  -0.007702  0  4.039377  0
C  C68  1  0.04838553  0.19219191  0.31724011  1  0  -0.074124  0  3.763474  0  0  -0.051195  0  4.002312  0  0  -0.05856  0  4.025221  0  0  -0.021599  -0.04649  0  3.987131  0
C  C69  1  0.45161228  0.30780846  0.81723879  1  0  -0.074303  0  3.76362  0  0  -0.051312  0  4.002397  0  0  -0.058678  0  4.025303  0  0  -0.02158  -0.0466  0  3.98721  0
C  C70  1  0.95161416  0.80780700  0.68275978  1  0  -0.07417  0  3.763668  0  0  -0.05121  0  4.002485  0  0  -0.058575  0  4.025393  0  0  -0.021587  -0.046504  0  3.987311  0
C  C71  1  0.54838673  0.69219327  0.18275983  1  0  -0.074229  0  3.763554  0  0  -0.051298  0  4.002383  0  0  -0.058663  0  4.02529  0  0  -0.021608  -0.046593  0  3.987203  0
C  C72  1  0.93416043  0.26948914  0.31256761  1  0  -0.076211  0  3.726844  0  0  -0.103718  0  3.983972  0  0  -0.104946  0  4.004416  0  0  -0.089668  -0.10263  0  3.970135  0
C  C73  1  0.56583888  0.23051153  0.81256691  1  0  -0.076116  0  3.726803  0  0  -0.103652  0  3.983951  0  0  -0.10488  0  4.004395  0  0  -0.089676  -0.102567  0  3.970109  0
C  C74  1  0.06584149  0.73050978  0.68743291  1  0  -0.076159  0  3.726898  0  0  -0.103679  0  3.984038  0  0  -0.104907  0  4.004483  0  0  -0.08964  -0.102589  0  3.970199  0
C  C75  1  0.43416014  0.76949020  0.18743235  1  0  -0.076052  0  3.72673  0  0  -0.103565  0  3.983882  0  0  -0.104792  0  4.004325  0  0  -0.08961  -0.102484  0  3.970035  0
C  C76  1  0.11701520  0.15661883  0.24306686  1  0  -0.056168  0  3.711154  0  0  -0.084025  0  3.970214  0  0  -0.083647  0  3.989426  0  0  -0.084093  -0.084417  0  3.957506  0
C  C77  1  0.38298484  0.34338155  0.74306491  1  0  -0.056203  0  3.711131  0  0  -0.084122  0  3.970237  0  0  -0.083744  0  3.989452  0  0  -0.08414  -0.084519  0  3.957535  0
C  C78  1  0.88298561  0.84338008  0.75693240  1  0  -0.056181  0  3.711306  0  0  -0.084068  0  3.97038  0  0  -0.083689  0  3.989593  0  0  -0.084132  -0.084461  0  3.957673  0
C  C79  1  0.61701545  0.65662112  0.25693372  1  0  -0.056158  0  3.711224  0  0  -0.084049  0  3.970315  0  0  -0.083671  0  3.989529  0  0  -0.08413  -0.084447  0  3.957611  0
C  C80  1  0.88963003  0.31207344  0.23483795  1  0  -0.062429  0  3.711645  0  0  -0.087624  0  3.968953  0  0  -0.088096  0  3.988479  0  0  -0.084107  -0.087346  0  3.955358  0
C  C81  1  0.61037038  0.18792724  0.73483788  1  0  -0.062394  0  3.711668  0  0  -0.087584  0  3.968965  0  0  -0.088057  0  3.988492  0  0  -0.084084  -0.087306  0  3.955376  0
C  C82  1  0.11037093  0.68792642  0.76516194  1  0  -0.062487  0  3.711615  0  0  -0.08768  0  3.968916  0  0  -0.088154  0  3.988443  0  0  -0.084102  -0.0874  0  3.955319  0
C  C83  1  0.38962878  0.81207543  0.26516138  1  0  -0.062527  0  3.711628  0  0  -0.087775  0  3.968934  0  0  -0.088251  0  3.988463  0  0  -0.084142  -0.087494  0  3.955341  0
C  C84  1  0.35542544  0.93352591  0.71197593  1  0  0.636553  0  3.936068  0  0  0.58147  0  4.234474  0  0  0.615881  0  4.228766  0  0  0.213353  0.558141  0  4.237575  0
C  C85  1  0.14457732  0.56647407  0.21197474  1  0  0.636569  0  3.936045  0  0  0.58144  0  4.234502  0  0  0.615856  0  4.228794  0  0  0.213332  0.55812  0  4.23759  0
C  C86  1  0.64457887  0.06647396  0.28802648  1  0  0.636687  0  3.935809  0  0  0.581543  0  4.234295  0  0  0.615954  0  4.228584  0  0  0.213409  0.558214  0  4.237397  0
C  C87  1  0.85542364  0.43352578  0.78802452  1  0  0.636531  0  3.936001  0  0  0.581449  0  4.234413  0  0  0.615861  0  4.228707  0  0  0.213366  0.558119  0  4.237513  0
C  C88  1  0.09538691  0.14491422  0.40025773  1  0  0.666525  0  3.882309  0  0  0.610144  0  4.176828  0  0  0.645976  0  4.169543  0  0  0.208264  0.585654  0  4.180682  0
C  C89  1  0.40460854  0.35508520  0.90025515  1  0  0.666585  0  3.882517  0  0  0.610174  0  4.177038  0  0  0.646009  0  4.169752  0  0  0.208233  0.585669  0  4.180901  0
C  C90  1  0.90461039  0.85508374  0.59974342  1  0  0.666584  0  3.882339  0  0  0.610143  0  4.176932  0  0  0.645977  0  4.169646  0  0  0.208205  0.58564  0  4.180806  0
C  C91  1  0.59539145  0.64491559  0.09974411  1  0  0.6666  0  3.882368  0  0  0.610219  0  4.176863  0  0  0.646053  0  4.169576  0  0  0.208289  0.585722  0  4.180726  0
N  N92  1  0.08804680  0.14178613  0.78512704  1  0  -0.440289  0  3.263082  0  0  -0.366985  0  3.551255  0  0  -0.390574  0  3.571164  0  0  -0.36188  -0.350398  0  3.53674  0
N  N93  1  0.41195392  0.35821143  0.28512774  1  0  -0.440339  0  3.26297  0  0  -0.367028  0  3.551162  0  0  -0.390619  0  3.571071  0  0  -0.361918  -0.350442  0  3.536647  0
N  N94  1  0.91195274  0.85821183  0.21487285  1  0  -0.440283  0  3.263058  0  0  -0.366971  0  3.551237  0  0  -0.390561  0  3.571142  0  0  -0.361883  -0.350386  0  3.536711  0
N  N95  1  0.58804704  0.64178842  0.71487278  1  0  -0.440297  0  3.263036  0  0  -0.366989  0  3.551217  0  0  -0.390579  0  3.571131  0  0  -0.361893  -0.350401  0  3.536704  0
N  N96  1  0.16872264  0.06819989  0.66363523  1  0  -0.429809  0  3.233153  0  0  -0.356818  0  3.508981  0  0  -0.380719  0  3.529889  0  0  -0.351234  -0.340538  0  3.49466  0
N  N97  1  0.33127933  0.43179862  0.16363529  1  0  -0.429861  0  3.232972  0  0  -0.356874  0  3.508805  0  0  -0.380769  0  3.529715  0  0  -0.351281  -0.340594  0  3.494478  0
N  N98  1  0.83127929  0.93179902  0.33636529  1  0  -0.429924  0  3.233006  0  0  -0.356941  0  3.508853  0  0  -0.380842  0  3.52976  0  0  -0.351316  -0.340658  0  3.494518  0
N  N99  1  0.66872051  0.56820123  0.83636523  1  0  -0.429867  0  3.23299  0  0  -0.356865  0  3.508819  0  0  -0.380766  0  3.529728  0  0  -0.351281  -0.340585  0  3.494499  0
O  O100  1  0.03437202  0.34755772  0.02361608  1  0  -0.717666  0  2.128716  0  0  -0.637795  0  2.410667  0  0  -0.668755  0  2.394799  0  0  -0.345754  -0.615402  0  2.420582  0
O  O101  1  0.46562910  0.15244268  0.52361667  1  0  -0.717685  0  2.128711  0  0  -0.637807  0  2.410657  0  0  -0.668766  0  2.394788  0  0  -0.34578  -0.615421  0  2.420589  0
O  O102  1  0.96562782  0.65244213  0.97638255  1  0  -0.717617  0  2.128774  0  0  -0.637742  0  2.410711  0  0  -0.6687  0  2.394844  0  0  -0.345753  -0.615349  0  2.420623  0
O  O103  1  0.53437089  0.84755811  0.47638259  1  0  -0.717604  0  2.128777  0  0  -0.637742  0  2.410732  0  0  -0.668702  0  2.394865  0  0  -0.345743  -0.615349  0  2.420655  0
O  O104  1  0.32974381  0.96240164  0.90713969  1  0  -0.537426  0  2.081102  0  0  -0.480341  0  2.29013  0  0  -0.503118  0  2.27527  0  0  -0.313552  -0.464857  0  2.299675  0
O  O105  1  0.17025421  0.53759643  0.40713913  1  0  -0.537476  0  2.08112  0  0  -0.480419  0  2.290127  0  0  -0.503197  0  2.275279  0  0  -0.313606  -0.464939  0  2.299678  0
O  O106  1  0.67025588  0.03759727  0.09286146  1  0  -0.537482  0  2.081081  0  0  -0.480449  0  2.290062  0  0  -0.503223  0  2.275214  0  0  -0.313612  -0.464962  0  2.299607  0
O  O107  1  0.82974578  0.46240437  0.59286139  1  0  -0.537426  0  2.081169  0  0  -0.480378  0  2.29015  0  0  -0.503155  0  2.275312  0  0  -0.313587  -0.464896  0  2.299702  0
O  O108  1  0.16502811  0.08685176  0.95173672  1  0  -0.600444  0  1.970336  0  0  -0.539291  0  2.197935  0  0  -0.563979  0  2.186417  0  0  -0.296779  -0.521901  0  2.205363  0
O  O109  1  0.33496928  0.41314578  0.45173616  1  0  -0.600576  0  1.970524  0  0  -0.539411  0  2.198107  0  0  -0.564087  0  2.186554  0  0  -0.296804  -0.522025  0  2.205543  0
O  O110  1  0.83497173  0.91314809  0.04826443  1  0  -0.600503  0  1.970484  0  0  -0.539376  0  2.198063  0  0  -0.564057  0  2.186543  0  0  -0.29681  -0.521988  0  2.205502  0
O  O111  1  0.66503070  0.58685501  0.54826373  1  0  -0.600559  0  1.9705  0  0  -0.53941  0  2.198111  0  0  -0.564087  0  2.186561  0  0  -0.296803  -0.522022  0  2.205541  0
O  O112  1  0.79212428  0.35479330  0.06314650  1  0  -0.611977  0  1.977042  0  0  -0.547607  0  2.225095  0  0  -0.575056  0  2.212464  0  0  -0.313003  -0.528271  0  2.233334  0
O  O113  1  0.70787722  0.14520739  0.56314644  1  0  -0.61196  0  1.977101  0  0  -0.547642  0  2.225192  0  0  -0.575089  0  2.212561  0  0  -0.313005  -0.528305  0  2.233435  0
O  O114  1  0.20787668  0.64520656  0.93685465  1  0  -0.611881  0  1.977038  0  0  -0.547556  0  2.225139  0  0  -0.575006  0  2.212509  0  0  -0.312972  -0.528217  0  2.233379  0
O  O115  1  0.29212389  0.85479340  0.43685408  1  0  -0.611946  0  1.977129  0  0  -0.547591  0  2.225192  0  0  -0.575037  0  2.212561  0  0  -0.312994  -0.52825  0  2.233437  0
O  O116  1  0.42602346  0.89011044  0.77246016  1  0  -0.57383  0  2.003848  0  0  -0.522294  0  2.226427  0  0  -0.547164  0  2.21757  0  0  -0.296849  -0.504964  0  2.231515  0
O  O117  1  0.07397946  0.60989048  0.27245895  1  0  -0.573815  0  2.003766  0  0  -0.5223  0  2.226369  0  0  -0.547171  0  2.217517  0  0  -0.296845  -0.504972  0  2.231449  0
O  O118  1  0.57398003  0.10989131  0.22754099  1  0  -0.573881  0  2.00356  0  0  -0.522366  0  2.22617  0  0  -0.547237  0  2.217317  0  0  -0.296902  -0.505033  0  2.231255  0
O  O119  1  0.92602165  0.39011031  0.72754157  1  0  -0.573792  0  2.0038  0  0  -0.522288  0  2.226343  0  0  -0.547158  0  2.217496  0  0  -0.296856  -0.50496  0  2.231435  0
O  O120  1  0.37677883  0.90585149  0.63443166  1  0  -0.661822  0  2.125509  0  0  -0.578358  0  2.397776  0  0  -0.61056  0  2.384447  0  0  -0.318964  -0.555297  0  2.406546  0
O  O121  1  0.12322407  0.59414944  0.13443046  1  0  -0.661814  0  2.125509  0  0  -0.578356  0  2.397819  0  0  -0.61055  0  2.384472  0  0  -0.318944  -0.555301  0  2.40659  0
O  O122  1  0.62322452  0.09414932  0.36556949  1  0  -0.661844  0  2.125584  0  0  -0.578347  0  2.397854  0  0  -0.61055  0  2.384534  0  0  -0.31895  -0.555287  0  2.406628  0
O  O123  1  0.87677689  0.40585042  0.86556943  1  0  -0.661816  0  2.125489  0  0  -0.578368  0  2.397787  0  0  -0.610563  0  2.38444  0  0  -0.318976  -0.555304  0  2.406553  0
O  O124  1  0.23004137  0.11443683  0.40567874  1  0  -0.678989  0  2.073207  0  0  -0.596037  0  2.340226  0  0  -0.629073  0  2.32741  0  0  -0.327912  -0.572252  0  2.348084  0
O  O125  1  0.26995295  0.38556258  0.90567426  1  0  -0.679036  0  2.07336  0  0  -0.596021  0  2.340325  0  0  -0.629054  0  2.327505  0  0  -0.327878  -0.572239  0  2.348203  0
O  O126  1  0.76995548  0.88555830  0.59432367  1  0  -0.678957  0  2.073252  0  0  -0.595938  0  2.340245  0  0  -0.628975  0  2.327428  0  0  -0.327803  -0.572141  0  2.348088  0
O  O127  1  0.73004592  0.61443821  0.09432437  1  0  -0.679044  0  2.073294  0  0  -0.596032  0  2.340248  0  0  -0.629066  0  2.327429  0  0  -0.327902  -0.572248  0  2.348115  0
O  O128  1  0.00538891  0.13224875  0.46231332  1  0  -0.647917  0  1.987361  0  0  -0.582324  0  2.235503  0  0  -0.610669  0  2.222446  0  0  -0.323732  -0.561877  0  2.243804  0
O  O129  1  0.49460334  0.36775159  0.96231201  1  0  -0.647948  0  1.987412  0  0  -0.582369  0  2.235582  0  0  -0.610715  0  2.222522  0  0  -0.323761  -0.561914  0  2.243876  0
O  O130  1  0.99460660  0.86775202  0.53768657  1  0  -0.647983  0  1.987351  0  0  -0.582384  0  2.235536  0  0  -0.61073  0  2.222477  0  0  -0.323774  -0.561927  0  2.243833  0
O  O131  1  0.50539538  0.63224825  0.03768725  1  0  -0.647967  0  1.987328  0  0  -0.582391  0  2.235477  0  0  -0.610738  0  2.222418  0  0  -0.323775  -0.56194  0  2.243778  0
O  O132  1  0.81356319  0.11330312  0.93738057  1  0  -0.823265  0  1.845905  0  0  -0.763602  0  2.042855  0  0  -0.784191  0  2.012662  0  0  -0.577786  -0.748849  0  2.063838  0
O  O133  1  0.68643965  0.38669850  0.43737936  1  0  -0.823207  0  1.845922  0  0  -0.763572  0  2.042884  0  0  -0.784162  0  2.012694  0  0  -0.57784  -0.748818  0  2.063867  0
O  O134  1  0.18643695  0.88669861  0.06262121  1  0  -0.823229  0  1.845838  0  0  -0.763589  0  2.042816  0  0  -0.784177  0  2.012627  0  0  -0.577787  -0.748836  0  2.063798  0
O  O135  1  0.31356272  0.61330324  0.56261926  1  0  -0.823244  0  1.84597  0  0  -0.763587  0  2.042911  0  0  -0.784175  0  2.012718  0  0  -0.577752  -0.748831  0  2.063892  0
