# generated using pymatgen
data_ZnH22C37Br4(NO2)2
_symmetry_space_group_name_H-M   'P 1'
_cell_length_a   8.95084532
_cell_length_b   15.84887614
_cell_length_c   17.06748732
_cell_angle_alpha   115.26860730
_cell_angle_beta   90.90281353
_cell_angle_gamma   91.73404433
_symmetry_Int_Tables_number   1
_chemical_formula_structural   ZnH22C37Br4(NO2)2
_chemical_formula_sum   'Zn2 H44 C74 Br8 N4 O8'
_cell_volume   2187.43447666
_cell_formula_units_Z   2
loop_
 _symmetry_equiv_pos_site_id
 _symmetry_equiv_pos_as_xyz
  1  'x, y, z'
loop_
 _atom_site_type_symbol
 _atom_site_label
 _atom_site_symmetry_multiplicity
 _atom_site_fract_x
 _atom_site_fract_y
 _atom_site_fract_z
 _atom_site_occupancy
 _atom_site_hle17_bader_spin_density
 _atom_site_hle17_ddec_charge
 _atom_site_hle17_ddec_spin_density
 _atom_site_hle17_ddec_sum_bond_order
 _atom_site_hle17_magmom
 _atom_site_hse06_10hf_bader_spin_density
 _atom_site_hse06_10hf_ddec_charge
 _atom_site_hse06_10hf_ddec_spin_density
 _atom_site_hse06_10hf_ddec_sum_bond_order
 _atom_site_hse06_10hf_magmom
 _atom_site_hse06_bader_spin_density
 _atom_site_hse06_ddec_charge
 _atom_site_hse06_ddec_spin_density
 _atom_site_hse06_ddec_sum_bond_order
 _atom_site_hse06_magmom
 _atom_site_pbe_bader_spin_density
 _atom_site_pbe_cm5_charge
 _atom_site_pbe_ddec_charge
 _atom_site_pbe_ddec_spin_density
 _atom_site_pbe_ddec_sum_bond_order
 _atom_site_pbe_magmom
Zn  Zn0  1  0.94819119  0.26885302  0.02117189  1  0  0.771019  0  2.178212  0  0  0.593666  0  2.66697  0  0  0.635242  0  2.622035  0  0  0.4991  0.565183  0  2.697465  0
Zn  Zn1  1  0.05181534  0.73114889  0.97883547  1  0  0.771001  0  2.178308  0  0  0.593694  0  2.667124  0  0  0.635266  0  2.62219  0  0  0.49913  0.565211  0  2.697629  0
H  H2  1  0.73591466  0.29807282  0.16403266  1  0  0.092952  0  0.931129  0  0  0.09648  0  1.001304  0  0  0.100205  0  0.996857  0  0  0.119649  0.093728  0  1.00452  0
H  H3  1  0.26406751  0.70192966  0.83596288  1  0  0.092988  0  0.930994  0  0  0.096488  0  1.001188  0  0  0.100213  0  0.996737  0  0  0.119673  0.093735  0  1.004405  0
H  H4  1  0.57949655  0.57766144  0.25378370  1  0  0.111976  0  0.930156  0  0  0.12188  0  0.98774  0  0  0.124943  0  0.985577  0  0  0.117273  0.119551  0  0.989408  0
H  H5  1  0.42050253  0.42234385  0.74621549  1  0  0.112037  0  0.930124  0  0  0.12195  0  0.987686  0  0  0.125011  0  0.985525  0  0  0.117298  0.119615  0  0.98936  0
H  H6  1  0.73057718  0.59436273  0.13607676  1  0  0.114949  0  0.970189  0  0  0.124666  0  1.028686  0  0  0.127794  0  1.028094  0  0  0.101216  0.122428  0  1.029294  0
H  H7  1  0.26942209  0.40564535  0.86392352  1  0  0.114857  0  0.970269  0  0  0.124606  0  1.028752  0  0  0.127732  0  1.028164  0  0  0.101213  0.12237  0  1.02936  0
H  H8  1  0.87641955  0.45968633  0.03937307  1  0  0.082799  0  0.964489  0  0  0.08584  0  1.036611  0  0  0.088984  0  1.033065  0  0  0.104928  0.083474  0  1.03919  0
H  H9  1  0.12357603  0.54031761  0.96062907  1  0  0.082803  0  0.964447  0  0  0.085858  0  1.03656  0  0  0.088997  0  1.033012  0  0  0.104941  0.083494  0  1.039136  0
H  H10  1  0.30017227  0.22898182  0.22708424  1  0  0.115525  0  0.969072  0  0  0.126343  0  1.029787  0  0  0.129468  0  1.028028  0  0  0.093636  0.12409  0  1.031142  0
H  H11  1  0.69981016  0.77102486  0.77291411  1  0  0.115433  0  0.96917  0  0  0.126304  0  1.029837  0  0  0.129432  0  1.028073  0  0  0.093624  0.124049  0  1.031199  0
H  H12  1  0.15575422  0.17521519  0.32236664  1  0  0.097059  0  0.945903  0  0  0.109565  0  1.001913  0  0  0.111973  0  1.001786  0  0  0.1015  0.107831  0  1.002122  0
H  H13  1  0.84423980  0.82478175  0.67763160  1  0  0.097093  0  0.945878  0  0  0.109593  0  1.001886  0  0  0.112  0  1.00176  0  0  0.101525  0.107857  0  1.002098  0
H  H14  1  0.45070038  0.34596829  0.53790621  1  0  0.098962  0  0.96311  0  0  0.109244  0  1.025493  0  0  0.112028  0  1.024092  0  0  0.101982  0.107265  0  1.026565  0
H  H15  1  0.54930364  0.65402722  0.46208926  1  0  0.098891  0  0.963102  0  0  0.109201  0  1.025469  0  0  0.111985  0  1.024069  0  0  0.101967  0.107221  0  1.026541  0
H  H16  1  0.59757939  0.39533489  0.44190007  1  0  0.118763  0  0.937159  0  0  0.129404  0  0.995037  0  0  0.132416  0  0.993934  0  0  0.109887  0.127256  0  0.995889  0
H  H17  1  0.40241304  0.60467110  0.55809931  1  0  0.118849  0  0.937171  0  0  0.129468  0  0.995063  0  0  0.132477  0  0.993966  0  0  0.109913  0.12732  0  0.995915  0
H  H18  1  0.25926313  0.03501417  0.39977523  1  0  0.111365  0  0.969467  0  0  0.119659  0  1.037456  0  0  0.122441  0  1.036376  0  0  0.099646  0.11766  0  1.03831  0
H  H19  1  0.74073856  0.96498142  0.60022668  1  0  0.111421  0  0.969309  0  0  0.119699  0  1.03731  0  0  0.122487  0  1.036234  0  0  0.099658  0.1177  0  1.038164  0
H  H20  1  0.79297868  0.94345824  0.36655520  1  0  0.104007  0  0.977299  0  0  0.11225  0  1.042743  0  0  0.11448  0  1.043145  0  0  0.097055  0.11065  0  1.042537  0
H  H21  1  0.20702195  0.05653509  0.63343294  1  0  0.104052  0  0.977221  0  0  0.11227  0  1.042706  0  0  0.114495  0  1.043106  0  0  0.097092  0.11067  0  1.0425  0
H  H22  1  0.71787855  0.10678154  0.44526181  1  0  0.100319  0  0.948641  0  0  0.114707  0  1.003717  0  0  0.117275  0  1.002461  0  0  0.103873  0.112881  0  1.00467  0
H  H23  1  0.28212540  0.89321181  0.55472814  1  0  0.100289  0  0.948765  0  0  0.114737  0  1.003754  0  0  0.117311  0  1.002501  0  0  0.103896  0.112912  0  1.004705  0
H  H24  1  0.70032027  0.29078907  0.53243379  1  0  0.092195  0  0.963033  0  0  0.103507  0  1.02469  0  0  0.10553  0  1.024737  0  0  0.099144  0.102073  0  1.024713  0
H  H25  1  0.29968178  0.70921211  0.46757088  1  0  0.092153  0  0.963081  0  0  0.103497  0  1.024713  0  0  0.10552  0  1.02476  0  0  0.099139  0.10206  0  1.024737  0
H  H26  1  0.74167367  0.46357275  0.60701276  1  0  0.11594  0  0.964939  0  0  0.125129  0  1.026788  0  0  0.12885  0  1.024289  0  0  0.100229  0.122437  0  1.028686  0
H  H27  1  0.25833860  0.53642904  0.39298466  1  0  0.115945  0  0.964924  0  0  0.125111  0  1.026814  0  0  0.128833  0  1.024309  0  0  0.100235  0.12242  0  1.028713  0
H  H28  1  0.22006493  0.43416797  0.58712627  1  0  0.110922  0  0.959501  0  0  0.119847  0  1.025797  0  0  0.122557  0  1.024961  0  0  0.100033  0.117905  0  1.026488  0
H  H29  1  0.77995141  0.56582751  0.41286700  1  0  0.110888  0  0.959509  0  0  0.119829  0  1.025782  0  0  0.122539  0  1.024954  0  0  0.100031  0.11789  0  1.026471  0
H  H30  1  0.14442520  0.28841622  0.67208814  1  0  0.095408  0  0.96552  0  0  0.104705  0  1.02767  0  0  0.107306  0  1.027333  0  0  0.09798  0.102853  0  1.027993  0
H  H31  1  0.85557931  0.71158699  0.32791207  1  0  0.095415  0  0.965536  0  0  0.104718  0  1.027674  0  0  0.10732  0  1.027337  0  0  0.097999  0.102865  0  1.027997  0
H  H32  1  0.28596184  0.25167018  0.77979285  1  0  0.116415  0  0.953144  0  0  0.124565  0  1.017296  0  0  0.128273  0  1.014572  0  0  0.100067  0.121876  0  1.019355  0
H  H33  1  0.71403601  0.74833446  0.22021077  1  0  0.116366  0  0.953172  0  0  0.124503  0  1.017353  0  0  0.12821  0  1.014628  0  0  0.099992  0.121815  0  1.019412  0
H  H34  1  0.61074942  0.11231029  0.58861747  1  0  0.10865  0  0.965375  0  0  0.114804  0  1.034086  0  0  0.11818  0  1.032373  0  0  0.101226  0.112327  0  1.035424  0
H  H35  1  0.38924867  0.88768183  0.41138423  1  0  0.10862  0  0.96537  0  0  0.114784  0  1.034065  0  0  0.11816  0  1.032353  0  0  0.101212  0.112309  0  1.035405  0
H  H36  1  0.46522180  0.14420119  0.47966292  1  0  0.100168  0  0.954005  0  0  0.111307  0  1.014833  0  0  0.114075  0  1.013458  0  0  0.104204  0.109327  0  1.015879  0
H  H37  1  0.53477875  0.85579442  0.52034016  1  0  0.100157  0  0.953979  0  0  0.11126  0  1.014846  0  0  0.11401  0  1.013489  0  0  0.104197  0.109279  0  1.015892  0
H  H38  1  0.72597372  0.22308388  0.87264524  1  0  0.094986  0  0.929625  0  0  0.098347  0  0.999661  0  0  0.102132  0  0.995167  0  0  0.119598  0.095516  0  1.002942  0
H  H39  1  0.27401842  0.77691940  0.12735953  1  0  0.094966  0  0.929709  0  0  0.098336  0  0.999748  0  0  0.102119  0  0.995252  0  0  0.119579  0.095503  0  1.003026  0
H  H40  1  0.88278117  0.07700762  0.00630415  1  0  0.081682  0  0.962181  0  0  0.086787  0  1.029972  0  0  0.09006  0  1.026426  0  0  0.106359  0.084341  0  1.032541  0
H  H41  1  0.11723016  0.92299769  0.99369814  1  0  0.081667  0  0.961955  0  0  0.086747  0  1.029789  0  0  0.090018  0  1.026246  0  0  0.106347  0.084304  0  1.03236  0
H  H42  1  0.74993732  0.92815277  0.90287690  1  0  0.114853  0  0.969404  0  0  0.122161  0  1.031191  0  0  0.125899  0  1.029804  0  0  0.099687  0.119482  0  1.03236  0
H  H43  1  0.25007158  0.07185050  0.09712808  1  0  0.114901  0  0.969378  0  0  0.12227  0  1.031102  0  0  0.126009  0  1.029713  0  0  0.099706  0.11959  0  1.032272  0
H  H44  1  0.59552550  0.93136129  0.77788578  1  0  0.11105  0  0.940431  0  0  0.120027  0  1.000561  0  0  0.12326  0  0.998089  0  0  0.115743  0.117658  0  1.002315  0
H  H45  1  0.40446540  0.06864136  0.22212400  1  0  0.111103  0  0.940413  0  0  0.120013  0  1.000601  0  0  0.123248  0  0.998127  0  0  0.115735  0.117644  0  1.002355  0
C  C46  1  0.72940398  0.36422725  0.15918358  1  0  0.136699  0  3.658964  0  0  0.087371  0  3.916148  0  0  0.097987  0  3.932019  0  0  0.059712  0.08059  0  3.90544  0
C  C47  1  0.27058237  0.63577105  0.84081158  1  0  0.136721  0  3.658782  0  0  0.087488  0  3.916  0  0  0.09811  0  3.931866  0  0  0.059726  0.080709  0  3.905288  0
C  C48  1  0.64394005  0.43602175  0.21584507  1  0  -0.118428  0  3.777148  0  0  -0.097289  0  4.020214  0  0  -0.111167  0  4.04383  0  0  -0.008694  -0.088588  0  4.004616  0
C  C49  1  0.35604851  0.56397583  0.78414866  1  0  -0.118533  0  3.777162  0  0  -0.09739  0  4.020224  0  0  -0.111265  0  4.043835  0  0  -0.00879  -0.088689  0  4.004626  0
C  C50  1  0.64374737  0.52076454  0.20879626  1  0  0.012184  0  3.66608  0  0  -0.016934  0  3.908534  0  0  -0.010256  0  3.9258  0  0  -0.046258  -0.020852  0  3.896743  0
C  C51  1  0.35624810  0.47923728  0.79120330  1  0  0.01199  0  3.666258  0  0  -0.017089  0  3.908727  0  0  -0.01041  0  3.925989  0  0  -0.046303  -0.021001  0  3.896938  0
C  C52  1  0.72655794  0.53012368  0.14458203  1  0  -0.106512  0  3.704446  0  0  -0.114701  0  3.945606  0  0  -0.124153  0  3.968017  0  0  -0.076132  -0.108842  0  3.93065  0
C  C53  1  0.27343332  0.46988162  0.85541766  1  0  -0.106412  0  3.704711  0  0  -0.114682  0  3.945915  0  0  -0.124134  0  3.968329  0  0  -0.076192  -0.108825  0  3.930958  0
C  C54  1  0.80834960  0.45547096  0.09016662  1  0  0.152654  0  3.647862  0  0  0.120967  0  3.886208  0  0  0.129746  0  3.90394  0  0  0.057953  0.115441  0  3.874146  0
C  C55  1  0.19164934  0.54453297  0.90983556  1  0  0.15263  0  3.647831  0  0  0.120999  0  3.886218  0  0  0.129782  0  3.903951  0  0  0.057986  0.115473  0  3.874157  0
C  C56  1  0.55524292  0.42613154  0.28447576  1  0  0.600529  0  3.804523  0  0  0.549058  0  4.103326  0  0  0.583357  0  4.093714  0  0  0.24619  0.525677  0  4.109596  0
C  C57  1  0.44474714  0.57387162  0.71551897  1  0  0.60055  0  3.804407  0  0  0.549086  0  4.103284  0  0  0.583385  0  4.093673  0  0  0.246112  0.525699  0  4.109563  0
C  C58  1  0.45727457  0.31265019  0.32908669  1  0  0.265604  0  3.783442  0  0  0.255939  0  4.046033  0  0  0.264823  0  4.063075  0  0  0.073978  0.24975  0  4.034518  0
C  C59  1  0.54271654  0.68735229  0.67090956  1  0  0.26565  0  3.783397  0  0  0.256095  0  4.045907  0  0  0.264994  0  4.062936  0  0  0.074073  0.249899  0  4.034399  0
C  C60  1  0.33415685  0.25146849  0.29484366  1  0  -0.167341  0  3.763155  0  0  -0.189849  0  4.017371  0  0  -0.194015  0  4.037144  0  0  -0.101954  -0.186928  0  4.003963  0
C  C61  1  0.66583519  0.74853193  0.70515473  1  0  -0.167117  0  3.763161  0  0  -0.189674  0  4.017314  0  0  -0.193831  0  4.037055  0  0  -0.101922  -0.186749  0  4.003895  0
C  C62  1  0.25324565  0.22265160  0.34891971  1  0  -0.091887  0  3.750858  0  0  -0.115687  0  4.008  0  0  -0.117617  0  4.029801  0  0  -0.092009  -0.114305  0  3.993169  0
C  C63  1  0.74674850  0.77734745  0.65107994  1  0  -0.092027  0  3.751065  0  0  -0.115807  0  4.008236  0  0  -0.117737  0  4.030041  0  0  -0.092015  -0.114422  0  3.993404  0
C  C64  1  0.29489246  0.25517884  0.43656806  1  0  0.048212  0  3.709042  0  0  0.061486  0  3.947926  0  0  0.060411  0  3.972662  0  0  -0.005514  0.062185  0  3.93111  0
C  C65  1  0.70511258  0.74481602  0.56343068  1  0  0.048325  0  3.709121  0  0  0.061544  0  3.948076  0  0  0.060471  0  3.97281  0  0  -0.005564  0.062241  0  3.931259  0
C  C66  1  0.41855551  0.31807629  0.46935799  1  0  -0.099045  0  3.74675  0  0  -0.119102  0  3.997812  0  0  -0.12151  0  4.019653  0  0  -0.089909  -0.117382  0  3.982941  0
C  C67  1  0.58144428  0.68192271  0.53063878  1  0  -0.09898  0  3.746802  0  0  -0.119051  0  3.997886  0  0  -0.121459  0  4.019728  0  0  -0.089895  -0.11733  0  3.983013  0
C  C68  1  0.50111964  0.34706078  0.41612010  1  0  -0.153735  0  3.749625  0  0  -0.175816  0  4.000027  0  0  -0.17926  0  4.019553  0  0  -0.093304  -0.1734  0  3.986772  0
C  C69  1  0.49887691  0.65293961  0.58387600  1  0  -0.153938  0  3.749812  0  0  -0.176026  0  4.000246  0  0  -0.179475  0  4.01977  0  0  -0.093371  -0.17361  0  3.986993  0
C  C70  1  0.20009356  0.23140748  0.49864239  1  0  0.004092  0  3.624343  0  0  0.009189  0  3.840951  0  0  0.010311  0  3.855673  0  0  0.012885  0.008644  0  3.830629  0
C  C71  1  0.79991064  0.76859157  0.50135796  1  0  0.00402  0  3.62401  0  0  0.009124  0  3.840617  0  0  0.010243  0  3.85534  0  0  0.012896  0.008581  0  3.830293  0
C  C72  1  0.09888423  0.14280421  0.45509998  1  0  0.028121  0  3.686193  0  0  0.043186  0  3.919365  0  0  0.04212  0  3.942424  0  0  -0.001872  0.043854  0  3.90372  0
C  C73  1  0.90112771  0.85719342  0.54489935  1  0  0.028123  0  3.68593  0  0  0.043305  0  3.918937  0  0  0.042242  0  3.941995  0  0  -0.001806  0.043972  0  3.903291  0
C  C74  1  0.14193139  0.05144758  0.41031585  1  0  -0.165111  0  3.757781  0  0  -0.196776  0  4.01223  0  0  -0.199784  0  4.033754  0  0  -0.102218  -0.194598  0  3.997644  0
C  C75  1  0.85807158  0.94854935  0.58968191  1  0  -0.165099  0  3.757559  0  0  -0.196797  0  4.011966  0  0  -0.199815  0  4.033477  0  0  -0.102219  -0.194619  0  3.997379  0
C  C76  1  0.02936723  0.98101756  0.37904595  1  0  0.096789  0  3.725458  0  0  0.114467  0  3.991388  0  0  0.117139  0  4.014222  0  0  -0.018436  0.112488  0  3.975961  0
C  C77  1  0.97063915  0.01897931  0.62094773  1  0  0.096577  0  3.725774  0  0  0.114282  0  3.991659  0  0  0.116955  0  4.014492  0  0  -0.018524  0.112304  0  3.97623  0
C  C78  1  0.87784922  0.99995242  0.39167436  1  0  -0.114266  0  3.75903  0  0  -0.13767  0  4.009223  0  0  -0.139798  0  4.030548  0  0  -0.099644  -0.136116  0  3.994752  0
C  C79  1  0.12215486  0.00004377  0.60832020  1  0  -0.114093  0  3.759094  0  0  -0.137485  0  4.009266  0  0  -0.139606  0  4.030586  0  0  -0.099616  -0.135932  0  3.994796  0
C  C80  1  0.83624333  0.09223426  0.43670366  1  0  -0.084115  0  3.726846  0  0  -0.102493  0  3.976097  0  0  -0.103894  0  3.994934  0  0  -0.086856  -0.10153  0  3.963258  0
C  C81  1  0.16376526  0.90776263  0.56329181  1  0  -0.084289  0  3.727022  0  0  -0.102723  0  3.976284  0  0  -0.104136  0  3.99513  0  0  -0.086993  -0.101759  0  3.963445  0
C  C82  1  0.94691991  0.16392842  0.46890787  1  0  0.009946  0  3.80162  0  0  0.012433  0  4.044831  0  0  0.012729  0  4.06727  0  0  -0.01433  0.012251  0  4.029643  0
C  C83  1  0.05309415  0.83606782  0.53109153  1  0  0.009977  0  3.801538  0  0  0.012443  0  4.044726  0  0  0.012737  0  4.067164  0  0  -0.014345  0.012261  0  4.029537  0
C  C84  1  0.93715143  0.26507948  0.51762631  1  0  0.007953  0  3.801102  0  0  0.010438  0  4.044891  0  0  0.010437  0  4.067255  0  0  -0.015218  0.010422  0  4.029785  0
C  C85  1  0.06285602  0.73491743  0.48237033  1  0  0.007841  0  3.801392  0  0  0.010303  0  4.045224  0  0  0.010311  0  4.067577  0  0  -0.015278  0.010289  0  4.030115  0
C  C86  1  0.81382082  0.32150792  0.54459785  1  0  -0.08578  0  3.738145  0  0  -0.103568  0  3.988367  0  0  -0.105002  0  4.008505  0  0  -0.089253  -0.102554  0  3.974624  0
C  C87  1  0.18618321  0.67848831  0.45540025  1  0  -0.085604  0  3.738283  0  0  -0.103399  0  3.988459  0  0  -0.104835  0  4.008594  0  0  -0.089095  -0.102384  0  3.974714  0
C  C88  1  0.83662601  0.41851664  0.58640820  1  0  -0.128185  0  3.761423  0  0  -0.15189  0  4.011164  0  0  -0.154422  0  4.031043  0  0  -0.102031  -0.150039  0  3.997629  0
C  C89  1  0.16338365  0.58147956  0.41358702  1  0  -0.128205  0  3.76148  0  0  -0.151902  0  4.011222  0  0  -0.154432  0  4.031103  0  0  -0.102147  -0.150053  0  3.997685  0
C  C90  1  0.98258182  0.45744375  0.60074081  1  0  0.097326  0  3.737882  0  0  0.113936  0  4.00669  0  0  0.117116  0  4.029018  0  0  -0.020765  0.111634  0  3.991574  0
C  C91  1  0.01742996  0.54255107  0.39925566  1  0  0.097299  0  3.73797  0  0  0.113924  0  4.006753  0  0  0.117105  0  4.029077  0  0  -0.020732  0.111623  0  3.991638  0
C  C92  1  0.10762546  0.40227524  0.57620604  1  0  -0.163476  0  3.755151  0  0  -0.19568  0  4.010993  0  0  -0.198441  0  4.031809  0  0  -0.102209  -0.193715  0  3.996903  0
C  C93  1  0.89238874  0.59772311  0.42379475  1  0  -0.163511  0  3.75532  0  0  -0.195721  0  4.011156  0  0  -0.198487  0  4.03198  0  0  -0.102257  -0.193759  0  3.997067  0
C  C94  1  0.08308653  0.30601771  0.53514122  1  0  0.028469  0  3.690433  0  0  0.041686  0  3.926814  0  0  0.040867  0  3.94964  0  0  -0.002686  0.042208  0  3.911346  0
C  C95  1  0.91692208  0.69397991  0.46485629  1  0  0.028573  0  3.690406  0  0  0.04176  0  3.926855  0  0  0.040938  0  3.949682  0  0  -0.002674  0.04228  0  3.911386  0
C  C96  1  0.29513182  0.21959349  0.56847225  1  0  0.051196  0  3.695285  0  0  0.064689  0  3.934055  0  0  0.063654  0  3.958713  0  0  -0.004201  0.065342  0  3.91733  0
C  C97  1  0.70486558  0.78040416  0.43152748  1  0  0.051202  0  3.695161  0  0  0.064651  0  3.933985  0  0  0.063616  0  3.958637  0  0  -0.004209  0.065304  0  3.917258  0
C  C98  1  0.24690673  0.25043795  0.65340068  1  0  -0.100814  0  3.771056  0  0  -0.124579  0  4.029095  0  0  -0.126642  0  4.050996  0  0  -0.092889  -0.123119  0  4.014228  0
C  C99  1  0.75309550  0.74956529  0.34660186  1  0  -0.100849  0  3.77103  0  0  -0.124601  0  4.029088  0  0  -0.126667  0  4.050989  0  0  -0.092905  -0.123141  0  4.014222  0
C  C100  1  0.32621504  0.23093492  0.71442213  1  0  -0.169464  0  3.758048  0  0  -0.189723  0  4.011372  0  0  -0.193764  0  4.02998  0  0  -0.099395  -0.186867  0  3.998759  0
C  C101  1  0.67378623  0.76907041  0.28558062  1  0  -0.169307  0  3.758022  0  0  -0.189591  0  4.011316  0  0  -0.193637  0  4.029941  0  0  -0.09932  -0.186734  0  3.998695  0
C  C102  1  0.45611101  0.18169061  0.69010280  1  0  0.265398  0  3.784857  0  0  0.257224  0  4.044962  0  0  0.266356  0  4.061504  0  0  0.073456  0.250854  0  4.033782  0
C  C103  1  0.54389013  0.81831335  0.30990177  1  0  0.265198  0  3.785068  0  0  0.257054  0  4.045093  0  0  0.266182  0  4.061634  0  0  0.073484  0.25069  0  4.033908  0
C  C104  1  0.50822081  0.15043873  0.60617360  1  0  -0.163446  0  3.762146  0  0  -0.184945  0  4.01362  0  0  -0.188672  0  4.033195  0  0  -0.09817  -0.182285  0  4.000424  0
C  C105  1  0.49177873  0.84955826  0.39382883  1  0  -0.163321  0  3.762219  0  0  -0.184855  0  4.013685  0  0  -0.18858  0  4.033254  0  0  -0.098208  -0.182201  0  4.000486  0
C  C106  1  0.42634715  0.16917442  0.54573718  1  0  -0.095937  0  3.738759  0  0  -0.115312  0  3.989  0  0  -0.117463  0  4.010749  0  0  -0.088043  -0.113737  0  3.974175  0
C  C107  1  0.57364779  0.83082046  0.45426379  1  0  -0.095931  0  3.738721  0  0  -0.115256  0  3.988966  0  0  -0.117393  0  4.010721  0  0  -0.088007  -0.113682  0  3.97414  0
C  C108  1  0.55712335  0.07885048  0.74401601  1  0  0.596637  0  3.809909  0  0  0.543425  0  4.112379  0  0  0.577307  0  4.103283  0  0  0.242142  0.520295  0  4.118344  0
C  C109  1  0.44287418  0.92115002  0.25598892  1  0  0.596505  0  3.809823  0  0  0.543305  0  4.112201  0  0  0.577187  0  4.103106  0  0  0.242026  0.520183  0  4.118159  0
C  C110  1  0.64590181  0.07781962  0.81790517  1  0  -0.118051  0  3.77355  0  0  -0.095446  0  4.015554  0  0  -0.109222  0  4.039278  0  0  -0.009217  -0.086817  0  3.999922  0
C  C111  1  0.35409143  0.92218441  0.18210459  1  0  -0.117812  0  3.773442  0  0  -0.095195  0  4.015348  0  0  -0.108976  0  4.039078  0  0  -0.008998  -0.086574  0  3.99972  0
C  C112  1  0.72517593  0.15698177  0.87800425  1  0  0.136603  0  3.655782  0  0  0.087801  0  3.911688  0  0  0.098341  0  3.927449  0  0  0.059843  0.081087  0  3.901031  0
C  C113  1  0.27481850  0.84302294  0.12200404  1  0  0.136419  0  3.656152  0  0  0.087577  0  3.912117  0  0  0.098121  0  3.927877  0  0  0.059696  0.080871  0  3.901453  0
C  C114  1  0.81327637  0.07383984  0.95185575  1  0  0.144534  0  3.663579  0  0  0.113137  0  3.902207  0  0  0.121476  0  3.92041  0  0  0.055709  0.107901  0  3.88981  0
C  C115  1  0.18672908  0.92616204  0.04814924  1  0  0.14465  0  3.663446  0  0  0.113265  0  3.902134  0  0  0.121606  0  3.920335  0  0  0.055793  0.10802  0  3.889744  0
C  C116  1  0.73832749  0.99203053  0.89434561  1  0  -0.110158  0  3.708135  0  0  -0.117383  0  3.950763  0  0  -0.126906  0  3.972805  0  0  -0.076623  -0.111471  0  3.936051  0
C  C117  1  0.26167805  0.00797275  0.10566051  1  0  -0.11031  0  3.708077  0  0  -0.11761  0  3.950721  0  0  -0.127132  0  3.972757  0  0  -0.076724  -0.111697  0  3.93601  0
C  C118  1  0.65404960  0.99379830  0.82588603  1  0  0.013643  0  3.657021  0  0  -0.015404  0  3.897725  0  0  -0.008746  0  3.914869  0  0  -0.046219  -0.019361  0  3.886012  0
C  C119  1  0.34594696  0.00620501  0.17412233  1  0  0.013603  0  3.656858  0  0  -0.015359  0  3.897555  0  0  -0.008701  0  3.914694  0  0  -0.046188  -0.019313  0  3.885841  0
Br  Br120  1  0.07038464  0.21756056  0.11591376  1  0  -0.555566  0  0.973191  0  0  -0.504455  0  1.245227  0  0  -0.519928  0  1.21827  0  0  -0.303278  -0.493275  0  1.263768  0
Br  Br121  1  0.92961827  0.78242038  0.88408426  1  0  -0.55558  0  0.973244  0  0  -0.504462  0  1.245272  0  0  -0.519939  0  1.218317  0  0  -0.303304  -0.493284  0  1.263818  0
Br  Br122  1  0.05867916  0.32189941  0.92473128  1  0  -0.558272  0  0.944423  0  0  -0.506892  0  1.212472  0  0  -0.522233  0  1.185891  0  0  -0.312589  -0.495807  0  1.230732  0
Br  Br123  1  0.94132188  0.67810316  0.07527275  1  0  -0.558278  0  0.944452  0  0  -0.506893  0  1.212506  0  0  -0.52223  0  1.185922  0  0  -0.31259  -0.495808  0  1.230769  0
Br  Br124  1  0.08588617  0.85520388  0.31590860  1  0  -0.06659  0  1.302715  0  0  -0.054373  0  1.551966  0  0  -0.060924  0  1.547522  0  0  0.048608  -0.04949  0  1.555107  0
Br  Br125  1  0.91412229  0.14479091  0.68408488  1  0  -0.066508  0  1.30277  0  0  -0.054292  0  1.551992  0  0  -0.060842  0  1.547548  0  0  0.048659  -0.04941  0  1.555133  0
Br  Br126  1  0.01152036  0.58991248  0.65416933  1  0  -0.068647  0  1.24575  0  0  -0.058411  0  1.47582  0  0  -0.064836  0  1.471653  0  0  0.028505  -0.053652  0  1.478742  0
Br  Br127  1  0.98848729  0.41008722  0.34582780  1  0  -0.068605  0  1.24575  0  0  -0.058367  0  1.475811  0  0  -0.06479  0  1.471647  0  0  0.02854  -0.053606  0  1.47873  0
N  N128  1  0.80991152  0.37409987  0.09760728  1  0  -0.304819  0  3.30587  0  0  -0.213038  0  3.570686  0  0  -0.234266  0  3.587675  0  0  -0.325704  -0.198967  0  3.559001  0
N  N129  1  0.19007958  0.62590334  0.90239218  1  0  -0.304711  0  3.305646  0  0  -0.213069  0  3.570594  0  0  -0.234299  0  3.587581  0  0  -0.325686  -0.198996  0  3.558906  0
N  N130  1  0.80751021  0.15455479  0.94343399  1  0  -0.303226  0  3.302366  0  0  -0.212728  0  3.56714  0  0  -0.23366  0  3.584267  0  0  -0.324957  -0.198844  0  3.555343  0
N  N131  1  0.19249194  0.84544779  0.05657123  1  0  -0.303216  0  3.302547  0  0  -0.212715  0  3.567347  0  0  -0.233646  0  3.584472  0  0  -0.324991  -0.19883  0  3.55555  0
O  O132  1  0.50138498  0.49136227  0.34447306  1  0  -0.498331  0  1.951358  0  0  -0.458904  0  2.163556  0  0  -0.478534  0  2.15594  0  0  -0.257629  -0.445505  0  2.16856  0
O  O133  1  0.49860969  0.50864372  0.65552576  1  0  -0.498326  0  1.951252  0  0  -0.458889  0  2.163479  0  0  -0.478519  0  2.155868  0  0  -0.257616  -0.44549  0  2.168487  0
O  O134  1  0.54033528  0.33502417  0.27061505  1  0  -0.333594  0  2.320741  0  0  -0.265572  0  2.545913  0  0  -0.286075  0  2.542205  0  0  -0.139762  -0.251157  0  2.547973  0
O  O135  1  0.45964809  0.66497898  0.72937902  1  0  -0.33355  0  2.320864  0  0  -0.265662  0  2.546096  0  0  -0.286181  0  2.542395  0  0  -0.139715  -0.251237  0  2.548156  0
O  O136  1  0.53627722  0.16817427  0.75509744  1  0  -0.338393  0  2.330143  0  0  -0.270593  0  2.55732  0  0  -0.29122  0  2.554137  0  0  -0.142845  -0.256073  0  2.559052  0
O  O137  1  0.46371931  0.83182833  0.24490947  1  0  -0.338246  0  2.330109  0  0  -0.270374  0  2.557162  0  0  -0.290988  0  2.553968  0  0  -0.142738  -0.255859  0  2.558891  0
O  O138  1  0.50816674  0.00897897  0.68219389  1  0  -0.495368  0  1.929526  0  0  -0.456131  0  2.138614  0  0  -0.475155  0  2.131509  0  0  -0.262158  -0.443162  0  2.143292  0
O  O139  1  0.49182526  0.99102369  0.31781709  1  0  -0.495383  0  1.929349  0  0  -0.456184  0  2.138426  0  0  -0.475213  0  2.131326  0  0  -0.262186  -0.443216  0  2.143103  0
