# generated using pymatgen
data_Cd2H7C9N12ClO2
_symmetry_space_group_name_H-M   'P 1'
_cell_length_a   9.04849179
_cell_length_b   10.58882818
_cell_length_c   15.54280000
_cell_angle_alpha   90.00000000
_cell_angle_beta   90.00000000
_cell_angle_gamma   106.21000739
_symmetry_Int_Tables_number   1
_chemical_formula_structural   Cd2H7C9N12ClO2
_chemical_formula_sum   'Cd8 H28 C36 N48 Cl4 O8'
_cell_volume   1429.99785031
_cell_formula_units_Z   4
loop_
 _symmetry_equiv_pos_site_id
 _symmetry_equiv_pos_as_xyz
  1  'x, y, z'
loop_
 _atom_site_type_symbol
 _atom_site_label
 _atom_site_symmetry_multiplicity
 _atom_site_fract_x
 _atom_site_fract_y
 _atom_site_fract_z
 _atom_site_occupancy
 _atom_site_hle17_bader_spin_density
 _atom_site_hle17_ddec_charge
 _atom_site_hle17_ddec_spin_density
 _atom_site_hle17_ddec_sum_bond_order
 _atom_site_hle17_magmom
 _atom_site_hse06_10hf_bader_spin_density
 _atom_site_hse06_10hf_ddec_charge
 _atom_site_hse06_10hf_ddec_spin_density
 _atom_site_hse06_10hf_ddec_sum_bond_order
 _atom_site_hse06_10hf_magmom
 _atom_site_hse06_bader_spin_density
 _atom_site_hse06_ddec_charge
 _atom_site_hse06_ddec_spin_density
 _atom_site_hse06_ddec_sum_bond_order
 _atom_site_hse06_magmom
 _atom_site_pbe_bader_charge
 _atom_site_pbe_bader_spin_density
 _atom_site_pbe_cm5_charge
 _atom_site_pbe_ddec_charge
 _atom_site_pbe_ddec_spin_density
 _atom_site_pbe_ddec_sum_bond_order
 _atom_site_pbe_magmom
Cd  Cd0  1  0.27196125  0.70143903  0.39948980  1  0  1.043446  0  1.723225  0  0  0.833682  0  2.186187  0  0  0.885438  0  2.141462  0  1.25869  0  0.758693  0.79624  0  2.217117  0
Cd  Cd1  1  0.22803868  0.29856109  0.89948980  1  0  1.043442  0  1.723222  0  0  0.833676  0  2.186186  0  0  0.88544  0  2.141454  0  1.258688  0  0.758696  0.796239  0  2.217113  0
Cd  Cd2  1  0.72803913  0.29856109  0.60051020  1  0  1.043446  0  1.723224  0  0  0.833686  0  2.186183  0  0  0.885441  0  2.14146  0  1.258691  0  0.758689  0.796243  0  2.217115  0
Cd  Cd3  1  0.77196170  0.70143903  0.10051020  1  0  1.043449  0  1.723221  0  0  0.833688  0  2.186175  0  0  0.885449  0  2.141444  0  1.25869  0  0.758694  0.796249  0  2.217102  0
Cd  Cd4  1  0.61207622  0.94789580  0.26548498  1  0  1.037488  0  1.827379  0  0  0.848934  0  2.296785  0  0  0.897618  0  2.251888  0  1.237814  0  0.722846  0.814298  0  2.327975  0
Cd  Cd5  1  0.88792351  0.05210433  0.76548498  1  0  1.03748  0  1.827379  0  0  0.84893  0  2.296776  0  0  0.897609  0  2.251884  0  1.237814  0  0.72284  0.814291  0  2.327969  0
Cd  Cd6  1  0.38792416  0.05210433  0.73451502  1  0  1.037502  0  1.827352  0  0  0.848952  0  2.296743  0  0  0.897633  0  2.25185  0  1.23777  0  0.722849  0.814314  0  2.327936  0
Cd  Cd7  1  0.11207687  0.94789580  0.23451502  1  0  1.037489  0  1.827352  0  0  0.848936  0  2.296753  0  0  0.897616  0  2.251862  0  1.237816  0  0.722842  0.814299  0  2.327947  0
H  H8  1  0.13251910  0.42845164  0.32025375  1  0  0.107588  0  0.985456  0  0  0.122476  0  1.045106  0  0  0.124936  0  1.043593  0  0.100648  0  0.108742  0.120833  0  1.045746  0
H  H9  1  0.36748051  0.57154751  0.82025375  1  0  0.107582  0  0.985463  0  0  0.122468  0  1.045118  0  0  0.124927  0  1.043606  0  0.100636  0  0.108739  0.120822  0  1.045761  0
H  H10  1  0.86748064  0.57154652  0.67974561  1  0  0.10756  0  0.985466  0  0  0.122449  0  1.045124  0  0  0.124908  0  1.043613  0  0.10063  0  0.108736  0.120803  0  1.045767  0
H  H11  1  0.63251988  0.42845262  0.17974625  1  0  0.107575  0  0.985451  0  0  0.122461  0  1.045107  0  0  0.124922  0  1.043594  0  0.100636  0  0.108739  0.120815  0  1.045751  0
H  H12  1  0.12613473  0.46658844  0.04500026  1  0  0.108885  0  0.967233  0  0  0.122577  0  1.028271  0  0  0.12521  0  1.026723  0  0.132879  0  0.109  0.120664  0  1.02937  0
H  H13  1  0.37386520  0.53341169  0.54500026  1  0  0.10887  0  0.967253  0  0  0.12256  0  1.028294  0  0  0.125193  0  1.026747  0  0.132866  0  0.108999  0.120647  0  1.029393  0
H  H14  1  0.87386423  0.53341070  0.95499974  1  0  0.108864  0  0.967259  0  0  0.122551  0  1.028301  0  0  0.125185  0  1.026752  0  0.132879  0  0.108996  0.120638  0  1.029399  0
H  H15  1  0.62613629  0.46658844  0.45499974  1  0  0.108863  0  0.967248  0  0  0.122548  0  1.028288  0  0  0.125181  0  1.026741  0  0.132877  0  0.108996  0.120634  0  1.029387  0
H  H16  1  0.75860711  0.18499550  0.17344687  1  0  0.102353  0  0.99356  0  0  0.116007  0  1.054538  0  0  0.118512  0  1.052705  0  0.099276  0  0.10601  0.114214  0  1.055811  0
H  H17  1  0.74139119  0.81500364  0.67344687  1  0  0.102366  0  0.99352  0  0  0.116013  0  1.054507  0  0  0.118517  0  1.052674  0  0.099306  0  0.106008  0.114219  0  1.055781  0
H  H18  1  0.24139074  0.81500364  0.82655249  1  0  0.102377  0  0.993522  0  0  0.116017  0  1.054525  0  0  0.11852  0  1.052694  0  0.099303  0  0.106015  0.114223  0  1.055799  0
H  H19  1  0.25860919  0.18499649  0.32655313  1  0  0.102378  0  0.993516  0  0  0.116025  0  1.054503  0  0  0.11853  0  1.05267  0  0.099311  0  0.106014  0.114232  0  1.055777  0
H  H20  1  0.14829291  0.47747764  0.51831266  1  0  0.385243  0  0.935782  0  0  0.342917  0  1.027911  0  0  0.354264  0  1.01167  0  0.633084  0  0.280535  0.334922  0  1.039314  0
H  H21  1  0.35170813  0.52252248  0.01831266  1  0  0.385264  0  0.935749  0  0  0.342921  0  1.027908  0  0  0.354267  0  1.011668  0  0.633084  0  0.280533  0.334926  0  1.039308  0
H  H22  1  0.85170748  0.52252248  0.48168734  1  0  0.385247  0  0.93578  0  0  0.342923  0  1.027903  0  0  0.354271  0  1.011662  0  0.633084  0  0.280535  0.334928  0  1.039306  0
H  H23  1  0.64829336  0.47747764  0.98168734  1  0  0.385244  0  0.935782  0  0  0.342919  0  1.027909  0  0  0.354266  0  1.011669  0  0.633084  0  0.280535  0.334924  0  1.039312  0
H  H24  1  0.60049418  0.08175558  0.09516818  1  0  0.396251  0  0.910288  0  0  0.356232  0  0.994355  0  0  0.367725  0  0.977806  0  0.619335  0  0.278985  0.348068  0  1.006098  0
H  H25  1  0.89950555  0.91824455  0.59516818  1  0  0.396262  0  0.910278  0  0  0.356243  0  0.994342  0  0  0.367737  0  0.977791  0  0.619336  0  0.278982  0.34808  0  1.006084  0
H  H26  1  0.39950621  0.91824455  0.90483246  1  0  0.396262  0  0.910277  0  0  0.356242  0  0.994344  0  0  0.367736  0  0.977792  0  0.619335  0  0.278984  0.348079  0  1.006085  0
H  H27  1  0.10049483  0.08175558  0.40483182  1  0  0.396252  0  0.910274  0  0  0.356234  0  0.99435  0  0  0.367728  0  0.977799  0  0.619334  0  0.278994  0.34807  0  1.006093  0
H  H28  1  0.44081431  0.97285481  0.11349950  1  0  0.376031  0  0.951683  0  0  0.33086  0  1.038335  0  0  0.342035  0  1.022571  0  0.631775  0  0.277973  0.322973  0  1.049403  0
H  H29  1  0.05918562  0.02714532  0.61349950  1  0  0.376032  0  0.95168  0  0  0.330862  0  1.038331  0  0  0.342038  0  1.022567  0  0.631775  0  0.277969  0.322976  0  1.049398  0
H  H30  1  0.55918607  0.02714532  0.88650050  1  0  0.376024  0  0.951692  0  0  0.330853  0  1.038345  0  0  0.342028  0  1.022581  0  0.631775  0  0.277961  0.322967  0  1.049412  0
H  H31  1  0.94081476  0.97285481  0.38650050  1  0  0.37602  0  0.951699  0  0  0.330851  0  1.038347  0  0  0.342026  0  1.022583  0  0.631776  0  0.27797  0.322964  0  1.049415  0
H  H32  1  0.05932424  0.42993572  0.43447770  1  0  0.386936  0  0.930832  0  0  0.344974  0  1.023885  0  0  0.356466  0  1.007394  0  0.642316  0  0.279808  0.336844  0  1.035496  0
H  H33  1  0.44067647  0.57006342  0.93447706  1  0  0.386931  0  0.930837  0  0  0.344973  0  1.023886  0  0  0.356465  0  1.007395  0  0.642313  0  0.279805  0.336842  0  1.035497  0
H  H34  1  0.94067693  0.57006342  0.56552230  1  0  0.386948  0  0.930811  0  0  0.34499  0  1.023862  0  0  0.356482  0  1.007369  0  0.642314  0  0.279817  0.336859  0  1.035472  0
H  H35  1  0.55932359  0.42993572  0.06552230  1  0  0.386939  0  0.930824  0  0  0.344981  0  1.023874  0  0  0.356472  0  1.007384  0  0.642313  0  0.27981  0.336851  0  1.035484  0
C  C36  1  0.85459657  0.24611254  0.33483864  1  0  0.288786  0  3.791069  0  0  0.26234  0  4.054427  0  0  0.273746  0  4.070737  0  0.962532  0  0.22099  0.254556  0  4.04308  0
C  C37  1  0.64540316  0.75388759  0.83483864  1  0  0.288883  0  3.791126  0  0  0.262381  0  4.054556  0  0  0.273788  0  4.070868  0  0.962517  0  0.220982  0.254597  0  4.043209  0
C  C38  1  0.14540271  0.75388759  0.66516136  1  0  0.288875  0  3.791123  0  0  0.26237  0  4.054554  0  0  0.273776  0  4.070867  0  0.962514  0  0.220982  0.254585  0  4.043208  0
C  C39  1  0.35459800  0.24611156  0.16516072  1  0  0.288752  0  3.791051  0  0  0.262294  0  4.054406  0  0  0.273698  0  4.070718  0  0.962532  0  0.220967  0.254509  0  4.043061  0
C  C40  1  0.93301411  0.30224328  0.25605039  1  0  0.02056  0  3.802379  0  0  0.041084  0  4.042417  0  0  0.038896  0  4.063859  0  -0.053713  0  -0.001147  0.042752  0  4.027125  0
C  C41  1  0.56698594  0.69775783  0.75605103  1  0  0.020438  0  3.802487  0  0  0.040964  0  4.042563  0  0  0.038776  0  4.064007  0  -0.053359  0  -0.001176  0.042634  0  4.02727  0
C  C42  1  0.06698549  0.69775783  0.74394897  1  0  0.020429  0  3.80247  0  0  0.040963  0  4.042547  0  0  0.038775  0  4.06399  0  -0.053358  0  -0.001159  0.042632  0  4.027254  0
C  C43  1  0.43301555  0.30224230  0.24394961  1  0  0.020533  0  3.802372  0  0  0.041099  0  4.042356  0  0  0.038912  0  4.063799  0  -0.053352  0  -0.001138  0.042767  0  4.027064  0
C  C44  1  0.07299964  0.40103881  0.25954526  1  0  -0.101222  0  3.654849  0  0  -0.141878  0  3.90249  0  0  -0.142205  0  3.921688  0  0.037293  0  -0.080399  -0.141041  0  3.88866  0
C  C45  1  0.42699950  0.59896230  0.75954590  1  0  -0.101143  0  3.654758  0  0  -0.141803  0  3.90239  0  0  -0.142133  0  3.921589  0  0.037282  0  -0.080362  -0.140966  0  3.888561  0
C  C46  1  0.92699885  0.59896230  0.74045410  1  0  -0.10112  0  3.654769  0  0  -0.141789  0  3.902421  0  0  -0.142116  0  3.921621  0  0.037283  0  -0.080384  -0.140951  0  3.888594  0
C  C47  1  0.57300198  0.40103783  0.24045410  1  0  -0.101158  0  3.654788  0  0  -0.141841  0  3.902413  0  0  -0.142171  0  3.92161  0  0.037265  0  -0.080386  -0.141003  0  3.888585  0
C  C48  1  0.14027725  0.46226108  0.18412641  1  0  0.013744  0  3.806193  0  0  0.034315  0  4.051542  0  0  0.032218  0  4.073048  0  -0.00651  0  -0.005786  0.035112  0  4.037476  0
C  C49  1  0.35972236  0.53773806  0.68412641  1  0  0.013675  0  3.80607  0  0  0.034289  0  4.051395  0  0  0.032196  0  4.072896  0  -0.006497  0  -0.005814  0.035086  0  4.037329  0
C  C50  1  0.85972281  0.53773806  0.81587359  1  0  0.013683  0  3.806134  0  0  0.03428  0  4.051476  0  0  0.032184  0  4.072981  0  -0.006502  0  -0.005812  0.035077  0  4.037411  0
C  C51  1  0.64027881  0.46226108  0.31587359  1  0  0.013646  0  3.806182  0  0  0.034257  0  4.051495  0  0  0.032165  0  4.072994  0  -0.006498  0  -0.005821  0.035054  0  4.037428  0
C  C52  1  0.28547495  0.56563181  0.18796935  1  0  0.288964  0  3.764479  0  0  0.25668  0  4.040767  0  0  0.267366  0  4.057176  0  0.92909  0  0.222982  0.249372  0  4.029899  0
C  C53  1  0.21452465  0.43436733  0.68796935  1  0  0.289024  0  3.764378  0  0  0.25669  0  4.040725  0  0  0.267375  0  4.057136  0  0.929085  0  0.222981  0.249382  0  4.029857  0
C  C54  1  0.71452511  0.43436733  0.81203065  1  0  0.28903  0  3.764398  0  0  0.256702  0  4.040749  0  0  0.267388  0  4.057161  0  0.929083  0  0.222978  0.249394  0  4.029881  0
C  C55  1  0.78547573  0.56563280  0.31203065  1  0  0.289054  0  3.764412  0  0  0.256725  0  4.040751  0  0  0.267409  0  4.057162  0  0.929088  0  0.223004  0.249417  0  4.029883  0
C  C56  1  0.07437766  0.41851839  0.10386481  1  0  -0.104461  0  3.650813  0  0  -0.145162  0  3.900649  0  0  -0.145481  0  3.919684  0  -0.032033  0  -0.080782  -0.144927  0  3.888388  0
C  C57  1  0.42562195  0.58148076  0.60386481  1  0  -0.104407  0  3.650767  0  0  -0.145125  0  3.900593  0  0  -0.145446  0  3.919628  0  -0.032023  0  -0.080764  -0.144892  0  3.888333  0
C  C58  1  0.92562130  0.58148076  0.89613519  1  0  -0.104396  0  3.650809  0  0  -0.145123  0  3.900648  0  0  -0.145443  0  3.919685  0  -0.032031  0  -0.080761  -0.144888  0  3.888387  0
C  C59  1  0.57437922  0.41851839  0.39613519  1  0  -0.104401  0  3.650812  0  0  -0.145101  0  3.900631  0  0  -0.145422  0  3.919669  0  -0.032038  0  -0.080759  -0.144866  0  3.888369  0
C  C60  1  0.94132946  0.31322493  0.09978189  1  0  0.025349  0  3.796771  0  0  0.04482  0  4.037345  0  0  0.042852  0  4.058806  0  -0.02023  0  0.000709  0.045401  0  4.023214  0
C  C61  1  0.55867027  0.68677519  0.59978254  1  0  0.025298  0  3.796857  0  0  0.044794  0  4.037399  0  0  0.042822  0  4.058858  0  -0.020167  0  0.000649  0.045375  0  4.02327  0
C  C62  1  0.05867014  0.68677618  0.90021746  1  0  0.025298  0  3.796895  0  0  0.044827  0  4.037387  0  0  0.042854  0  4.058848  0  -0.020162  0  0.000663  0.045408  0  4.023258  0
C  C63  1  0.44133122  0.31322493  0.40021811  1  0  0.025341  0  3.796815  0  0  0.044814  0  4.037378  0  0  0.042838  0  4.058836  0  -0.020177  0  0.00066  0.045395  0  4.023248  0
C  C64  1  0.87794268  0.25150403  0.01880871  1  0  0.285304  0  3.76331  0  0  0.259492  0  4.032461  0  0  0.270264  0  4.048589  0  0.9629  0  0.222198  0.252395  0  4.021503  0
C  C65  1  0.62205816  0.74849609  0.51880807  1  0  0.28529  0  3.76345  0  0  0.259465  0  4.032603  0  0  0.270251  0  4.048717  0  0.962922  0  0.2222  0.252369  0  4.021644  0
C  C66  1  0.12205881  0.74849609  0.98119193  1  0  0.285292  0  3.763425  0  0  0.259454  0  4.032582  0  0  0.270241  0  4.048692  0  0.96292  0  0.222193  0.252358  0  4.021622  0
C  C67  1  0.37794222  0.25150403  0.48119129  1  0  0.285276  0  3.763393  0  0  0.259451  0  4.032554  0  0  0.270249  0  4.048649  0  0.9629  0  0.222198  0.252355  0  4.021594  0
C  C68  1  0.86746427  0.26047445  0.17624045  1  0  -0.089711  0  3.658943  0  0  -0.126664  0  3.902937  0  0  -0.126957  0  3.921877  0  0.080879  0  -0.075914  -0.12603  0  3.889324  0
C  C69  1  0.63253325  0.73952568  0.67624109  1  0  -0.089691  0  3.659042  0  0  -0.126644  0  3.903025  0  0  -0.126937  0  3.921965  0  0.080473  0  -0.075891  -0.12601  0  3.889412  0
C  C70  1  0.13253280  0.73952568  0.82375891  1  0  -0.089701  0  3.659097  0  0  -0.126666  0  3.903068  0  0  -0.126959  0  3.922011  0  0.080479  0  -0.075895  -0.126032  0  3.889456  0
C  C71  1  0.36746713  0.26047445  0.32375891  1  0  -0.089732  0  3.658985  0  0  -0.126698  0  3.902965  0  0  -0.126992  0  3.921907  0  0.080492  0  -0.075895  -0.126064  0  3.889351  0
N  N72  1  0.88963496  0.30198757  0.41217220  1  0  -0.291726  0  3.041736  0  0  -0.25275  0  3.301435  0  0  -0.26442  0  3.316978  0  -0.694773  0  -0.20639  -0.244366  0  3.29031  0
N  N73  1  0.61036698  0.69801255  0.91217220  1  0  -0.29175  0  3.041809  0  0  -0.252761  0  3.301526  0  0  -0.264425  0  3.317059  0  -0.694754  0  -0.206383  -0.244376  0  3.290401  0
N  N74  1  0.11036652  0.69801255  0.58782780  1  0  -0.291764  0  3.04182  0  0  -0.252775  0  3.30154  0  0  -0.264441  0  3.317075  0  -0.69476  0  -0.206389  -0.24439  0  3.290414  0
N  N75  1  0.38963451  0.30198757  0.08782780  1  0  -0.291725  0  3.041733  0  0  -0.252758  0  3.301443  0  0  -0.264426  0  3.316986  0  -0.694778  0  -0.206392  -0.244374  0  3.290318  0
N  N76  1  0.78473566  0.22748720  0.46605116  1  0  -0.128791  0  3.203197  0  0  -0.072398  0  3.502684  0  0  -0.083703  0  3.519586  0  -0.203775  0  -0.118968  -0.064415  0  3.490483  0
N  N77  1  0.71526518  0.77251293  0.96605116  1  0  -0.128789  0  3.2033  0  0  -0.072391  0  3.502784  0  0  -0.083697  0  3.519687  0  -0.203779  0  -0.118966  -0.064408  0  3.490582  0
N  N78  1  0.21526472  0.77251293  0.53394884  1  0  -0.128773  0  3.203296  0  0  -0.072373  0  3.502775  0  0  -0.083677  0  3.519678  0  -0.203775  0  -0.11896  -0.06439  0  3.490572  0
N  N79  1  0.28473521  0.22748720  0.03394884  1  0  -0.128783  0  3.203194  0  0  -0.072386  0  3.502682  0  0  -0.083692  0  3.519583  0  -0.20377  0  -0.118971  -0.064403  0  3.49048  0
N  N80  1  0.68927625  0.12986301  0.42465708  1  0  -0.045209  0  2.954577  0  0  -0.057216  0  3.25011  0  0  -0.052567  0  3.265363  0  -0.070484  0  -0.095775  -0.059903  0  3.239329  0
N  N81  1  0.81072459  0.87013712  0.92465708  1  0  -0.045234  0  2.95459  0  0  -0.057246  0  3.250118  0  0  -0.052598  0  3.265372  0  -0.070499  0  -0.095787  -0.059934  0  3.239338  0
N  N82  1  0.31072524  0.87013712  0.57534292  1  0  -0.04525  0  2.954583  0  0  -0.057263  0  3.250109  0  0  -0.052615  0  3.265361  0  -0.070501  0  -0.095787  -0.05995  0  3.239328  0
N  N83  1  0.18927469  0.12986301  0.07534292  1  0  -0.045248  0  2.954569  0  0  -0.057261  0  3.250104  0  0  -0.052613  0  3.265356  0  -0.070495  0  -0.095784  -0.059949  0  3.239323  0
N  N84  1  0.73104135  0.13892980  0.34167460  1  0  -0.339658  0  3.136221  0  0  -0.27236  0  3.425837  0  0  -0.292789  0  3.443232  0  -0.716272  0  -0.232678  -0.258443  0  3.413501  0
N  N85  1  0.76895838  0.86107032  0.84167460  1  0  -0.339646  0  3.13625  0  0  -0.272317  0  3.425862  0  0  -0.292746  0  3.44326  0  -0.71627  0  -0.232653  -0.258399  0  3.413526  0
N  N86  1  0.26895871  0.86106934  0.65832540  1  0  -0.339625  0  3.136246  0  0  -0.272288  0  3.425846  0  0  -0.292717  0  3.443244  0  -0.716262  0  -0.232651  -0.258371  0  3.41351  0
N  N87  1  0.23104232  0.13893079  0.15832540  1  0  -0.339598  0  3.136185  0  0  -0.272295  0  3.425799  0  0  -0.292723  0  3.443196  0  -0.716266  0  -0.232661  -0.258377  0  3.413463  0
N  N88  1  0.34133858  0.64919898  0.25376573  1  0  -0.319299  0  3.073613  0  0  -0.265378  0  3.358757  0  0  -0.282368  0  3.376658  0  -0.698058  0  -0.219474  -0.253393  0  3.346483  0
N  N89  1  0.15866134  0.35080115  0.75376573  1  0  -0.319317  0  3.073608  0  0  -0.265382  0  3.358769  0  0  -0.282373  0  3.376669  0  -0.698073  0  -0.219471  -0.253398  0  3.346494  0
N  N90  1  0.65866180  0.35080115  0.74623427  1  0  -0.319404  0  3.073551  0  0  -0.265477  0  3.35873  0  0  -0.282467  0  3.376631  0  -0.698069  0  -0.219532  -0.253492  0  3.346456  0
N  N91  1  0.84133904  0.64919898  0.24623427  1  0  -0.319324  0  3.073618  0  0  -0.265394  0  3.358779  0  0  -0.282384  0  3.376678  0  -0.69807  0  -0.219478  -0.253409  0  3.346504  0
N  N92  1  0.48000315  0.72196546  0.22696039  1  0  -0.119485  0  3.187511  0  0  -0.083291  0  3.478367  0  0  -0.089345  0  3.497638  0  -0.159688  0  -0.113695  -0.078651  0  3.464794  0
N  N93  1  0.01999710  0.27803565  0.72696039  1  0  -0.119486  0  3.187568  0  0  -0.083298  0  3.478424  0  0  -0.089351  0  3.497695  0  -0.159677  0  -0.113695  -0.078656  0  3.46485  0
N  N94  1  0.51999645  0.27803565  0.77303961  1  0  -0.119444  0  3.18746  0  0  -0.083244  0  3.478305  0  0  -0.089298  0  3.497577  0  -0.159681  0  -0.113644  -0.078602  0  3.464731  0
N  N95  1  0.98000328  0.72196448  0.27303961  1  0  -0.119498  0  3.187615  0  0  -0.083309  0  3.478473  0  0  -0.089361  0  3.497744  0  -0.159686  0  -0.113702  -0.078668  0  3.4649  0
N  N96  1  0.50760060  0.68364474  0.14938492  1  0  -0.101772  0  3.145159  0  0  -0.064951  0  3.43851  0  0  -0.070838  0  3.454325  0  -0.175416  0  -0.105023  -0.06044  0  3.427555  0
N  N97  1  0.99240056  0.31635637  0.64938492  1  0  -0.10176  0  3.145189  0  0  -0.064931  0  3.438528  0  0  -0.070818  0  3.454346  0  -0.175402  0  -0.105017  -0.06042  0  3.427574  0
N  N98  1  0.49240011  0.31635637  0.85061572  1  0  -0.101712  0  3.145135  0  0  -0.064891  0  3.438478  0  0  -0.070778  0  3.454294  0  -0.175394  0  -0.105001  -0.060381  0  3.427522  0
N  N99  1  0.00760014  0.68364474  0.35061508  1  0  -0.101747  0  3.14524  0  0  -0.064917  0  3.438581  0  0  -0.070803  0  3.454398  0  -0.175415  0  -0.104998  -0.060406  0  3.427625  0
N  N100  1  0.38783474  0.58675915  0.12319209  1  0  -0.270641  0  3.044993  0  0  -0.230882  0  3.312494  0  0  -0.241969  0  3.327075  0  -0.665217  0  -0.196397  -0.22373  0  3.303045  0
N  N101  1  0.11216551  0.41324196  0.62319209  1  0  -0.270658  0  3.044949  0  0  -0.230905  0  3.312491  0  0  -0.241987  0  3.327055  0  -0.665244  0  -0.196395  -0.22375  0  3.303034  0
N  N102  1  0.61216597  0.41324196  0.87680791  1  0  -0.270675  0  3.044952  0  0  -0.23092  0  3.312493  0  0  -0.242003  0  3.32706  0  -0.665242  0  -0.1964  -0.223766  0  3.30304  0
N  N103  1  0.88783487  0.58675817  0.37680791  1  0  -0.270669  0  3.044989  0  0  -0.23092  0  3.312532  0  0  -0.242003  0  3.327101  0  -0.665235  0  -0.196408  -0.223766  0  3.303078  0
N  N104  1  0.95415468  0.25138011  0.94377461  1  0  -0.324171  0  3.049477  0  0  -0.27132  0  3.331296  0  0  -0.28827  0  3.349108  0  -0.705723  0  -0.219993  -0.259247  0  3.31889  0
N  N105  1  0.54584616  0.74862001  0.44377461  1  0  -0.324145  0  3.04954  0  0  -0.271289  0  3.331357  0  0  -0.288241  0  3.349166  0  -0.705724  0  -0.21999  -0.259215  0  3.31895  0
N  N106  1  0.04584570  0.74862001  0.05622539  1  0  -0.324149  0  3.049518  0  0  -0.271292  0  3.33134  0  0  -0.288245  0  3.349147  0  -0.705716  0  -0.219984  -0.259218  0  3.318932  0
N  N107  1  0.45415423  0.25138011  0.55622539  1  0  -0.324166  0  3.049526  0  0  -0.271306  0  3.331339  0  0  -0.288263  0  3.349146  0  -0.705722  0  -0.219989  -0.259232  0  3.318933  0
N  N108  1  0.84916798  0.17425087  0.89083048  1  0  -0.126274  0  3.179506  0  0  -0.090558  0  3.477928  0  0  -0.098353  0  3.495966  0  -0.185594  0  -0.115831  -0.085179  0  3.465711  0
N  N109  1  0.65083175  0.82574925  0.39083048  1  0  -0.126315  0  3.179518  0  0  -0.090604  0  3.477945  0  0  -0.098402  0  3.495985  0  -0.185593  0  -0.115834  -0.085225  0  3.465728  0
N  N110  1  0.15083241  0.82574925  0.10916952  1  0  -0.126294  0  3.179519  0  0  -0.090587  0  3.477947  0  0  -0.098383  0  3.495987  0  -0.185583  0  -0.115828  -0.085208  0  3.46573  0
N  N111  1  0.34916863  0.17425087  0.60916888  1  0  -0.126306  0  3.179548  0  0  -0.090592  0  3.477977  0  0  -0.098388  0  3.496017  0  -0.185576  0  -0.115845  -0.085213  0  3.465761  0
N  N112  1  0.71742454  0.13072553  0.93152585  1  0  -0.056839  0  3.105295  0  0  -0.029623  0  3.383513  0  0  -0.030109  0  3.395802  0  -0.135298  0  -0.079251  -0.028986  0  3.375267  0
N  N113  1  0.78257630  0.86927460  0.43152585  1  0  -0.056738  0  3.105206  0  0  -0.029508  0  3.383401  0  0  -0.029994  0  3.395692  0  -0.135306  0  -0.079223  -0.02887  0  3.375154  0
N  N114  1  0.28257695  0.86927460  0.06847415  1  0  -0.056788  0  3.105238  0  0  -0.029555  0  3.383433  0  0  -0.030043  0  3.395724  0  -0.135317  0  -0.079229  -0.028919  0  3.375187  0
N  N115  1  0.21742409  0.13072553  0.56847351  1  0  -0.056802  0  3.105221  0  0  -0.029581  0  3.383434  0  0  -0.03007  0  3.395725  0  -0.135299  0  -0.079229  -0.028944  0  3.375188  0
N  N116  1  0.73103399  0.17629948  0.01166778  1  0  -0.274219  0  2.971214  0  0  -0.240986  0  3.23964  0  0  -0.252022  0  3.250363  0  -0.67236  0  -0.196724  -0.233416  0  3.232263  0
N  N117  1  0.76896684  0.82370064  0.51166778  1  0  -0.274284  0  2.971321  0  0  -0.24106  0  3.239764  0  0  -0.252098  0  3.250481  0  -0.672373  0  -0.196734  -0.233489  0  3.232385  0
N  N118  1  0.26896639  0.82370064  0.98833222  1  0  -0.274248  0  2.971284  0  0  -0.24102  0  3.239725  0  0  -0.252058  0  3.250442  0  -0.67238  0  -0.19674  -0.233449  0  3.232346  0
N  N119  1  0.23103464  0.17629948  0.48833222  1  0  -0.274193  0  2.971253  0  0  -0.240963  0  3.239689  0  0  -0.252004  0  3.250403  0  -0.672371  0  -0.196712  -0.233392  0  3.23231  0
Cl  Cl120  1  0.34407006  0.94339928  0.33508248  1  0  -0.506335  0  1.161845  0  0  -0.438669  0  1.503298  0  0  -0.458798  0  1.476819  0  -0.586062  0  -0.242931  -0.424744  0  1.521787  0
Cl  Cl121  1  0.15592987  0.05660085  0.83508248  1  0  -0.50634  0  1.161849  0  0  -0.438668  0  1.50329  0  0  -0.458799  0  1.47681  0  -0.586058  0  -0.242933  -0.424744  0  1.521778  0
Cl  Cl122  1  0.65593032  0.05660085  0.66491752  1  0  -0.506347  0  1.161862  0  0  -0.438679  0  1.503307  0  0  -0.458809  0  1.476827  0  -0.586057  0  -0.242936  -0.424755  0  1.521796  0
Cl  Cl123  1  0.84407052  0.94339928  0.16491752  1  0  -0.506347  0  1.16185  0  0  -0.438666  0  1.50327  0  0  -0.458797  0  1.476789  0  -0.586058  0  -0.24294  -0.424742  0  1.521758  0
O  O124  1  0.53137510  0.03601640  0.14242221  1  0  -0.83377  0  1.987013  0  0  -0.763936  0  2.214483  0  0  -0.786857  0  2.181778  0  -1.258552  0  -0.601043  -0.747564  0  2.236896  0
O  O125  1  0.96862574  0.96398373  0.64242221  1  0  -0.83377  0  1.986997  0  0  -0.763933  0  2.214456  0  0  -0.786854  0  2.181748  0  -1.258549  0  -0.601031  -0.747562  0  2.236868  0
O  O126  1  0.46862639  0.96398373  0.85757779  1  0  -0.833768  0  1.987004  0  0  -0.763928  0  2.214465  0  0  -0.786849  0  2.181756  0  -1.258503  0  -0.601028  -0.74756  0  2.23688  0
O  O127  1  0.03137464  0.03601640  0.35757779  1  0  -0.83377  0  1.987005  0  0  -0.763933  0  2.214482  0  0  -0.786854  0  2.181772  0  -1.258548  0  -0.601048  -0.747566  0  2.236902  0
O  O128  1  0.16026987  0.49018532  0.45444579  1  0  -0.833345  0  1.970888  0  0  -0.769364  0  2.212252  0  0  -0.790496  0  2.176587  0  -1.288755  0  -0.60127  -0.754166  0  2.236765  0
O  O129  1  0.33973116  0.50981481  0.95444579  1  0  -0.833363  0  1.970866  0  0  -0.769365  0  2.212251  0  0  -0.790496  0  2.176587  0  -1.28876  0  -0.601263  -0.754168  0  2.236767  0
O  O130  1  0.83973051  0.50981481  0.54555421  1  0  -0.833364  0  1.970891  0  0  -0.769382  0  2.212242  0  0  -0.790514  0  2.176577  0  -1.288764  0  -0.601278  -0.754181  0  2.236753  0
O  O131  1  0.66026922  0.49018532  0.04555421  1  0  -0.833352  0  1.970899  0  0  -0.769372  0  2.212252  0  0  -0.790503  0  2.176588  0  -1.288748  0  -0.60127  -0.754171  0  2.236763  0
