# generated using pymatgen
data_Zn3H12C26BrO12
_symmetry_space_group_name_H-M   'P 1'
_cell_length_a   18.63915583
_cell_length_b   18.55363798
_cell_length_c   18.69881910
_cell_angle_alpha   109.53769343
_cell_angle_beta   109.49388357
_cell_angle_gamma   109.20690292
_symmetry_Int_Tables_number   1
_chemical_formula_structural   Zn3H12C26BrO12
_chemical_formula_sum   'Zn6 H24 C52 Br2 O24'
_cell_volume   4988.61283999
_cell_formula_units_Z   2
loop_
 _symmetry_equiv_pos_site_id
 _symmetry_equiv_pos_as_xyz
  1  'x, y, z'
loop_
 _atom_site_type_symbol
 _atom_site_label
 _atom_site_symmetry_multiplicity
 _atom_site_fract_x
 _atom_site_fract_y
 _atom_site_fract_z
 _atom_site_occupancy
 _atom_site_pbe_bader_charge
 _atom_site_pbe_bader_spin_density
 _atom_site_pbe_cm5_charge
 _atom_site_pbe_ddec_charge
 _atom_site_pbe_ddec_spin_density
 _atom_site_pbe_ddec_sum_bond_order
 _atom_site_pbe_magmom
Zn  Zn0  1  0.50245993  0.93025394  0.93873435  1  1.311762  0  0.720915  0.957073  0  2.125306  0
Zn  Zn1  1  0.49870021  0.05866059  0.05759942  1  1.310977  0  0.72574  0.962696  0  2.138451  0
Zn  Zn2  1  0.06166245  0.06278639  0.49975033  1  1.307271  0  0.719309  0.954355  0  2.143755  0
Zn  Zn3  1  0.94179009  0.92945406  0.49636796  1  1.308746  0  0.72102  0.962283  0  2.127017  0
Zn  Zn4  1  0.93682384  0.49879715  0.93725476  1  1.306865  0  0.72219  0.958496  0  2.136168  0
Zn  Zn5  1  0.06285515  0.50396097  0.06717447  1  1.304826  0  0.722383  0.959159  0  2.121933  0
H  H6  1  0.74452737  0.94293602  0.11680101  1  0.089717  0  0.112728  0.118928  0  0.978731  0
H  H7  1  0.06708986  0.41326338  0.77780961  1  0.067843  0  0.113175  0.117335  0  0.974331  0
H  H8  1  0.08737516  0.30583751  0.67422180  1  0.098485  0  0.1127  0.119661  0  0.987384  0
H  H9  1  0.86946730  0.78335509  0.22571492  1  0.070335  0  0.109153  0.113229  0  0.986726  0
H  H10  1  0.14939732  0.90525934  0.33500508  1  0.095709  0  0.111027  0.114811  0  0.981949  0
H  H11  1  0.48219342  0.95190788  0.29289160  1  0.062265  0  0.108401  0.108017  0  0.977247  0
H  H12  1  0.60074186  0.99163330  0.43597908  1  0.089038  0  0.106266  0.11705  0  0.987415  0
H  H13  1  0.85262468  0.95427938  0.24828642  1  0.070253  0  0.109121  0.115352  0  0.984488  0
H  H14  1  0.24300922  0.89616894  0.04857269  1  0.092458  0  0.111828  0.116327  0  0.981166  0
H  H15  1  0.13488027  0.76752363  0.04263169  1  0.085265  0  0.108751  0.112573  0  0.989171  0
H  H16  1  0.29875572  0.64932446  0.04135882  1  0.082696  0  0.111654  0.116324  0  0.980351  0
H  H17  1  0.39781462  0.76947466  0.03042174  1  0.083396  0  0.10951  0.114987  0  0.985652  0
H  H18  1  0.10799096  0.82117782  0.60590602  1  0.074862  0  0.110643  0.114773  0  0.984911  0
H  H19  1  0.76746054  0.28266408  0.16927609  1  0.089301  0  0.111081  0.114999  0  0.984365  0
H  H20  1  0.76642605  0.24235167  0.89202393  1  0.100271  0  0.100298  0.106986  0  1.012959  0
H  H21  1  0.84929118  0.66016115  0.09748415  1  0.079354  0  0.111695  0.116145  0  0.981619  0
H  H22  1  0.12944610  0.77371377  0.21565610  1  0.082923  0  0.10791  0.111406  0  0.989865  0
H  H23  1  0.37399137  0.10462034  0.84956635  1  0.103407  0  0.109594  0.11487  0  0.985757  0
H  H24  1  0.25382400  0.10406258  0.73704800  1  0.099364  0  0.110186  0.116564  0  0.983865  0
H  H25  1  0.23465420  0.82135039  0.71007563  1  0.100624  0  0.110208  0.113502  0  0.98592  0
H  H26  1  0.89434553  0.39070111  0.17315635  1  0.071788  0  0.111057  0.115002  0  0.983479  0
H  H27  1  0.64783161  0.12625515  0.88988095  1  0.070797  0  0.109387  0.115364  0  0.983899  0
H  H28  1  0.92948665  0.09907384  0.70119191  1  0.114693  0  0.109083  0.131404  0  0.988816  0
H  H29  1  0.51276561  0.94230612  0.17271986  1  0.081534  0  0.098534  0.102131  0  1.055664  0
C  C30  1  0.38453364  0.90729688  0.02815463  1  1.52791  0  0.21725  0.593727  0  4.156207  0
C  C31  1  0.28596888  0.70252006  0.04104849  1  -0.02294  0  -0.080504  -0.101948  0  3.974533  0
C  C32  1  0.34164759  0.76988827  0.03618864  1  0.012698  0  -0.078123  -0.090698  0  3.969926  0
C  C33  1  0.60337896  0.95877071  0.09480442  1  1.547443  0  0.221039  0.608445  0  4.136014  0
C  C34  1  0.32577452  0.83926434  0.03832316  1  -0.005187  0  -0.012608  -0.02129  0  3.964155  0
C  C35  1  0.31664561  0.04289435  0.79445772  1  0.008736  0  -0.080148  -0.095077  0  3.976349  0
C  C36  1  0.24938442  0.04260738  0.73285851  1  -0.075469  0  -0.080385  -0.093873  0  3.973512  0
C  C37  1  0.17363297  0.96255796  0.66543658  1  0.009801  0  -0.010614  -0.020906  0  3.964237  0
C  C38  1  0.16748429  0.88284569  0.65815035  1  -0.024973  0  -0.078614  -0.09554  0  3.969327  0
C  C39  1  0.23769961  0.88300559  0.71650827  1  -0.05467  0  -0.078886  -0.095985  0  3.967804  0
C  C40  1  0.31173897  0.96310061  0.78591378  1  -0.047033  0  -0.010537  -0.016651  0  3.957476  0
C  C41  1  0.64164906  0.95818782  0.23872854  1  0.043191  0  0.005613  0.075712  0  3.924403  0
C  C42  1  0.76898837  0.27320860  0.10916595  1  -0.049159  0  -0.07816  -0.092154  0  3.968229  0
C  C43  1  0.83919977  0.33366099  0.11120626  1  0.013277  0  -0.079506  -0.097427  0  3.969805  0
C  C44  1  0.83748928  0.32278060  0.03271409  1  -0.046877  0  -0.009164  -0.015521  0  3.958888  0
C  C45  1  0.62580993  0.13094010  0.02531917  1  1.544091  0  0.224414  0.61054  0  4.129032  0
C  C46  1  0.76739607  0.24915417  0.95258667  1  -0.028732  0  -0.084293  -0.096142  0  3.97075  0
C  C47  1  0.70086571  0.18553587  0.95126204  1  0.03845  0  -0.080317  -0.090105  0  3.967289  0
C  C48  1  0.70027765  0.19842701  0.02934991  1  -0.046359  0  -0.011416  -0.023681  0  3.967081  0
C  C49  1  0.02018210  0.13114429  0.61916018  1  1.536545  0  0.220134  0.60274  0  4.130842  0
C  C50  1  0.85337509  0.96971757  0.38882216  1  1.552029  0  0.209556  0.592853  0  4.179667  0
C  C51  1  0.02020043  0.91745632  0.36758858  1  1.553948  0  0.219613  0.602498  0  4.143943  0
C  C52  1  0.65884076  0.95158537  0.16813216  1  -0.083418  0  -0.007767  -0.064166  0  3.924858  0
C  C53  1  0.10159050  0.96493899  0.60195009  1  1.557798  0  0.223071  0.607579  0  4.132212  0
C  C54  1  0.98262016  0.38402343  0.86580670  1  1.570705  0  0.219857  0.612634  0  4.159488  0
C  C55  1  0.14280021  0.62326050  0.03295456  1  1.541387  0  0.2197  0.60321  0  4.144619  0
C  C56  1  0.97829917  0.62825363  0.08489390  1  1.539678  0  0.219122  0.60034  0  4.144474  0
C  C57  1  0.38415902  0.96640484  0.85511258  1  1.563327  0  0.223866  0.608502  0  4.131604  0
C  C58  1  0.90721590  0.39000043  0.03136074  1  1.536906  0  0.223065  0.60768  0  4.136063  0
C  C59  1  0.95994779  0.16803144  0.71859638  1  0.051388  0  -0.08813  -0.142927  0  3.959057  0
C  C60  1  0.94975905  0.22838469  0.77670436  1  -0.093273  0  -0.010328  0.086552  0  3.950435  0
C  C61  1  0.98828354  0.31706522  0.79889793  1  0.019295  0  -0.008396  -0.046047  0  3.929614  0
C  C62  1  0.03735726  0.34437166  0.76095486  1  -0.038552  0  -0.077686  -0.089692  0  3.964965  0
C  C63  1  0.73279955  0.94853783  0.17126318  1  0.008306  0  -0.08074  -0.093487  0  4.006121  0
C  C64  1  0.04895825  0.28492637  0.70352563  1  0.021457  0  -0.077719  -0.087896  0  3.966124  0
C  C65  1  0.01041299  0.19653216  0.68228848  1  -0.009183  0  -0.016225  -0.022261  0  3.968893  0
C  C66  1  0.92588281  0.78249209  0.22078737  1  0.021942  0  -0.080606  -0.095466  0  3.975767  0
C  C67  1  0.91466197  0.71333762  0.15033753  1  -0.039318  0  -0.079968  -0.098071  0  3.975134  0
C  C68  1  0.98833169  0.70914040  0.15030550  1  0.003876  0  -0.011648  -0.015093  0  3.965218  0
C  C69  1  0.56146985  0.95191792  0.23207394  1  -0.022078  0  -0.094239  -0.133464  0  3.988174  0
C  C70  1  0.07287337  0.77827782  0.21652352  1  -0.054413  0  -0.080867  -0.0973  0  3.975093  0
C  C71  1  0.08402503  0.85084228  0.28348234  1  0.008734  0  -0.080167  -0.097792  0  3.974413  0
C  C72  1  0.01047427  0.85097490  0.28777514  1  -0.066635  0  -0.010045  -0.017705  0  3.966834  0
C  C73  1  0.54488672  0.95874357  0.29973370  1  -0.019653  0  -0.087906  -0.060929  0  4.03379  0
C  C74  1  0.79387032  0.95577624  0.24569487  1  0.006499  0  -0.081861  -0.094705  0  3.984827  0
C  C75  1  0.61080203  0.97932362  0.37988765  1  -0.000446  0  -0.097767  -0.139324  0  4.026935  0
C  C76  1  0.69008494  0.98725506  0.38897964  1  -0.078737  0  -0.013039  0.063293  0  3.926554  0
C  C77  1  0.70668150  0.96995603  0.31722134  1  -0.004057  0  -0.001027  0.011169  0  3.908924  0
C  C78  1  0.78232986  0.96646190  0.31741003  1  -0.015724  0  -0.005776  -0.041312  0  3.902585  0
C  C79  1  0.25379239  0.84111834  0.04524004  1  -0.052815  0  -0.078559  -0.09479  0  3.972115  0
C  C80  1  0.19441237  0.77024736  0.04321747  1  -0.023868  0  -0.082105  -0.100958  0  3.975856  0
C  C81  1  0.21038443  0.70098179  0.04111758  1  -0.034127  0  -0.009625  -0.011409  0  3.965159  0
Br  Br82  1  0.88124097  0.18828132  0.82566622  1  -0.060803  0  0.02425  -0.065607  0  1.379428  0
Br  Br83  1  0.77891373  0.03405557  0.50569214  1  -0.050965  0  0.032953  -0.056298  0  1.553096  0
O  O84  1  0.41045197  0.87976621  0.97546509  1  -1.167799  0  -0.310954  -0.57065  0  2.337449  0
O  O85  1  0.03189029  0.40947317  0.94505979  1  -1.165701  0  -0.30592  -0.561817  0  2.312682  0
O  O86  1  0.06408332  0.59303696  0.97654510  1  -1.174968  0  -0.311301  -0.570962  0  2.314066  0
O  O87  1  0.40675664  0.98866864  0.07360567  1  -1.134901  0  -0.318872  -0.531829  0  2.210303  0
O  O88  1  0.16813048  0.59237050  0.08285417  1  -1.125557  0  -0.318495  -0.527671  0  2.218463  0
O  O89  1  0.91929834  0.59094706  0.00395677  1  -1.129919  0  -0.319494  -0.529503  0  2.217326  0
O  O90  1  0.02934049  0.60117845  0.11435905  1  -1.171018  0  -0.310888  -0.570448  0  2.318504  0
O  O91  1  0.88176064  0.40880100  0.97153970  1  -1.169156  0  -0.311286  -0.571871  0  2.332175  0
O  O92  1  0.98771192  0.42390149  0.08959729  1  -1.118491  0  -0.315287  -0.525871  0  2.224813  0
O  O93  1  0.58284643  0.90790666  0.01601040  1  -1.128926  0  -0.318637  -0.532095  0  2.207548  0
O  O94  1  0.58244729  0.01801109  0.11595120  1  -1.170046  0  -0.309551  -0.571194  0  2.354431  0
O  O95  1  0.97729691  0.05058136  0.59643095  1  -1.175187  0  -0.313203  -0.573507  0  2.34491  0
O  O96  1  0.59408892  0.05104957  0.96902302  1  -1.172581  0  -0.313858  -0.571831  0  2.317327  0
O  O97  1  0.59843647  0.15824227  0.07805900  1  -1.128859  0  -0.316791  -0.529111  0  2.232076  0
O  O98  1  0.40834902  0.90891782  0.83287220  1  -1.132811  0  -0.316533  -0.528541  0  2.21936  0
O  O99  1  0.41722145  0.02744760  0.93288927  1  -1.179385  0  -0.313796  -0.574287  0  2.33298  0
O  O100  1  0.07125728  0.16106992  0.59125805  1  -1.132188  0  -0.317229  -0.5263  0  2.245438  0
O  O101  1  0.93101691  0.02821592  0.41841675  1  -1.168029  0  -0.311632  -0.572313  0  2.32999  0
O  O102  1  0.83256944  0.90957826  0.40984102  1  -1.118617  0  -0.320071  -0.532837  0  2.274573  0
O  O103  1  0.07533821  0.99972994  0.40254618  1  -1.13442  0  -0.319771  -0.530375  0  2.20884  0
O  O104  1  0.97231482  0.88678442  0.39652939  1  -1.174645  0  -0.309897  -0.567521  0  2.327523  0
O  O105  1  0.12412064  0.02540417  0.58304729  1  -1.172347  0  -0.311772  -0.569292  0  2.321734  0
O  O106  1  0.02191643  0.90658464  0.57129379  1  -1.133248  0  -0.317037  -0.528387  0  2.22792  0
O  O107  1  0.93032683  0.41146111  0.83764426  1  -1.117986  0  -0.311302  -0.517364  0  2.22413  0
