# generated using pymatgen
data_CdH8C9N3ClO3
_symmetry_space_group_name_H-M   'P 1'
_cell_length_a   8.09643326
_cell_length_b   10.84363668
_cell_length_c   13.22478845
_cell_angle_alpha   90.00015387
_cell_angle_beta   89.99981049
_cell_angle_gamma   105.45543943
_symmetry_Int_Tables_number   1
_chemical_formula_structural   CdH8C9N3ClO3
_chemical_formula_sum   'Cd4 H32 C36 N12 Cl4 O12'
_cell_volume   1119.08088268
_cell_formula_units_Z   4
loop_
 _symmetry_equiv_pos_site_id
 _symmetry_equiv_pos_as_xyz
  1  'x, y, z'
loop_
 _atom_site_type_symbol
 _atom_site_label
 _atom_site_symmetry_multiplicity
 _atom_site_fract_x
 _atom_site_fract_y
 _atom_site_fract_z
 _atom_site_occupancy
 _atom_site_hle17_bader_spin_density
 _atom_site_hle17_ddec_charge
 _atom_site_hle17_ddec_spin_density
 _atom_site_hle17_ddec_sum_bond_order
 _atom_site_hle17_magmom
 _atom_site_hse06_10hf_bader_spin_density
 _atom_site_hse06_10hf_ddec_charge
 _atom_site_hse06_10hf_ddec_spin_density
 _atom_site_hse06_10hf_ddec_sum_bond_order
 _atom_site_hse06_10hf_magmom
 _atom_site_hse06_bader_spin_density
 _atom_site_hse06_ddec_charge
 _atom_site_hse06_ddec_spin_density
 _atom_site_hse06_ddec_sum_bond_order
 _atom_site_hse06_magmom
 _atom_site_pbe_bader_spin_density
 _atom_site_pbe_cm5_charge
 _atom_site_pbe_ddec_charge
 _atom_site_pbe_ddec_spin_density
 _atom_site_pbe_ddec_sum_bond_order
 _atom_site_pbe_magmom
Cd  Cd0  1  0.51803799  0.92879118  0.37224388  1  0  1.073199  0  1.777517  0  0  0.901783  0  2.230032  0  0  0.954193  0  2.180921  0  0  0.673667  0.864834  0  2.263247  0
Cd  Cd1  1  0.48195971  0.57120800  0.87224320  1  0  1.073229  0  1.777477  0  0  0.901798  0  2.229998  0  0  0.95421  0  2.180881  0  0  0.673662  0.864853  0  2.263201  0
Cd  Cd2  1  0.48196079  0.07120774  0.62775632  1  0  1.073233  0  1.777491  0  0  0.901812  0  2.230009  0  0  0.954222  0  2.180895  0  0  0.673662  0.864866  0  2.263216  0
Cd  Cd3  1  0.51804189  0.42879189  0.12775624  1  0  1.073241  0  1.77748  0  0  0.901808  0  2.229996  0  0  0.95422  0  2.180881  0  0  0.673656  0.864858  0  2.263209  0
H  H4  1  0.12204565  0.94358470  0.35767015  1  0  0.094292  0  0.92383  0  0  0.100144  0  0.991975  0  0  0.103533  0  0.98834  0  0  0.119422  0.096978  0  0.995959  0
H  H5  1  0.87795212  0.55641446  0.85767091  1  0  0.094336  0  0.923752  0  0  0.100184  0  0.991895  0  0  0.103566  0  0.98828  0  0  0.119447  0.097018  0  0.995882  0
H  H6  1  0.87795561  0.05641424  0.64232930  1  0  0.09432  0  0.923749  0  0  0.100165  0  0.991904  0  0  0.103554  0  0.988275  0  0  0.119436  0.097001  0  0.995889  0
H  H7  1  0.12204825  0.44358543  0.14232854  1  0  0.094327  0  0.923752  0  0  0.100181  0  0.991902  0  0  0.103567  0  0.988277  0  0  0.119449  0.097014  0  0.99589  0
H  H8  1  0.78938477  0.56032542  0.35955793  1  0  0.124013  0  0.965133  0  0  0.134877  0  1.026579  0  0  0.138331  0  1.023014  0  0  0.118995  0.132337  0  1.02919  0
H  H9  1  0.21061175  0.93967373  0.85955937  1  0  0.12397  0  0.965202  0  0  0.134895  0  1.026582  0  0  0.138314  0  1.023063  0  0  0.119024  0.132352  0  1.029196  0
H  H10  1  0.21061402  0.43967350  0.64044076  1  0  0.12399  0  0.965167  0  0  0.134895  0  1.026571  0  0  0.13833  0  1.023031  0  0  0.119003  0.132353  0  1.029183  0
H  H11  1  0.78938771  0.06032711  0.14044008  1  0  0.123955  0  0.965149  0  0  0.134889  0  1.026543  0  0  0.138308  0  1.023023  0  0  0.119019  0.132344  0  1.029153  0
H  H12  1  0.34121061  0.63946128  0.37517384  1  0  0.101386  0  0.965994  0  0  0.1068  0  1.034186  0  0  0.110329  0  1.030175  0  0  0.124062  0.104201  0  1.037239  0
H  H13  1  0.65878550  0.86053695  0.87517420  1  0  0.101476  0  0.96585  0  0  0.10682  0  1.034132  0  0  0.110349  0  1.030121  0  0  0.124069  0.104223  0  1.037187  0
H  H14  1  0.65878942  0.36053765  0.62482636  1  0  0.101431  0  0.96593  0  0  0.106813  0  1.034157  0  0  0.110341  0  1.030148  0  0  0.124069  0.104214  0  1.03721  0
H  H15  1  0.34121328  0.13946197  0.12482676  1  0  0.101489  0  0.965862  0  0  0.106898  0  1.034079  0  0  0.110429  0  1.030063  0  0  0.124079  0.104301  0  1.037134  0
H  H16  1  0.77486355  0.36547347  0.38229004  1  0  0.124316  0  0.946033  0  0  0.134522  0  1.00922  0  0  0.137313  0  1.005529  0  0  0.123764  0.132358  0  1.011512  0
H  H17  1  0.22513270  0.13452579  0.88229003  1  0  0.124337  0  0.946063  0  0  0.134538  0  1.009257  0  0  0.137329  0  1.005564  0  0  0.123774  0.132376  0  1.011545  0
H  H18  1  0.22513524  0.63452546  0.61771016  1  0  0.124347  0  0.946005  0  0  0.134523  0  1.009228  0  0  0.137312  0  1.00554  0  0  0.123761  0.132355  0  1.011517  0
H  H19  1  0.77486643  0.86547409  0.11771018  1  0  0.124326  0  0.946052  0  0  0.134526  0  1.009249  0  0  0.137316  0  1.005555  0  0  0.123769  0.132364  0  1.011533  0
H  H20  1  0.87186131  0.14286771  0.40156487  1  0  0.138295  0  0.978946  0  0  0.145733  0  1.04068  0  0  0.149125  0  1.03944  0  0  0.106184  0.143445  0  1.041528  0
H  H21  1  0.12813732  0.35713160  0.90156402  1  0  0.138292  0  0.978968  0  0  0.14573  0  1.040704  0  0  0.149123  0  1.039464  0  0  0.106192  0.143439  0  1.041554  0
H  H22  1  0.12814152  0.85713218  0.59843534  1  0  0.138315  0  0.978964  0  0  0.14575  0  1.040698  0  0  0.149142  0  1.039459  0  0  0.106198  0.143459  0  1.04155  0
H  H23  1  0.87186181  0.64286828  0.09843618  1  0  0.13831  0  0.978969  0  0  0.145749  0  1.040696  0  0  0.149141  0  1.039456  0  0  0.106208  0.143464  0  1.041543  0
H  H24  1  0.22526475  0.22104441  0.39566759  1  0  0.104526  0  0.969594  0  0  0.115184  0  1.031062  0  0  0.117474  0  1.028884  0  0  0.105384  0.113186  0  1.033331  0
H  H25  1  0.77473458  0.27895680  0.89566678  1  0  0.104455  0  0.969664  0  0  0.115161  0  1.031077  0  0  0.117451  0  1.028897  0  0  0.105372  0.113163  0  1.033349  0
H  H26  1  0.77473999  0.77895740  0.60433261  1  0  0.104495  0  0.969692  0  0  0.115138  0  1.031173  0  0  0.117442  0  1.028976  0  0  0.105368  0.11314  0  1.033446  0
H  H27  1  0.22526455  0.72104308  0.10433342  1  0  0.10447  0  0.969649  0  0  0.115175  0  1.031061  0  0  0.117466  0  1.028883  0  0  0.105383  0.11318  0  1.033334  0
H  H28  1  0.56455751  0.07838443  0.19099690  1  0  0.419762  0  0.888736  0  0  0.387727  0  0.954658  0  0  0.399329  0  0.937813  0  0  0.281522  0.37956  0  0.966488  0
H  H29  1  0.43544208  0.42161438  0.69099709  1  0  0.419747  0  0.888751  0  0  0.387724  0  0.954655  0  0  0.399326  0  0.937811  0  0  0.28152  0.379555  0  0.966492  0
H  H30  1  0.43544162  0.92161545  0.80900330  1  0  0.419763  0  0.888735  0  0  0.38773  0  0.954652  0  0  0.399332  0  0.937807  0  0  0.281519  0.379559  0  0.96649  0
H  H31  1  0.56455671  0.57838454  0.30900236  1  0  0.419728  0  0.888782  0  0  0.387712  0  0.954677  0  0  0.399313  0  0.937834  0  0  0.281514  0.379543  0  0.966513  0
H  H32  1  0.40395925  0.95870526  0.17035876  1  0  0.388418  0  0.931313  0  0  0.348152  0  1.011461  0  0  0.359244  0  0.995711  0  0  0.278251  0.340316  0  1.022585  0
H  H33  1  0.59604251  0.54129537  0.67035930  1  0  0.388429  0  0.931304  0  0  0.348144  0  1.011475  0  0  0.359238  0  0.995723  0  0  0.278234  0.340312  0  1.022593  0
H  H34  1  0.59604234  0.04129463  0.82964069  1  0  0.388409  0  0.931327  0  0  0.34814  0  1.011476  0  0  0.359233  0  0.995726  0  0  0.27824  0.340306  0  1.022598  0
H  H35  1  0.40395785  0.45870452  0.32964015  1  0  0.388408  0  0.931328  0  0  0.348135  0  1.011486  0  0  0.359228  0  0.995734  0  0  0.278235  0.340303  0  1.022604  0
C  C36  1  0.10202724  0.84013810  0.35879748  1  0  0.121093  0  3.674132  0  0  0.074069  0  3.932492  0  0  0.083155  0  3.949548  0  0  0.052804  0.067678  0  3.922081  0
C  C37  1  0.89797086  0.65986201  0.85879843  1  0  0.121023  0  3.674113  0  0  0.074009  0  3.932445  0  0  0.083089  0  3.949502  0  0  0.052783  0.067618  0  3.922033  0
C  C38  1  0.89797223  0.15986274  0.64120196  1  0  0.121057  0  3.674051  0  0  0.074054  0  3.932418  0  0  0.083137  0  3.94948  0  0  0.052798  0.067662  0  3.92201  0
C  C39  1  0.10203073  0.34013788  0.14120177  1  0  0.121023  0  3.674142  0  0  0.073982  0  3.9325  0  0  0.083064  0  3.949558  0  0  0.052746  0.067593  0  3.922089  0
C  C40  1  0.93675613  0.75754944  0.35700824  1  0  -0.087291  0  3.750896  0  0  -0.056272  0  3.981473  0  0  -0.067715  0  4.005104  0  0  -0.004344  -0.0492  0  3.966075  0
C  C41  1  0.06324198  0.74245067  0.85701106  1  0  -0.087287  0  3.750933  0  0  -0.056228  0  3.98147  0  0  -0.067667  0  4.005092  0  0  -0.004352  -0.04916  0  3.966074  0
C  C42  1  0.06324424  0.24245045  0.64299045  1  0  -0.087217  0  3.750795  0  0  -0.056225  0  3.981435  0  0  -0.067676  0  4.005075  0  0  -0.004342  -0.049159  0  3.966042  0
C  C43  1  0.93675838  0.25754922  0.14298915  1  0  -0.087323  0  3.750863  0  0  -0.056232  0  3.981414  0  0  -0.067672  0  4.005033  0  0  -0.004348  -0.049173  0  3.966022  0
C  C44  1  0.91701403  0.62589904  0.36064296  1  0  -0.080351  0  3.635442  0  0  -0.121011  0  3.888114  0  0  -0.117405  0  3.901995  0  0  -0.057976  -0.12236  0  3.876643  0
C  C45  1  0.08298282  0.87410107  0.86064527  1  0  -0.080296  0  3.635465  0  0  -0.120999  0  3.888209  0  0  -0.117368  0  3.902104  0  0  -0.057976  -0.122343  0  3.876737  0
C  C46  1  0.08298510  0.37410084  0.63935573  1  0  -0.08037  0  3.635433  0  0  -0.121074  0  3.888144  0  0  -0.117456  0  3.902039  0  0  -0.057991  -0.122423  0  3.876676  0
C  C47  1  0.91701911  0.12589978  0.13935494  1  0  -0.080231  0  3.635355  0  0  -0.120977  0  3.88812  0  0  -0.117354  0  3.902028  0  0  -0.05797  -0.122315  0  3.876636  0
C  C48  1  0.06268328  0.58075531  0.36745674  1  0  0.13295  0  3.767064  0  0  0.115461  0  4.023354  0  0  0.126414  0  4.04576  0  0  0.111101  0.113766  0  4.009772  0
C  C49  1  0.93731635  0.91924578  0.86745817  1  0  0.132962  0  3.766973  0  0  0.115331  0  4.02347  0  0  0.126301  0  4.045874  0  0  0.111065  0.113633  0  4.009896  0
C  C50  1  0.93731584  0.41924457  0.63254271  1  0  0.13295  0  3.767068  0  0  0.115466  0  4.023364  0  0  0.126437  0  4.045765  0  0  0.111076  0.113769  0  4.009786  0
C  C51  1  0.06268401  0.08075410  0.13254203  1  0  0.132982  0  3.766898  0  0  0.115379  0  4.023394  0  0  0.126359  0  4.045795  0  0  0.111082  0.113681  0  4.009816  0
C  C52  1  0.22386532  0.66933569  0.36836179  1  0  0.059297  0  3.660671  0  0  0.015885  0  3.924641  0  0  0.023195  0  3.93711  0  0  0.050762  0.010817  0  3.915455  0
C  C53  1  0.77613026  0.83066443  0.86836260  1  0  0.059246  0  3.660488  0  0  0.015922  0  3.924533  0  0  0.023233  0  3.936999  0  0  0.050748  0.010847  0  3.915353  0
C  C54  1  0.77613257  0.33066418  0.63163766  1  0  0.059277  0  3.660624  0  0  0.01589  0  3.92461  0  0  0.0232  0  3.937076  0  0  0.050753  0.010822  0  3.915423  0
C  C55  1  0.22387010  0.16933545  0.13163760  1  0  0.059183  0  3.660515  0  0  0.015786  0  3.924571  0  0  0.023094  0  3.937039  0  0  0.050718  0.010708  0  3.915392  0
C  C56  1  0.90211743  0.35060081  0.38423095  1  0  0.002784  0  3.642517  0  0  -0.059795  0  3.910716  0  0  -0.04324  0  3.930255  0  0  0.017639  -0.064256  0  3.899671  0
C  C57  1  0.09788465  0.14939752  0.88423122  1  0  0.002778  0  3.642415  0  0  -0.059801  0  3.910606  0  0  -0.043233  0  3.930148  0  0  0.017669  -0.064261  0  3.899566  0
C  C58  1  0.09788541  0.64939908  0.61576850  1  0  0.002772  0  3.642516  0  0  -0.059786  0  3.910719  0  0  -0.043218  0  3.93026  0  0  0.017631  -0.06424  0  3.899672  0
C  C59  1  0.90211414  0.85060141  0.11576898  1  0  0.002824  0  3.642298  0  0  -0.059763  0  3.91049  0  0  -0.043184  0  3.930031  0  0  0.017671  -0.064211  0  3.899439  0
C  C60  1  0.95303274  0.23938724  0.39390428  1  0  -0.193798  0  3.761611  0  0  -0.207728  0  4.029207  0  0  -0.217177  0  4.049355  0  0  -0.111698  -0.201061  0  4.013237  0
C  C61  1  0.04696446  0.26061492  0.89390414  1  0  -0.193786  0  3.7616  0  0  -0.207727  0  4.029237  0  0  -0.217174  0  4.049379  0  0  -0.111735  -0.201052  0  4.013261  0
C  C62  1  0.04696920  0.76061360  0.60609517  1  0  -0.19385  0  3.761727  0  0  -0.207769  0  4.029322  0  0  -0.217218  0  4.049469  0  0  -0.11175  -0.201102  0  4.013353  0
C  C63  1  0.95303466  0.73938497  0.10609606  1  0  -0.19383  0  3.761646  0  0  -0.207774  0  4.029284  0  0  -0.217221  0  4.049424  0  0  -0.111743  -0.201107  0  4.013311  0
C  C64  1  0.13370992  0.27829948  0.39040112  1  0  0.073641  0  3.708929  0  0  0.033006  0  3.984136  0  0  0.041079  0  3.996663  0  0  0.022464  0.028407  0  3.973625  0
C  C65  1  0.86628786  0.22170076  0.89040076  1  0  0.073694  0  3.708932  0  0  0.033023  0  3.984147  0  0  0.041096  0  3.996672  0  0  0.022491  0.028428  0  3.973635  0
C  C66  1  0.86628931  0.72170422  0.60959832  1  0  0.073709  0  3.708731  0  0  0.03308  0  3.983942  0  0  0.041144  0  3.996461  0  0  0.022522  0.028489  0  3.973432  0
C  C67  1  0.13371003  0.77829912  0.10959945  1  0  0.073691  0  3.708966  0  0  0.033025  0  3.984175  0  0  0.041095  0  3.996699  0  0  0.022491  0.028429  0  3.973672  0
C  C68  1  0.78313732  0.81017101  0.35341142  1  0  0.644129  0  3.919627  0  0  0.590871  0  4.211961  0  0  0.625365  0  4.20727  0  0  0.201425  0.567672  0  4.21422  0
C  C69  1  0.21686148  0.68983101  0.85341305  1  0  0.644222  0  3.919727  0  0  0.590927  0  4.212061  0  0  0.625423  0  4.207368  0  0  0.201513  0.567738  0  4.214309  0
C  C70  1  0.21686214  0.18982983  0.64658954  1  0  0.644118  0  3.919647  0  0  0.590846  0  4.212002  0  0  0.625343  0  4.207312  0  0  0.201475  0.567658  0  4.214248  0
C  C71  1  0.78313922  0.31016984  0.14658790  1  0  0.644219  0  3.919758  0  0  0.590913  0  4.212107  0  0  0.625408  0  4.207415  0  0  0.201529  0.567725  0  4.214353  0
N  N72  1  0.24129020  0.79559802  0.36292288  1  0  -0.322289  0  3.326304  0  0  -0.24026  0  3.595292  0  0  -0.261813  0  3.617533  0  0  -0.32905  -0.225554  0  3.580303  0
N  N73  1  0.75870755  0.70440115  0.86292269  1  0  -0.322313  0  3.326344  0  0  -0.240285  0  3.595318  0  0  -0.261839  0  3.617561  0  0  -0.329043  -0.22557  0  3.580318  0
N  N74  1  0.75871016  0.20440187  0.63707657  1  0  -0.322315  0  3.326342  0  0  -0.240281  0  3.595302  0  0  -0.261833  0  3.617541  0  0  -0.329046  -0.225572  0  3.580309  0
N  N75  1  0.24129372  0.29559779  0.13707675  1  0  -0.322263  0  3.326369  0  0  -0.240225  0  3.595356  0  0  -0.261777  0  3.617596  0  0  -0.329015  -0.225507  0  3.580354  0
N  N76  1  0.04873008  0.44898167  0.37524879  1  0  0.023771  0  3.615571  0  0  0.132959  0  3.798213  0  0  0.093728  0  3.861331  0  0  -0.132511  0.140875  0  3.779066  0
N  N77  1  0.95126462  0.05101662  0.87524939  1  0  0.02378  0  3.615619  0  0  0.13303  0  3.798266  0  0  0.093757  0  3.861436  0  0  -0.132512  0.140942  0  3.77913  0
N  N78  1  0.95126714  0.55101630  0.62475141  1  0  0.023783  0  3.615539  0  0  0.132977  0  3.798164  0  0  0.093704  0  3.861331  0  0  -0.132495  0.140891  0  3.779019  0
N  N79  1  0.04873540  0.94898231  0.12475081  1  0  0.023725  0  3.61554  0  0  0.13299  0  3.798171  0  0  0.093693  0  3.861357  0  0  -0.132517  0.140905  0  3.779029  0
N  N80  1  0.19208540  0.40499062  0.37938779  1  0  -0.287989  0  2.980049  0  0  -0.260137  0  3.234062  0  0  -0.262123  0  3.254735  0  0  -0.227499  -0.252374  0  3.222985  0
N  N81  1  0.80791367  0.09500960  0.87938727  1  0  -0.288022  0  2.980244  0  0  -0.260169  0  3.234264  0  0  -0.26214  0  3.254944  0  0  -0.22751  -0.252404  0  3.223189  0
N  N82  1  0.80791620  0.59500927  0.62061241  1  0  -0.288009  0  2.979952  0  0  -0.260143  0  3.233968  0  0  -0.262117  0  3.254654  0  0  -0.227492  -0.252385  0  3.222897  0
N  N83  1  0.19208512  0.90498932  0.12061294  1  0  -0.288001  0  2.980225  0  0  -0.260161  0  3.234249  0  0  -0.262125  0  3.254934  0  0  -0.227519  -0.252401  0  3.22318  0
Cl  Cl84  1  0.48368881  0.14289013  0.43096762  1  0  -0.573864  0  0.946466  0  0  -0.507195  0  1.215503  0  0  -0.526933  0  1.192663  0  0  -0.291866  -0.49313  0  1.23113  0
Cl  Cl85  1  0.51630968  0.35710925  0.93096750  1  0  -0.573845  0  0.946433  0  0  -0.507188  0  1.21548  0  0  -0.526927  0  1.192641  0  0  -0.291863  -0.493124  0  1.231105  0
Cl  Cl86  1  0.51631155  0.85710975  0.56903258  1  0  -0.573855  0  0.946442  0  0  -0.50719  0  1.215483  0  0  -0.526929  0  1.192646  0  0  -0.291851  -0.493121  0  1.231112  0
Cl  Cl87  1  0.48368911  0.64288967  0.06903270  1  0  -0.573843  0  0.946426  0  0  -0.507191  0  1.215479  0  0  -0.52693  0  1.192641  0  0  -0.291854  -0.493127  0  1.231103  0
O  O88  1  0.52059922  0.98390188  0.20178904  1  0  -0.824358  0  1.90042  0  0  -0.760599  0  2.101868  0  0  -0.782832  0  2.066271  0  0  -0.592867  -0.744771  0  2.12639  0
O  O89  1  0.47940083  0.51609786  0.70179051  1  0  -0.824372  0  1.900403  0  0  -0.760595  0  2.101869  0  0  -0.782832  0  2.066268  0  0  -0.592847  -0.744771  0  2.126391  0
O  O90  1  0.47940114  0.01609800  0.79820965  1  0  -0.824352  0  1.900426  0  0  -0.760591  0  2.101882  0  0  -0.782828  0  2.066289  0  0  -0.592856  -0.744764  0  2.126407  0
O  O91  1  0.52059953  0.48390203  0.29820969  1  0  -0.82435  0  1.90047  0  0  -0.760573  0  2.101894  0  0  -0.782816  0  2.06631  0  0  -0.592846  -0.744749  0  2.126417  0
O  O92  1  0.63473895  0.73402762  0.34101885  1  0  -0.638634  0  1.998166  0  0  -0.570851  0  2.226224  0  0  -0.599963  0  2.217286  0  0  -0.316878  -0.550674  0  2.231737  0
O  O93  1  0.36525900  0.76597532  0.84102111  1  0  -0.638813  0  1.998331  0  0  -0.57091  0  2.226307  0  0  -0.600019  0  2.217365  0  0  -0.316936  -0.550735  0  2.231814  0
O  O94  1  0.36526051  0.26597322  0.65898060  1  0  -0.638708  0  1.998233  0  0  -0.570867  0  2.226257  0  0  -0.599977  0  2.217316  0  0  -0.316909  -0.550691  0  2.231762  0
O  O95  1  0.63474170  0.23402552  0.15898061  1  0  -0.63878  0  1.998329  0  0  -0.570885  0  2.22633  0  0  -0.599995  0  2.217389  0  0  -0.316921  -0.550709  0  2.231833  0
O  O96  1  0.80751110  0.93046656  0.36462532  1  0  -0.617278  0  1.959831  0  0  -0.553334  0  2.198096  0  0  -0.582604  0  2.190185  0  0  -0.322768  -0.533066  0  2.203098  0
O  O97  1  0.19248978  0.56953453  0.86462522  1  0  -0.617262  0  1.959835  0  0  -0.553347  0  2.198134  0  0  -0.582617  0  2.190224  0  0  -0.322785  -0.533086  0  2.203138  0
O  O98  1  0.19248892  0.06953237  0.63537715  1  0  -0.617257  0  1.95982  0  0  -0.553318  0  2.1981  0  0  -0.582588  0  2.19019  0  0  -0.32277  -0.533057  0  2.203103  0
O  O99  1  0.80751373  0.43046728  0.13537347  1  0  -0.617319  0  1.959887  0  0  -0.553376  0  2.198165  0  0  -0.582646  0  2.190255  0  0  -0.32282  -0.533117  0  2.203173  0
