# generated using pymatgen
data_ZnH14C20N3O4
_symmetry_space_group_name_H-M   'P 1'
_cell_length_a   11.52506591
_cell_length_b   11.52506426
_cell_length_c   16.28533099
_cell_angle_alpha   91.02697189
_cell_angle_beta   91.02676102
_cell_angle_gamma   105.37185387
_symmetry_Int_Tables_number   1
_chemical_formula_structural   ZnH14C20N3O4
_chemical_formula_sum   'Zn4 H56 C80 N12 O16'
_cell_volume   2084.83748657
_cell_formula_units_Z   4
loop_
 _symmetry_equiv_pos_site_id
 _symmetry_equiv_pos_as_xyz
  1  'x, y, z'
loop_
 _atom_site_type_symbol
 _atom_site_label
 _atom_site_symmetry_multiplicity
 _atom_site_fract_x
 _atom_site_fract_y
 _atom_site_fract_z
 _atom_site_occupancy
 _atom_site_pbe_bader_charge
 _atom_site_pbe_bader_spin_density
 _atom_site_pbe_cm5_charge
 _atom_site_pbe_ddec_charge
 _atom_site_pbe_ddec_spin_density
 _atom_site_pbe_ddec_sum_bond_order
 _atom_site_pbe_magmom
Zn  Zn0  1  0.63859748  0.83441271  0.07007545  1  1.25395  0  0.686863  0.764709  0  2.399534  0
Zn  Zn1  1  0.16558745  0.36140552  0.42992425  1  1.253951  0  0.686878  0.764717  0  2.399582  0
Zn  Zn2  1  0.36140476  0.16558536  0.92992515  1  1.253954  0  0.686851  0.764633  0  2.399625  0
Zn  Zn3  1  0.83441301  0.63859557  0.57007576  1  1.253967  0  0.686892  0.764726  0  2.39958  0
H  H4  1  0.36909602  0.02385935  0.14238799  1  0.082201  0  0.098095  0.098373  0  1.029733  0
H  H5  1  0.97613581  0.63090564  0.35761274  1  0.082264  0  0.098016  0.098229  0  1.029787  0
H  H6  1  0.63090350  0.97613887  0.85761380  1  0.082217  0  0.098086  0.098368  0  1.029718  0
H  H7  1  0.02386465  0.36909458  0.64238726  1  0.082255  0  0.097994  0.098217  0  1.029773  0
H  H8  1  0.25558873  0.13691960  0.22879481  1  0.09594  0  0.096077  0.0943  0  1.035406  0
H  H9  1  0.86307475  0.74441119  0.27120556  1  0.095949  0  0.096075  0.094316  0  1.035408  0
H  H10  1  0.74441168  0.86307799  0.77120760  1  0.095988  0  0.096067  0.094306  0  1.035399  0
H  H11  1  0.13692481  0.25559053  0.72879506  1  0.095979  0  0.096073  0.094337  0  1.035412  0
H  H12  1  0.69113188  0.18408895  0.28354867  1  0.114798  0  0.105752  0.116238  0  1.031637  0
H  H13  1  0.81591332  0.30886956  0.21645197  1  0.115187  0  0.105725  0.116178  0  1.031687  0
H  H14  1  0.30887130  0.81591459  0.71645081  1  0.115199  0  0.105734  0.116186  0  1.031675  0
H  H15  1  0.18408626  0.69113217  0.78354681  1  0.114809  0  0.10573  0.116189  0  1.031651  0
H  H16  1  0.51649968  0.46739228  0.34239971  1  0.073337  0  0.113355  0.122323  0  0.984686  0
H  H17  1  0.53260593  0.48349953  0.15760264  1  0.073207  0  0.113352  0.12234  0  0.984581  0
H  H18  1  0.48349987  0.53260856  0.65760151  1  0.073333  0  0.113349  0.122332  0  0.984665  0
H  H19  1  0.46739001  0.51649950  0.84239849  1  0.073275  0  0.113343  0.122289  0  0.984637  0
H  H20  1  0.63396902  0.62053404  0.44454079  1  0.14251  0  0.12096  0.101799  0  1.003161  0
H  H21  1  0.37946515  0.36603151  0.05545920  1  0.142484  0  0.120962  0.101845  0  1.003101  0
H  H22  1  0.36603234  0.37946728  0.55545924  1  0.142514  0  0.120955  0.101818  0  1.003158  0
H  H23  1  0.62053260  0.63396713  0.94454134  1  0.142525  0  0.120971  0.101832  0  1.003139  0
H  H24  1  0.70427721  0.21832588  0.43594355  1  0.049502  0  0.107868  0.113561  0  1.002371  0
H  H25  1  0.78167308  0.29571923  0.06405759  1  0.049572  0  0.107837  0.113514  0  1.002255  0
H  H26  1  0.29572146  0.78167475  0.56405581  1  0.049495  0  0.10789  0.11357  0  1.002335  0
H  H27  1  0.21832648  0.70428421  0.93594429  1  0.0495  0  0.107863  0.113544  0  1.002336  0
H  H28  1  0.81846758  0.38478554  0.53280955  1  0.114239  0  0.115899  0.087529  0  1.030127  0
H  H29  1  0.61521280  0.18153178  0.96719043  1  0.11423  0  0.115926  0.087542  0  1.030163  0
H  H30  1  0.18153288  0.61521468  0.46718984  1  0.114253  0  0.11593  0.08755  0  1.030163  0
H  H31  1  0.38478675  0.81846993  0.03281081  1  0.114168  0  0.115946  0.087569  0  1.030189  0
H  H32  1  0.83750464  0.76895657  0.94876968  1  0.12137  0  0.125976  0.13209  0  1.000169  0
H  H33  1  0.23104051  0.16249553  0.55123076  1  0.121423  0  0.125971  0.132102  0  1.000121  0
H  H34  1  0.16249758  0.23104062  0.05123214  1  0.121422  0  0.12598  0.132123  0  1.000194  0
H  H35  1  0.76895815  0.83750596  0.44876923  1  0.121411  0  0.125951  0.132032  0  1.000146  0
H  H36  1  0.99114412  0.95340551  0.86233313  1  0.15444  0  0.135117  0.143797  0  0.973536  0
H  H37  1  0.04658962  0.00885450  0.63766484  1  0.154467  0  0.135126  0.143822  0  0.973493  0
H  H38  1  0.00885542  0.04659100  0.13766679  1  0.154453  0  0.135124  0.143805  0  0.973473  0
H  H39  1  0.95341174  0.99114769  0.36233521  1  0.154446  0  0.135125  0.143816  0  0.973428  0
H  H40  1  0.77517970  0.09838166  0.02194360  1  0.160496  0  0.136944  0.107282  0  1.032361  0
H  H41  1  0.90161652  0.22482316  0.47805862  1  0.160441  0  0.136939  0.107268  0  1.032396  0
H  H42  1  0.22481984  0.90161484  0.97805633  1  0.16042  0  0.136959  0.107323  0  1.032309  0
H  H43  1  0.09838304  0.77517595  0.52194134  1  0.160441  0  0.136932  0.107303  0  1.032381  0
H  H44  1  0.03863786  0.19089009  0.88219270  1  0.106382  0  0.119856  0.115763  0  0.978022  0
H  H45  1  0.80910546  0.96136290  0.61780433  1  0.106584  0  0.119876  0.115767  0  0.978068  0
H  H46  1  0.96136080  0.80910880  0.11780663  1  0.106284  0  0.119861  0.115764  0  0.978069  0
H  H47  1  0.19089589  0.03863581  0.38219566  1  0.106606  0  0.119869  0.115771  0  0.978067  0
H  H48  1  0.94044738  0.24831305  0.94321725  1  0.075114  0  0.121612  0.109344  0  0.956036  0
H  H49  1  0.75168636  0.05955545  0.55678062  1  0.07504  0  0.121633  0.109392  0  0.956001  0
H  H50  1  0.05955037  0.75168386  0.05678203  1  0.075105  0  0.12161  0.109352  0  0.955999  0
H  H51  1  0.24831498  0.94044067  0.44321871  1  0.074911  0  0.121624  0.109411  0  0.955944  0
H  H52  1  0.93586636  0.06413057  0.74999844  1  0.047535  0  0.101794  0.095444  0  1.022112  0
H  H53  1  0.06413230  0.93586744  0.25000087  1  0.047526  0  0.101783  0.095441  0  1.022105  0
H  H54  1  0.78911904  0.32363752  0.87454494  1  0.072556  0  0.102226  0.099763  0  1.00963  0
H  H55  1  0.67635961  0.21088438  0.62545627  1  0.07252  0  0.102246  0.099785  0  1.009599  0
H  H56  1  0.21088235  0.67636470  0.12545265  1  0.072548  0  0.102219  0.09975  0  1.009624  0
H  H57  1  0.32363996  0.78911388  0.37454245  1  0.072301  0  0.102226  0.099736  0  1.00963  0
H  H58  1  0.66516409  0.33483754  0.75000194  1  0.063905  0  0.109932  0.108487  0  0.974573  0
H  H59  1  0.33483819  0.66516317  0.24999564  1  0.063884  0  0.109921  0.108484  0  0.974542  0
C  C60  1  0.60713947  0.02974023  0.15854296  1  1.54613  0  0.194659  0.565123  0  4.229701  0
C  C61  1  0.97026460  0.39286608  0.34145401  1  1.545816  0  0.194719  0.565318  0  4.229308  0
C  C62  1  0.39286374  0.97026506  0.84145471  1  1.545861  0  0.194769  0.565279  0  4.229259  0
C  C63  1  0.02973588  0.60713589  0.65854479  1  1.546125  0  0.194688  0.565216  0  4.22941  0
C  C64  1  0.53623084  0.09589819  0.20896828  1  -0.000237  0  -0.018285  -0.023784  0  3.970064  0
C  C65  1  0.90409993  0.46377235  0.29103302  1  2.6e-05  0  -0.018294  -0.023954  0  3.970209  0
C  C66  1  0.46377139  0.90409988  0.79103294  1  5.3e-05  0  -0.01831  -0.023903  0  3.970185  0
C  C67  1  0.09590056  0.53622963  0.70896516  1  -0.000244  0  -0.018334  -0.023929  0  3.970135  0
C  C68  1  0.41397319  0.08370028  0.19248152  1  -0.032503  0  -0.083679  -0.080354  0  3.965017  0
C  C69  1  0.91629495  0.58602919  0.30752047  1  -0.032678  0  -0.083606  -0.080084  0  3.964718  0
C  C70  1  0.58602811  0.91629667  0.80752150  1  -0.032705  0  -0.083647  -0.080289  0  3.964969  0
C  C71  1  0.08370462  0.41397254  0.69247892  1  -0.032601  0  -0.083556  -0.080055  0  3.964745  0
C  C72  1  0.35105676  0.14646238  0.24062021  1  -0.037467  0  -0.092279  -0.112132  0  4.005417  0
C  C73  1  0.85353167  0.64894398  0.25938068  1  -0.037807  0  -0.092236  -0.112159  0  4.005311  0
C  C74  1  0.64894454  0.85353370  0.75938280  1  -0.037767  0  -0.092253  -0.112149  0  4.005327  0
C  C75  1  0.14646969  0.35105821  0.74061937  1  -0.037862  0  -0.092229  -0.112179  0  4.005372  0
C  C76  1  0.40854615  0.22057914  0.30628007  1  -0.042327  0  -0.011248  -0.056436  0  3.937639  0
C  C77  1  0.77941598  0.59145464  0.19371963  1  -0.042028  0  -0.011266  -0.056448  0  3.937782  0
C  C78  1  0.59145516  0.77941609  0.69372109  1  -0.041805  0  -0.011268  -0.056438  0  3.937717  0
C  C79  1  0.22058538  0.40854755  0.80628103  1  -0.041993  0  -0.011299  -0.056541  0  3.937823  0
C  C80  1  0.33440609  0.26837458  0.36634835  1  1.550521  0  0.189992  0.549731  0  4.275874  0
C  C81  1  0.73162261  0.66559393  0.13365337  1  1.550523  0  0.18981  0.54948  0  4.27612  0
C  C82  1  0.66559524  0.73162324  0.63365346  1  1.55055  0  0.189839  0.54956  0  4.276085  0
C  C83  1  0.26837872  0.33440736  0.86634912  1  1.550545  0  0.18981  0.549482  0  4.276309  0
C  C84  1  0.53305848  0.23729018  0.32115950  1  -0.04778  0  -0.00695  0.032942  0  3.97858  0
C  C85  1  0.76270561  0.46694166  0.17884067  1  -0.047748  0  -0.006952  0.032959  0  3.978539  0
C  C86  1  0.46694285  0.76270766  0.67884109  1  -0.048  0  -0.006922  0.032965  0  3.978568  0
C  C87  1  0.23729307  0.53306070  0.82115872  1  -0.047967  0  -0.006904  0.032944  0  3.978407  0
C  C88  1  0.59502779  0.17312111  0.27299736  1  -0.030888  0  -0.079846  -0.141311  0  3.93259  0
C  C89  1  0.82687816  0.40497360  0.22700395  1  -0.03083  0  -0.079829  -0.141266  0  3.932659  0
C  C90  1  0.40497446  0.82687956  0.72700390  1  -0.030862  0  -0.079862  -0.141267  0  3.932668  0
C  C91  1  0.17312052  0.59502791  0.77299481  1  -0.030633  0  -0.079853  -0.141254  0  3.932455  0
C  C92  1  0.59946591  0.32851312  0.38178429  1  0.040646  0  0.025451  0.14074  0  3.966293  0
C  C93  1  0.67148474  0.40053209  0.11821652  1  0.040889  0  0.025442  0.14073  0  3.966358  0
C  C94  1  0.40053365  0.67148773  0.61821570  1  0.040625  0  0.02541  0.140697  0  3.966304  0
C  C95  1  0.32851303  0.59947176  0.88178410  1  0.040855  0  0.025419  0.140775  0  3.966317  0
C  C96  1  0.58135025  0.44429173  0.38425723  1  0.007375  0  -0.076599  -0.161137  0  3.921111  0
C  C97  1  0.55570678  0.41864841  0.11574256  1  0.007127  0  -0.076608  -0.161135  0  3.92103  0
C  C98  1  0.41865020  0.55570849  0.61574277  1  0.007368  0  -0.0766  -0.16114  0  3.92114  0
C  C99  1  0.44428919  0.58135323  0.88425800  1  0.007148  0  -0.076574  -0.161068  0  3.921085  0
C  C100  1  0.64702932  0.53044482  0.43974705  1  0.434456  0  0.048336  0.096071  0  3.937898  0
C  C101  1  0.46955322  0.35297108  0.06025340  1  0.434441  0  0.04833  0.096002  0  3.93785  0
C  C102  1  0.35297294  0.46955587  0.56025299  1  0.434559  0  0.048339  0.096044  0  3.937907  0
C  C103  1  0.53044363  0.64702820  0.93974714  1  0.434474  0  0.048341  0.096051  0  3.937811  0
C  C104  1  0.68644223  0.30653893  0.43611615  1  -0.042577  0  -0.080705  -0.172204  0  3.948324  0
C  C105  1  0.69345724  0.31355802  0.06388514  1  -0.042618  0  -0.080643  -0.172162  0  3.948228  0
C  C106  1  0.31355912  0.69346152  0.56388448  1  -0.042569  0  -0.080703  -0.172192  0  3.948245  0
C  C107  1  0.30653964  0.68644648  0.93611487  1  -0.042658  0  -0.080681  -0.172224  0  3.948203  0
C  C108  1  0.74942802  0.39732862  0.48974348  1  0.481212  0  0.043421  0.086042  0  3.950737  0
C  C109  1  0.60266978  0.25057093  0.01025603  1  0.481183  0  0.043404  0.086086  0  3.950697  0
C  C110  1  0.25057244  0.60267161  0.51025591  1  0.481216  0  0.04343  0.086086  0  3.950669  0
C  C111  1  0.39732889  0.74943142  0.98974459  1  0.481238  0  0.043413  0.086086  0  3.95066  0
C  C112  1  0.84633503  0.86488829  0.94878724  1  0.410314  0  0.004273  -0.027197  0  3.979774  0
C  C113  1  0.13510881  0.15366507  0.55121393  1  0.410321  0  0.00425  -0.027238  0  3.979867  0
C  C114  1  0.15366629  0.13510954  0.05121458  1  0.410331  0  0.004269  -0.02725  0  3.979809  0
C  C115  1  0.86489164  0.84633600  0.44878731  1  0.410348  0  0.004252  -0.027171  0  3.979788  0
C  C116  1  0.92162745  0.95501153  0.90599732  1  0.304415  0  0.006184  -0.103613  0  3.907665  0
C  C117  1  0.04498501  0.07837242  0.59400263  1  0.304344  0  0.006156  -0.103658  0  3.907662  0
C  C118  1  0.07837298  0.04498434  0.09400261  1  0.30437  0  0.006197  -0.103492  0  3.907689  0
C  C119  1  0.95501635  0.92162977  0.40599803  1  0.304447  0  0.006191  -0.103568  0  3.907575  0
C  C120  1  0.81006794  0.03364810  0.98815219  1  0.96943  0  0.146364  0.088896  0  3.923335  0
C  C121  1  0.96635043  0.18993430  0.51184801  1  0.969405  0  0.146372  0.088961  0  3.923258  0
C  C122  1  0.18993251  0.96634952  0.01184715  1  0.969405  0  0.146382  0.089008  0  3.923266  0
C  C123  1  0.03364913  0.81006655  0.48815198  1  0.969402  0  0.146347  0.088888  0  3.923356  0
C  C124  1  0.94358519  0.18008708  0.89608634  1  0.279033  0  -0.039371  -0.111091  0  3.886114  0
C  C125  1  0.81990936  0.05641523  0.60391135  1  0.278807  0  -0.039418  -0.111181  0  3.886199  0
C  C126  1  0.05641256  0.81990984  0.10391294  1  0.279078  0  -0.039394  -0.111078  0  3.886209  0
C  C127  1  0.18009019  0.94358216  0.39608797  1  0.278977  0  -0.039391  -0.11114  0  3.886112  0
C  C128  1  0.87049579  0.19266961  0.82038985  1  -0.022731  0  -0.011959  0.090612  0  3.99484  0
C  C129  1  0.80732766  0.12950384  0.67960919  1  -0.022403  0  -0.011938  0.090726  0  3.994638  0
C  C130  1  0.12950286  0.80732927  0.17961010  1  -0.022446  0  -0.011945  0.090717  0  3.994705  0
C  C131  1  0.19267100  0.87049331  0.32038950  1  -0.022572  0  -0.011978  0.090687  0  3.99469  0
C  C132  1  0.87630663  0.12369304  0.74999918  1  -0.076717  0  -0.09061  -0.184559  0  3.960818  0
C  C133  1  0.12369202  0.87630498  0.25000014  1  -0.076723  0  -0.090594  -0.184567  0  3.960774  0
C  C134  1  0.79415592  0.26896782  0.81996676  1  -0.037104  0  -0.084717  -0.130765  0  3.96848  0
C  C135  1  0.73102997  0.20584604  0.68003313  1  -0.037086  0  -0.084785  -0.130875  0  3.968461  0
C  C136  1  0.20584546  0.73103266  0.18003141  1  -0.037207  0  -0.084739  -0.130805  0  3.968438  0
C  C137  1  0.26897051  0.79415420  0.31996503  1  -0.036872  0  -0.084759  -0.130789  0  3.968546  0
C  C138  1  0.72459422  0.27540535  0.75000060  1  0.006879  0  -0.076921  -0.041914  0  3.988565  0
C  C139  1  0.27540716  0.72459512  0.24999757  1  0.006893  0  -0.076856  -0.041895  0  3.988515  0
N  N140  1  0.72999050  0.50773158  0.49209628  1  -1.248696  0  -0.330694  -0.232499  0  3.560296  0
N  N141  1  0.49226835  0.27000968  0.00790283  1  -1.24866  0  -0.330701  -0.232506  0  3.56028  0
N  N142  1  0.27000998  0.49226866  0.50790188  1  -1.24878  0  -0.33071  -0.232535  0  3.560226  0
N  N143  1  0.50773031  0.72999181  0.99209778  1  -1.248661  0  -0.330702  -0.23252  0  3.560169  0
N  N144  1  0.89733855  0.06118698  0.93175006  1  -1.204329  0  -0.239849  0.038899  0  3.794442  0
N  N145  1  0.93881028  0.10266218  0.56824940  1  -1.204275  0  -0.239843  0.038868  0  3.794477  0
N  N146  1  0.10266010  0.93880930  0.06824922  1  -1.204286  0  -0.239881  0.038573  0  3.794821  0
N  N147  1  0.06118927  0.89733866  0.43175121  1  -1.2044  0  -0.23986  0.038698  0  3.79475  0
N  N148  1  0.77763086  0.91548777  0.99991743  1  -1.251366  0  -0.357544  -0.286178  0  3.626497  0
N  N149  1  0.08451118  0.22237217  0.50008398  1  -1.251339  0  -0.357513  -0.286152  0  3.626466  0
N  N150  1  0.22237136  0.08450943  0.00008378  1  -1.251325  0  -0.357562  -0.286176  0  3.626403  0
N  N151  1  0.91548748  0.77762931  0.49991663  1  -1.251352  0  -0.357496  -0.286097  0  3.626432  0
O  O152  1  0.71970101  0.06213249  0.16147230  1  -1.15102  0  -0.338947  -0.563383  0  2.091622  0
O  O153  1  0.93788133  0.28030392  0.33851796  1  -1.150915  0  -0.338971  -0.563436  0  2.091405  0
O  O154  1  0.28030230  0.93787896  0.83851934  1  -1.150983  0  -0.338991  -0.563435  0  2.091376  0
O  O155  1  0.06211917  0.71969720  0.66147898  1  -1.150969  0  -0.338963  -0.563408  0  2.091446  0
O  O156  1  0.54300668  0.94008291  0.11368416  1  -1.179774  0  -0.344174  -0.565571  0  2.311875  0
O  O157  1  0.05991496  0.45699870  0.38631703  1  -1.179836  0  -0.344198  -0.565612  0  2.311624  0
O  O158  1  0.45699553  0.05991514  0.88631828  1  -1.179836  0  -0.344205  -0.565577  0  2.311724  0
O  O159  1  0.94008372  0.54300279  0.61368235  1  -1.179839  0  -0.34418  -0.565588  0  2.311726  0
O  O160  1  0.35014898  0.25399809  0.44163434  1  -1.180419  0  -0.32748  -0.569366  0  2.156553  0
O  O161  1  0.74599927  0.64985110  0.05836734  1  -1.180343  0  -0.327372  -0.569242  0  2.156657  0
O  O162  1  0.64984965  0.74600164  0.55836808  1  -1.180372  0  -0.327369  -0.569247  0  2.156578  0
O  O163  1  0.25399850  0.35015448  0.94163454  1  -1.180372  0  -0.327389  -0.569238  0  2.156762  0
O  O164  1  0.25474867  0.31743181  0.33610185  1  -1.152168  0  -0.343036  -0.547646  0  2.255411  0
O  O165  1  0.68257007  0.74525433  0.16390078  1  -1.152218  0  -0.343  -0.547576  0  2.255365  0
O  O166  1  0.74525266  0.68256776  0.66389938  1  -1.152209  0  -0.343006  -0.547595  0  2.255436  0
O  O167  1  0.31743396  0.25474939  0.83610302  1  -1.152194  0  -0.342975  -0.54752  0  2.255438  0
