# generated using pymatgen
data_Zr6H13C52S10Br2N5O42
_symmetry_space_group_name_H-M   'P 1'
_cell_length_a   16.44111476
_cell_length_b   16.45636963
_cell_length_c   16.51478131
_cell_angle_alpha   61.82082530
_cell_angle_beta   59.85636085
_cell_angle_gamma   60.22790860
_symmetry_Int_Tables_number   1
_chemical_formula_structural   Zr6H13C52S10Br2N5O42
_chemical_formula_sum   'Zr6 H13 C52 S10 Br2 N5 O42'
_cell_volume   3202.73077805
_cell_formula_units_Z   1
loop_
 _symmetry_equiv_pos_site_id
 _symmetry_equiv_pos_as_xyz
  1  'x, y, z'
loop_
 _atom_site_type_symbol
 _atom_site_label
 _atom_site_symmetry_multiplicity
 _atom_site_fract_x
 _atom_site_fract_y
 _atom_site_fract_z
 _atom_site_occupancy
 _atom_site_pbe_bader_charge
 _atom_site_pbe_bader_spin_density
 _atom_site_pbe_cm5_charge
 _atom_site_pbe_ddec_charge
 _atom_site_pbe_ddec_spin_density
 _atom_site_pbe_ddec_sum_bond_order
 _atom_site_pbe_magmom
Zr  Zr0  1  0.88790274  0.90160254  0.59829579  1  2.638291  0  1.632534  2.373931  0  2.782204  0
Zr  Zr1  1  0.11059429  0.10211537  0.39810750  1  2.639242  0  1.63186  2.373427  0  2.775168  0
Zr  Zr2  1  0.10201038  0.89374611  0.60718569  1  2.639162  0  1.627667  2.377186  0  2.731491  0
Zr  Zr3  1  0.89621896  0.11074784  0.38961329  1  2.639709  0  1.622561  2.374509  0  2.738307  0
Zr  Zr4  1  0.10841154  0.89254403  0.38939359  1  2.639065  0  1.622096  2.377837  0  2.726905  0
Zr  Zr5  1  0.88930181  0.11114118  0.60771802  1  2.639502  0  1.621589  2.377618  0  2.723893  0
H  H6  1  0.07833176  0.75219019  0.57772401  1  0.625706  0  0.332528  0.425457  0  0.85395  0
H  H7  1  0.09159546  0.08073919  0.24856096  1  0.605563  0  0.332161  0.42509  0  0.854254  0
H  H8  1  0.08222070  0.08241236  0.58969378  1  0.607029  0  0.331166  0.424854  0  0.855466  0
H  H9  1  0.74430368  0.09308117  0.57822685  1  0.5929  0  0.331879  0.425255  0  0.852464  0
H  H10  1  0.12518599  0.61125346  0.36106384  1  0.135313  0  0.127569  0.154777  0  0.961513  0
H  H11  1  0.60481051  0.13049887  0.89580751  1  0.130626  0  0.127349  0.154784  0  0.961356  0
H  H12  1  0.87117367  0.12838702  0.11460877  1  0.142897  0  0.124112  0.150819  0  0.968153  0
H  H13  1  0.62162057  0.39445119  0.36413453  1  0.131837  0  0.122654  0.148973  0  0.970447  0
H  H14  1  0.10405719  0.63416052  0.87139249  1  0.140517  0  0.105855  0.125109  0  1.029742  0
H  H15  1  0.83955998  0.66018237  0.85356687  1  0.116402  0  0.110932  0.131503  0  0.999187  0
H  H16  1  0.88741154  0.37876722  0.13353776  1  0.125613  0  0.099161  0.109664  0  1.042465  0
H  H17  1  0.15359523  0.35070585  0.14955604  1  0.140901  0  0.111698  0.132142  0  0.999066  0
H  H18  1  0.61854810  0.87699713  0.61345770  1  0.139898  0  0.126579  0.153961  0  0.964511  0
C  C19  1  0.99520632  0.73747370  0.48546080  1  1.581437  0  0.227326  0.644034  0  4.15867  0
C  C20  1  0.28149839  0.98727475  0.23550067  1  1.577361  0  0.228111  0.652966  0  4.154949  0
C  C21  1  0.99623162  0.27287164  0.50436666  1  1.603063  0  0.227502  0.652603  0  4.158166  0
C  C22  1  0.72384516  0.00775435  0.76843709  1  1.561091  0  0.228328  0.6452  0  4.155971  0
C  C23  1  0.98176909  0.74124228  0.76620805  1  1.540728  0  0.237792  0.642113  0  4.09111  0
C  C24  1  0.73079935  0.00512610  0.48742777  1  1.57161  0  0.227406  0.644618  0  4.160514  0
C  C25  1  0.01118041  0.26933576  0.23643732  1  1.538061  0  0.237364  0.642581  0  4.088154  0
C  C26  1  0.27490660  0.99212656  0.50134174  1  1.616292  0  0.229048  0.653948  0  4.156277  0
C  C27  1  0.27372626  0.73161433  0.49551601  1  1.611371  0  0.22898  0.655051  0  4.148475  0
C  C28  1  0.98956186  0.99833179  0.77744829  1  1.606012  0  0.22722  0.651795  0  4.156394  0
C  C29  1  0.73261212  0.28003851  0.49451038  1  1.575159  0  0.228446  0.64761  0  4.142343  0
C  C30  1  0.00026357  0.99916865  0.22666468  1  1.585687  0  0.227262  0.644844  0  4.151215  0
C  C31  1  0.92648693  0.42271161  0.56251839  1  0.192734  0  0.076618  0.03478  0  3.965677  0
C  C32  1  0.06202784  0.59202932  0.42332525  1  0.059172  0  -0.083005  -0.129162  0  3.955475  0
C  C33  1  0.99347884  0.36536963  0.49990005  1  -0.036918  0  -0.016889  -0.176306  0  3.94379  0
C  C34  1  0.99451585  0.64783095  0.48705846  1  -0.165218  0  -0.019224  -0.117139  0  3.96808  0
C  C35  1  0.03683559  0.50968165  0.45140458  1  -0.166162  0  -0.015115  -0.001834  0  4.063002  0
C  C36  1  0.95036176  0.50506311  0.53643851  1  -0.124924  0  -0.018567  -0.072346  0  4.07265  0
C  C37  1  0.42543723  0.92317831  0.09007323  1  0.293643  0  0.076962  0.034732  0  3.95775  0
C  C38  1  0.58573039  0.06732102  0.91599972  1  0.0961  0  -0.08322  -0.128914  0  3.954894  0
C  C39  1  0.37175693  0.98651802  0.14698746  1  -0.110727  0  -0.013673  -0.172916  0  3.929145  0
C  C40  1  0.63784300  0.00341315  0.86042209  1  -0.193115  0  -0.018801  -0.116442  0  3.966477  0
C  C41  1  0.50721458  0.03830051  0.99919056  1  -0.195002  0  -0.015032  -0.003472  0  4.064818  0
C  C42  1  0.50211348  0.95248214  0.00471445  1  -0.104058  0  -0.018369  -0.074128  0  4.079343  0
C  C43  1  0.05423174  0.92880512  0.91854661  1  0.298288  0  0.077393  0.034389  0  3.960956  0
C  C44  1  0.93107006  0.06526985  0.09100174  1  0.013281  0  -0.085441  -0.131785  0  3.959032  0
C  C45  1  0.98864718  0.99591856  0.86816493  1  -0.129123  0  -0.016053  -0.173069  0  3.931161  0
C  C46  1  0.99796383  0.99751480  0.13945364  1  -0.174518  0  -0.018584  -0.117648  0  3.957234  0
C  C47  1  0.95251762  0.04025125  0.00980911  1  -0.120538  0  -0.015846  -0.000131  0  4.061868  0
C  C48  1  0.03561329  0.95346938  0.99870094  1  -0.146274  0  -0.017638  -0.073557  0  4.067791  0
C  C49  1  0.41710450  0.59572703  0.55913378  1  0.301282  0  0.077027  0.035707  0  3.952712  0
C  C50  1  0.59585646  0.41838885  0.42671222  1  0.053409  0  -0.086133  -0.131317  0  3.960489  0
C  C51  1  0.36656083  0.64601634  0.49326645  1  -0.11884  0  -0.013462  -0.17202  0  3.917722  0
C  C52  1  0.64397162  0.36965795  0.49411647  1  -0.188649  0  -0.019482  -0.12235  0  3.958411  0
C  C53  1  0.51186379  0.50016092  0.45167016  1  -0.16818  0  -0.017339  -0.005376  0  4.065792  0
C  C54  1  0.49876665  0.51149194  0.53754500  1  -0.144557  0  -0.018112  -0.077438  0  4.078125  0
C  C55  1  0.04355795  0.60688226  0.89999911  1  0.042126  0  -0.074881  -0.11909  0  3.902866  0
C  C56  1  0.89334436  0.62125765  0.89084650  1  0.087564  0  -0.091459  -0.154778  0  3.979625  0
C  C57  1  0.88516525  0.54075077  0.97179231  1  -0.138212  0  -0.010761  0.072311  0  3.942081  0
C  C58  1  0.95539359  0.48853494  0.02126648  1  0.021877  0  -0.004255  0.045088  0  3.967953  0
C  C59  1  0.94833100  0.40559566  0.10435549  1  -0.006134  0  -0.083453  -0.131435  0  3.934443  0
C  C60  1  0.09916998  0.39023900  0.11293110  1  0.064437  0  -0.091303  -0.155587  0  3.977219  0
C  C61  1  0.10782911  0.47066945  0.03165975  1  -0.143834  0  -0.009276  0.067767  0  3.946587  0
C  C62  1  0.03679243  0.52353186  0.98286346  1  0.031693  0  -0.001744  0.048587  0  3.952805  0
C  C63  1  0.97344123  0.65452938  0.85487802  1  -0.0856  0  -0.014301  -0.020583  0  3.97513  0
C  C64  1  0.01854552  0.35762720  0.14939378  1  -0.060986  0  -0.015238  -0.018525  0  3.978606  0
C  C65  1  0.41665856  0.05730671  0.43127498  1  0.217176  0  0.07469  0.03181  0  3.972542  0
C  C66  1  0.59400431  0.93603080  0.55389804  1  0.044304  0  -0.082592  -0.126627  0  3.956804  0
C  C67  1  0.36624049  0.99137033  0.49777609  1  -0.057759  0  -0.016309  -0.179014  0  3.941579  0
C  C68  1  0.64292789  0.00276986  0.48706557  1  -0.161398  0  -0.020212  -0.117033  0  3.970924  0
C  C69  1  0.51105457  0.95650988  0.53337673  1  -0.152638  0  -0.014579  -0.00554  0  4.068017  0
C  C70  1  0.49933750  0.03888471  0.45055555  1  -0.132321  0  -0.019527  -0.073512  0  4.078952  0
S  S71  1  0.08738671  0.41225817  0.40720413  1  0.324739  0  0.126004  0.194024  0  2.74394  0
S  S72  1  0.90031829  0.60155474  0.58150564  1  0.315713  0  0.100771  0.159993  0  2.740064  0
S  S73  1  0.41609563  0.08240819  0.09663398  1  0.358769  0  0.132541  0.207542  0  2.778404  0
S  S74  1  0.59269051  0.90820364  0.90750754  1  0.310416  0  0.103799  0.164494  0  2.751927  0
S  S75  1  0.90187976  0.09064881  0.91990557  1  0.307862  0  0.117269  0.178869  0  2.722164  0
S  S76  1  0.08761095  0.90346498  0.08713902  1  0.319088  0  0.110142  0.175937  0  2.731829  0
S  S77  1  0.42116058  0.59071948  0.40228768  1  0.339409  0  0.126544  0.19804  0  2.757565  0
S  S78  1  0.58834339  0.42189196  0.58793422  1  0.35364  0  0.117287  0.194445  0  2.786249  0
S  S79  1  0.42044830  0.90480012  0.58549465  1  0.34536  0  0.140306  0.221551  0  2.761988  0
S  S80  1  0.58968024  0.09084444  0.39859045  1  0.298206  0  0.095015  0.152085  0  2.726725  0
Br  Br81  1  0.21865657  0.51021883  0.98341082  1  -0.024487  0  0.043717  -0.038098  0  1.415878  0
Br  Br82  1  0.77592881  0.49907277  0.01736943  1  -0.069315  0  0.018628  -0.074583  0  1.33495  0
N  N83  1  0.83954654  0.40162286  0.64818367  1  0.396986  0  0.066011  0.543488  0  4.212499  0
N  N84  1  0.40809705  0.83420941  0.11308181  1  0.393815  0  0.063465  0.538805  0  4.215689  0
N  N85  1  0.13539902  0.83992729  0.89410208  1  0.41278  0  0.064877  0.537506  0  4.219627  0
N  N86  1  0.39442961  0.62362091  0.64236679  1  0.400223  0  0.063755  0.539713  0  4.207924  0
N  N87  1  0.38920552  0.13933190  0.34858827  1  0.422872  0  0.066314  0.548161  0  4.21516  0
O  O88  1  0.92369116  0.77556518  0.55325248  1  -1.177447  0  -0.356225  -0.616458  0  2.292887  0
O  O89  1  0.24770099  0.05536513  0.27272558  1  -1.169985  0  -0.349568  -0.605197  0  2.281016  0
O  O90  1  0.06861069  0.23449120  0.43731665  1  -1.176571  0  -0.35175  -0.606701  0  2.283042  0
O  O91  1  0.75716134  0.94131040  0.72903464  1  -1.176604  0  -0.357909  -0.617942  0  2.295043  0
O  O92  1  0.05318883  0.77182187  0.73468892  1  -1.176489  0  -0.347708  -0.60292  0  2.269591  0
O  O93  1  0.76606865  0.07310245  0.42119546  1  -1.182645  0  -0.353353  -0.617052  0  2.26243  0
O  O94  1  0.94003067  0.23866532  0.26697884  1  -1.173559  0  -0.349952  -0.611359  0  2.264277  0
O  O95  1  0.23815261  0.92601835  0.56909640  1  -1.171324  0  -0.3439  -0.597305  0  2.25495  0
O  O96  1  0.24153451  0.76380905  0.42604938  1  -1.175747  0  -0.34696  -0.606834  0  2.254153  0
O  O97  1  0.92133641  0.06860101  0.74385722  1  -1.173878  0  -0.349157  -0.609507  0  2.250225  0
O  O98  1  0.76448998  0.24522488  0.56489006  1  -1.168421  0  -0.352425  -0.612865  0  2.263511  0
O  O99  1  0.06893829  0.92968150  0.26021583  1  -1.169643  0  -0.351935  -0.613122  0  2.262245  0
O  O100  1  0.06032419  0.93075493  0.73904653  1  -1.175988  0  -0.354378  -0.605543  0  2.289302  0
O  O101  1  0.76960992  0.24342796  0.42497917  1  -1.182291  0  -0.359813  -0.614273  0  2.259157  0
O  O102  1  0.93358467  0.07090950  0.26091391  1  -1.185854  0  -0.358723  -0.612802  0  2.261934  0
O  O103  1  0.23210486  0.76488384  0.56818716  1  -1.170113  0  -0.357233  -0.606704  0  2.293112  0
O  O104  1  0.91618323  0.77809255  0.72668123  1  -1.180326  0  -0.362161  -0.618811  0  2.303788  0
O  O105  1  0.23929042  0.06195797  0.43541568  1  -1.182765  0  -0.361337  -0.61055  0  2.301769  0
O  O106  1  0.07918165  0.22937278  0.27365196  1  -1.174485  0  -0.361628  -0.615943  0  2.303422  0
O  O107  1  0.76346136  0.93843468  0.55627582  1  -1.181486  0  -0.36218  -0.611308  0  2.287303  0
O  O108  1  0.75761010  0.07686108  0.73517425  1  -1.173354  0  -0.355985  -0.608263  0  2.252416  0
O  O109  1  0.06700268  0.76875467  0.41871399  1  -1.175497  0  -0.3549  -0.607609  0  2.248666  0
O  O110  1  0.24316915  0.92256845  0.26557539  1  -1.167362  0  -0.35555  -0.604262  0  2.28629  0
O  O111  1  0.92776062  0.23851966  0.57459473  1  -1.174039  0  -0.353609  -0.604838  0  2.267763  0
O  O112  1  0.81680273  0.06782160  0.55498197  1  -1.22238  0  -0.693581  -1.069837  0  2.35397  0
O  O113  1  0.05809226  0.05935025  0.56444940  1  -1.238611  0  -0.692336  -1.072112  0  2.35523  0
O  O114  1  0.06562976  0.05766616  0.31959762  1  -1.235091  0  -0.694101  -1.071889  0  2.362446  0
O  O115  1  0.05602752  0.82321062  0.55405581  1  -1.252475  0  -0.694672  -1.073582  0  2.363218  0
O  O116  1  0.13363175  0.95308701  0.45663336  1  -1.202335  0  -0.787705  -1.149605  0  2.116049  0
O  O117  1  0.95578846  0.96020724  0.44930432  1  -1.202202  0  -0.789033  -1.148951  0  2.120516  0
O  O118  1  0.95698850  0.13401617  0.45737044  1  -1.197642  0  -0.788882  -1.149423  0  2.121998  0
O  O119  1  0.95010814  0.96109302  0.63033022  1  -1.200278  0  -0.789176  -1.150443  0  2.122793  0
O  O120  1  0.84753323  0.36935301  0.72935829  1  -0.424094  0  -0.129961  -0.326653  0  1.846769  0
O  O121  1  0.76502596  0.42089283  0.63263033  1  -0.418776  0  -0.117193  -0.316356  0  1.920256  0
O  O122  1  0.38861307  0.83131011  0.05123405  1  -0.433604  0  -0.134182  -0.329162  0  1.84665  0
O  O123  1  0.41783906  0.76826609  0.18912593  1  -0.421606  0  -0.121648  -0.321807  0  1.930932  0
O  O124  1  0.22153955  0.83878352  0.86457663  1  -0.42343  0  -0.125869  -0.318976  0  1.84762  0
O  O125  1  0.11142931  0.77283212  0.90855460  1  -0.421985  0  -0.109069  -0.30532  0  1.936233  0
O  O126  1  0.38009921  0.56048930  0.72339889  1  -0.439869  0  -0.132746  -0.3305  0  1.878494  0
O  O127  1  0.39619288  0.70430090  0.62541681  1  -0.429342  0  -0.116851  -0.31671  0  1.951358  0
O  O128  1  0.34230323  0.22135589  0.36112004  1  -0.424921  0  -0.128718  -0.328081  0  1.866706  0
O  O129  1  0.41909670  0.12055959  0.27218979  1  -0.431007  0  -0.121936  -0.324748  0  1.921182  0
