# generated using pymatgen
data_H6PdC8(N2O)2
_symmetry_space_group_name_H-M   'P 1'
_cell_length_a   16.36997836
_cell_length_b   16.36997742
_cell_length_c   16.36997564
_cell_angle_alpha   90.00000026
_cell_angle_beta   89.99999650
_cell_angle_gamma   89.99997735
_symmetry_Int_Tables_number   1
_chemical_formula_structural   H6PdC8(N2O)2
_chemical_formula_sum   'H72 Pd12 C96 N48 O24'
_cell_volume   4386.76347517
_cell_formula_units_Z   12
loop_
 _symmetry_equiv_pos_site_id
 _symmetry_equiv_pos_as_xyz
  1  'x, y, z'
loop_
 _atom_site_type_symbol
 _atom_site_label
 _atom_site_symmetry_multiplicity
 _atom_site_fract_x
 _atom_site_fract_y
 _atom_site_fract_z
 _atom_site_occupancy
 _atom_site_pbe_bader_charge
 _atom_site_pbe_bader_spin_density
 _atom_site_pbe_cm5_charge
 _atom_site_pbe_ddec_charge
 _atom_site_pbe_ddec_spin_density
 _atom_site_pbe_ddec_sum_bond_order
 _atom_site_pbe_magmom
H  H0  1  0.57384849  0.76142855  0.41594013  1  0.14273  0  0.12693  0.109273  0  0.961255  0
H  H1  1  0.92615378  0.73857445  0.41593950  1  0.134825  0  0.126956  0.10932  0  0.961273  0
H  H2  1  0.92615379  0.76142787  0.08406057  1  0.134787  0  0.126955  0.109292  0  0.961284  0
H  H3  1  0.57384911  0.73857329  0.08406059  1  0.134854  0  0.126957  0.109321  0  0.961276  0
H  H4  1  0.41593994  0.57384860  0.76142873  1  0.142729  0  0.126942  0.109277  0  0.961265  0
H  H5  1  0.41593987  0.92615330  0.73857470  1  0.134825  0  0.126955  0.109297  0  0.961318  0
H  H6  1  0.08406038  0.92615337  0.76142813  1  0.134784  0  0.126952  0.109286  0  0.961282  0
H  H7  1  0.08406045  0.57384867  0.73857288  1  0.134848  0  0.126952  0.109324  0  0.961275  0
H  H8  1  0.76142852  0.41593995  0.57384872  1  0.142733  0  0.126937  0.109268  0  0.961271  0
H  H9  1  0.73857448  0.41593995  0.92615346  1  0.134823  0  0.126969  0.109309  0  0.961295  0
H  H10  1  0.76142796  0.08406044  0.92615407  1  0.134784  0  0.126949  0.109281  0  0.961288  0
H  H11  1  0.73857272  0.08406045  0.57384872  1  0.134846  0  0.126946  0.109309  0  0.961276  0
H  H12  1  0.26142854  0.07384917  0.58406073  1  0.142742  0  0.12693  0.10927  0  0.961276  0
H  H13  1  0.23857260  0.42615204  0.58406073  1  0.134816  0  0.126951  0.109298  0  0.961292  0
H  H14  1  0.26142846  0.42615326  0.91593966  1  0.134774  0  0.12695  0.109278  0  0.961278  0
H  H15  1  0.23857266  0.07384917  0.91593966  1  0.134838  0  0.126948  0.109311  0  0.961282  0
H  H16  1  0.07384902  0.91593955  0.23857274  1  0.134837  0  0.126951  0.1093  0  0.961284  0
H  H17  1  0.42615309  0.91593948  0.26142860  1  0.134775  0  0.126933  0.109275  0  0.961272  0
H  H18  1  0.42615255  0.58406120  0.23857273  1  0.134823  0  0.126957  0.109331  0  0.961244  0
H  H19  1  0.07384909  0.58406066  0.26142861  1  0.142739  0  0.126934  0.109274  0  0.961283  0
H  H20  1  0.91593945  0.26142840  0.42615332  1  0.134775  0  0.126935  0.109284  0  0.961275  0
H  H21  1  0.91593946  0.23857254  0.07384920  1  0.134838  0  0.126947  0.10931  0  0.961289  0
H  H22  1  0.58406058  0.26142847  0.07384921  1  0.142743  0  0.12693  0.109272  0  0.961282  0
H  H23  1  0.58406119  0.23857260  0.42615211  1  0.134822  0  0.126953  0.109284  0  0.961295  0
H  H24  1  0.42615261  0.23857263  0.58406072  1  0.134814  0  0.126952  0.109321  0  0.961252  0
H  H25  1  0.07384914  0.26142857  0.58406073  1  0.142741  0  0.12693  0.109274  0  0.961276  0
H  H26  1  0.07384914  0.23857271  0.91593966  1  0.134842  0  0.126948  0.109313  0  0.961286  0
H  H27  1  0.42615320  0.26142850  0.91593965  1  0.134774  0  0.12695  0.109279  0  0.961273  0
H  H28  1  0.58406116  0.42615197  0.23857273  1  0.134824  0  0.126955  0.109308  0  0.961282  0
H  H29  1  0.58406062  0.07384910  0.26142859  1  0.14274  0  0.126934  0.109272  0  0.961284  0
H  H30  1  0.91593949  0.07384904  0.23857272  1  0.134842  0  0.126949  0.109299  0  0.96129  0
H  H31  1  0.91593942  0.42615313  0.26142858  1  0.134776  0  0.126934  0.109276  0  0.96127  0
H  H32  1  0.23857258  0.58406124  0.42615212  1  0.134822  0  0.126954  0.109284  0  0.961294  0
H  H33  1  0.26142845  0.58406062  0.07384922  1  0.142743  0  0.12693  0.109273  0  0.961281  0
H  H34  1  0.23857252  0.91593952  0.07384922  1  0.134837  0  0.126946  0.10931  0  0.961284  0
H  H35  1  0.26142837  0.91593951  0.42615335  1  0.134775  0  0.126948  0.109289  0  0.961287  0
H  H36  1  0.73857439  0.92615324  0.41593951  1  0.134827  0  0.126973  0.109322  0  0.961286  0
H  H37  1  0.76142849  0.57384853  0.41593951  1  0.142731  0  0.126937  0.10927  0  0.961294  0
H  H38  1  0.73857325  0.57384854  0.08406058  1  0.134848  0  0.126954  0.109311  0  0.961279  0
H  H39  1  0.76142782  0.92615385  0.08406058  1  0.134788  0  0.126952  0.109281  0  0.961291  0
H  H40  1  0.92615390  0.08406041  0.76142811  1  0.134788  0  0.126945  0.109273  0  0.96129  0
H  H41  1  0.57384861  0.08406048  0.73857347  1  0.134852  0  0.126956  0.109325  0  0.961268  0
H  H42  1  0.57384855  0.41593937  0.76142873  1  0.142731  0  0.12693  0.109273  0  0.961274  0
H  H43  1  0.92615323  0.41593992  0.73857468  1  0.134825  0  0.126955  0.109298  0  0.961321  0
H  H44  1  0.08406042  0.73857339  0.57384875  1  0.134853  0  0.126956  0.109329  0  0.961271  0
H  H45  1  0.08406041  0.76142804  0.92615348  1  0.134784  0  0.126953  0.109284  0  0.96128  0
H  H46  1  0.41593990  0.73857455  0.92615347  1  0.134819  0  0.126963  0.109298  0  0.961319  0
H  H47  1  0.41593991  0.76142858  0.57384874  1  0.142736  0  0.126947  0.109278  0  0.96127  0
H  H48  1  0.68565500  0.68565445  0.49422368  1  0.091423  0  0.104907  0.118573  0  1.011985  0
H  H49  1  0.81435093  0.81435038  0.49422246  1  0.091553  0  0.104903  0.1186  0  1.012026  0
H  H50  1  0.81434914  0.68565320  0.00577579  1  0.091491  0  0.104888  0.118583  0  1.011969  0
H  H51  1  0.68565316  0.81434919  0.00577641  1  0.09151  0  0.104887  0.11857  0  1.011952  0
H  H52  1  0.49422347  0.68565448  0.68565464  1  0.091431  0  0.104903  0.11859  0  1.011991  0
H  H53  1  0.49422283  0.81435045  0.81435062  1  0.091545  0  0.104891  0.118581  0  1.012026  0
H  H54  1  0.00577625  0.81434932  0.68565282  1  0.091505  0  0.104898  0.118587  0  1.011958  0
H  H55  1  0.00577627  0.68565275  0.81434880  1  0.091501  0  0.104898  0.118588  0  1.011957  0
H  H56  1  0.68565442  0.49422352  0.68565463  1  0.09143  0  0.104906  0.118588  0  1.011984  0
H  H57  1  0.81435037  0.49422227  0.81435061  1  0.091548  0  0.104897  0.118589  0  1.012036  0
H  H58  1  0.68565329  0.00577629  0.81434878  1  0.091491  0  0.104889  0.118573  0  1.011973  0
H  H59  1  0.81434925  0.00577627  0.68565280  1  0.091505  0  0.104897  0.118605  0  1.011956  0
H  H60  1  0.18565444  0.18565447  0.50577656  1  0.091456  0  0.104905  0.118587  0  1.011992  0
H  H61  1  0.31434854  0.31434857  0.50577655  1  0.091515  0  0.104894  0.118574  0  1.011987  0
H  H62  1  0.18565379  0.31434738  0.99422383  1  0.091489  0  0.104908  0.118597  0  1.011968  0
H  H63  1  0.31434732  0.18565383  0.99422383  1  0.091485  0  0.104907  0.118598  0  1.01197  0
H  H64  1  0.18565428  0.99422369  0.31434744  1  0.091487  0  0.104903  0.118569  0  1.01198  0
H  H65  1  0.31434719  0.99422367  0.18565390  1  0.091485  0  0.104901  0.118587  0  1.011981  0
H  H66  1  0.31434850  0.50577706  0.31434805  1  0.091528  0  0.104892  0.118602  0  1.011933  0
H  H67  1  0.18565439  0.50577647  0.18565452  1  0.091455  0  0.104906  0.118589  0  1.011984  0
H  H68  1  0.99422363  0.18565370  0.31434741  1  0.091486  0  0.104905  0.118583  0  1.011974  0
H  H69  1  0.99422360  0.31434721  0.18565388  1  0.091485  0  0.104904  0.11859  0  1.011978  0
H  H70  1  0.50577644  0.18565440  0.18565451  1  0.091457  0  0.104905  0.118587  0  1.011986  0
H  H71  1  0.50577641  0.31434853  0.31434804  1  0.09152  0  0.104885  0.118594  0  1.011934  0
Pd  Pd72  1  0.50000112  0.75000094  0.24999975  1  0.778454  0  0.909974  0.403317  0  3.212867  0
Pd  Pd73  1  0.00000107  0.75000104  0.25000098  1  0.778432  0  0.909991  0.403293  0  3.212952  0
Pd  Pd74  1  0.24999960  0.50000125  0.74999989  1  0.77844  0  0.909949  0.403265  0  3.21288  0
Pd  Pd75  1  0.25000092  0.00000056  0.75000050  1  0.77843  0  0.909967  0.403301  0  3.212916  0
Pd  Pd76  1  0.75000093  0.25000020  0.50000133  1  0.778437  0  0.909946  0.403244  0  3.212887  0
Pd  Pd77  1  0.75000094  0.25000081  0.00000120  1  0.778445  0  0.909984  0.403312  0  3.212914  0
Pd  Pd78  1  0.50000120  0.24999964  0.74999988  1  0.778439  0  0.909976  0.403328  0  3.212871  0
Pd  Pd79  1  0.00000054  0.25000096  0.75000051  1  0.778429  0  0.90997  0.403259  0  3.212916  0
Pd  Pd80  1  0.75000027  0.50000115  0.24999974  1  0.778452  0  0.909977  0.403318  0  3.212867  0
Pd  Pd81  1  0.75000098  0.00000107  0.25000096  1  0.77845  0  0.909985  0.403291  0  3.212908  0
Pd  Pd82  1  0.25000017  0.75000099  0.50000135  1  0.778435  0  0.909954  0.403244  0  3.21289  0
Pd  Pd83  1  0.25000079  0.75000099  0.00000122  1  0.778442  0  0.909979  0.403282  0  3.212925  0
C  C84  1  0.60792796  0.71043947  0.38978920  1  0.464843  0  0.055566  0.14029  0  3.954512  0
C  C85  1  0.89207432  0.78956353  0.38978919  1  0.472687  0  0.055559  0.140271  0  3.954569  0
C  C86  1  0.89207373  0.71043819  0.11021028  1  0.472737  0  0.055577  0.140315  0  3.95458  0
C  C87  1  0.60792795  0.78956297  0.11021029  1  0.472728  0  0.055518  0.140224  0  3.954524  0
C  C88  1  0.38978962  0.60792807  0.71043965  1  0.464833  0  0.055595  0.140363  0  3.954476  0
C  C89  1  0.38978895  0.89207446  0.78956317  1  0.472687  0  0.055574  0.140325  0  3.954514  0
C  C90  1  0.11021009  0.89207390  0.71043844  1  0.472779  0  0.055557  0.140314  0  3.95459  0
C  C91  1  0.11021014  0.60792812  0.78956318  1  0.472731  0  0.055506  0.140195  0  3.954594  0
C  C92  1  0.71043945  0.38978904  0.60792758  1  0.464848  0  0.055563  0.140324  0  3.954516  0
C  C93  1  0.78956294  0.38978902  0.89207400  1  0.472698  0  0.05557  0.140309  0  3.954486  0
C  C94  1  0.71043828  0.11021015  0.89207400  1  0.472783  0  0.055566  0.140319  0  3.954602  0
C  C95  1  0.78956301  0.11021075  0.60792758  1  0.472742  0  0.05553  0.14026  0  3.954561  0
C  C96  1  0.21043946  0.10792803  0.61021104  1  0.464847  0  0.055576  0.14033  0  3.954499  0
C  C97  1  0.28956290  0.39207379  0.61021043  1  0.472698  0  0.055551  0.140235  0  3.954546  0
C  C98  1  0.21043878  0.39207320  0.88978996  1  0.472767  0  0.055599  0.140384  0  3.954566  0
C  C99  1  0.28956234  0.10792740  0.88978934  1  0.472736  0  0.055528  0.140244  0  3.954541  0
C  C100  1  0.10792787  0.88978984  0.28956243  1  0.472728  0  0.055532  0.140261  0  3.954504  0
C  C101  1  0.39207303  0.88978979  0.21043891  1  0.472772  0  0.055596  0.140379  0  3.95459  0
C  C102  1  0.39207369  0.61021091  0.28956303  1  0.472696  0  0.055531  0.140219  0  3.954506  0
C  C103  1  0.10792793  0.61021096  0.21043953  1  0.464845  0  0.05557  0.140324  0  3.954494  0
C  C104  1  0.88978976  0.21043872  0.39207325  1  0.472765  0  0.055578  0.140305  0  3.95455  0
C  C105  1  0.88978914  0.28956223  0.10792744  1  0.472738  0  0.055522  0.140234  0  3.954554  0
C  C106  1  0.61021090  0.21043939  0.10792806  1  0.464846  0  0.055575  0.140328  0  3.954515  0
C  C107  1  0.61021088  0.28956289  0.39207387  1  0.472694  0  0.05561  0.140381  0  3.954569  0
C  C108  1  0.39207375  0.28956294  0.61021043  1  0.472703  0  0.05552  0.140192  0  3.954465  0
C  C109  1  0.10792800  0.21043949  0.61021105  1  0.464846  0  0.055567  0.140306  0  3.954514  0
C  C110  1  0.10792798  0.28956238  0.88978935  1  0.472733  0  0.055517  0.140217  0  3.954566  0
C  C111  1  0.39207314  0.21043882  0.88978995  1  0.472766  0  0.055597  0.140385  0  3.954568  0
C  C112  1  0.61021086  0.39207373  0.28956303  1  0.472695  0  0.055544  0.14026  0  3.954507  0
C  C113  1  0.61021092  0.10792795  0.21043951  1  0.464843  0  0.055572  0.14033  0  3.954486  0
C  C114  1  0.88978917  0.10792789  0.28956241  1  0.472738  0  0.055551  0.140272  0  3.954499  0
C  C115  1  0.88978973  0.39207306  0.21043889  1  0.472773  0  0.055597  0.140382  0  3.954585  0
C  C116  1  0.28956286  0.61021093  0.39207388  1  0.472695  0  0.055609  0.140384  0  3.954568  0
C  C117  1  0.21043937  0.61021094  0.10792807  1  0.464847  0  0.055576  0.140328  0  3.954514  0
C  C118  1  0.28956221  0.88978920  0.10792746  1  0.472738  0  0.055522  0.140228  0  3.954552  0
C  C119  1  0.21043870  0.88978982  0.39207327  1  0.472765  0  0.055565  0.140279  0  3.954572  0
C  C120  1  0.78956347  0.89207438  0.38978920  1  0.472682  0  0.055553  0.140282  0  3.95453  0
C  C121  1  0.71043941  0.60792801  0.38978981  1  0.464829  0  0.055556  0.140304  0  3.954558  0
C  C122  1  0.78956292  0.60792738  0.11021089  1  0.47275  0  0.055533  0.140258  0  3.954507  0
C  C123  1  0.71043815  0.89207440  0.11021028  1  0.472771  0  0.055581  0.140324  0  3.954548  0
C  C124  1  0.89207383  0.11021073  0.71043842  1  0.472716  0  0.055571  0.140327  0  3.954559  0
C  C125  1  0.60792806  0.11021017  0.78956316  1  0.472732  0  0.055515  0.140216  0  3.954547  0
C  C126  1  0.60792801  0.38978967  0.71043965  1  0.464829  0  0.055602  0.14036  0  3.954479  0
C  C127  1  0.89207438  0.38978900  0.78956315  1  0.472685  0  0.055573  0.14032  0  3.954522  0
C  C128  1  0.11021011  0.78956307  0.60792821  1  0.472729  0  0.055507  0.140199  0  3.954578  0
C  C129  1  0.11021012  0.71043835  0.89207402  1  0.472744  0  0.055567  0.140331  0  3.95458  0
C  C130  1  0.38978897  0.78956302  0.89207462  1  0.472687  0  0.055549  0.140296  0  3.954512  0
C  C131  1  0.38978899  0.71043951  0.60792820  1  0.464844  0  0.055571  0.140335  0  3.954489  0
C  C132  1  0.62549306  0.62549310  0.27271694  1  1.741755  0  0.288598  0.57173  0  4.160006  0
C  C133  1  0.66944607  0.66944612  0.43192854  1  -0.004808  0  -0.122824  -0.257838  0  4.06654  0
C  C134  1  0.87451105  0.87451111  0.27271755  1  1.74197  0  0.288575  0.57166  0  4.160299  0
C  C135  1  0.83055743  0.83055749  0.43192793  1  0.000126  0  -0.122816  -0.257889  0  4.06659  0
C  C136  1  0.87450988  0.62549183  0.22728315  1  1.741863  0  0.28853  0.571638  0  4.160222  0
C  C137  1  0.83055808  0.66944425  0.06807094  1  -0.00478  0  -0.122796  -0.257859  0  4.066548  0
C  C138  1  0.62549179  0.87450994  0.22728316  1  1.741834  0  0.28853  0.571648  0  4.160225  0
C  C139  1  0.66944421  0.83055813  0.06807155  1  6.1e-05  0  -0.122771  -0.257796  0  4.066524  0
C  C140  1  0.27271677  0.62549317  0.62549329  1  1.74175  0  0.288588  0.571715  0  4.160019  0
C  C141  1  0.43192834  0.66944617  0.66944631  1  -0.004806  0  -0.122857  -0.257938  0  4.06651  0
C  C142  1  0.27271733  0.87451123  0.87451076  1  1.741979  0  0.288566  0.571625  0  4.160342  0
C  C143  1  0.43192830  0.83055757  0.83055773  1  0.000141  0  -0.122823  -0.257911  0  4.066536  0
C  C144  1  0.22728294  0.87451002  0.62549146  1  1.741883  0  0.288544  0.571756  0  4.160201  0
C  C145  1  0.06807138  0.83055764  0.66944449  1  -0.004822  0  -0.122787  -0.257805  0  4.06656  0
C  C146  1  0.22728298  0.62549135  0.87451015  1  1.741892  0  0.288538  0.571695  0  4.160222  0
C  C147  1  0.06807140  0.66944441  0.83055774  1  4.2e-05  0  -0.122786  -0.257809  0  4.066565  0
C  C148  1  0.62549312  0.27271681  0.62549328  1  1.741752  0  0.288594  0.57173  0  4.16001  0
C  C149  1  0.66944611  0.43192838  0.66944630  1  -0.0048  0  -0.122839  -0.257903  0  4.066517  0
C  C150  1  0.87451115  0.27271737  0.87451135  1  1.741977  0  0.288594  0.571695  0  4.160347  0
C  C151  1  0.83055749  0.43192835  0.83055711  1  0.000128  0  -0.122818  -0.257895  0  4.066547  0
C  C152  1  0.62549129  0.22728303  0.87450953  1  1.741894  0  0.288541  0.571689  0  4.160235  0
C  C153  1  0.66944434  0.06807082  0.83055772  1  4.1e-05  0  -0.12279  -0.257809  0  4.066566  0
C  C154  1  0.87450995  0.22728298  0.62549144  1  1.741883  0  0.288547  0.571737  0  4.160193  0
C  C155  1  0.83055757  0.06807140  0.66944446  1  -0.004771  0  -0.122818  -0.257902  0  4.066525  0
C  C156  1  0.12549309  0.12549312  0.72728330  1  1.741754  0  0.288551  0.571613  0  4.159876  0
C  C157  1  0.16944611  0.16944614  0.56807170  1  -0.004824  0  -0.122823  -0.257891  0  4.06656  0
C  C158  1  0.37451048  0.37451052  0.72728268  1  1.741989  0  0.288566  0.571613  0  4.160355  0
C  C159  1  0.33055747  0.33055751  0.56807109  1  0.000128  0  -0.122775  -0.257768  0  4.066405  0
C  C160  1  0.12549182  0.37450935  0.77271709  1  1.741876  0  0.288545  0.571744  0  4.159998  0
C  C161  1  0.16944485  0.33055693  0.93192869  1  5.9e-05  0  -0.122814  -0.257871  0  4.066555  0
C  C162  1  0.37450930  0.12549185  0.77271708  1  1.741876  0  0.288546  0.571756  0  4.159995  0
C  C163  1  0.33055688  0.16944489  0.93192868  1  -0.004813  0  -0.12282  -0.257883  0  4.066532  0
C  C164  1  0.12549175  0.77271760  0.37450941  1  1.741888  0  0.288546  0.57173  0  4.159977  0
C  C165  1  0.16944536  0.93192917  0.33055638  1  -0.004827  0  -0.122797  -0.25779  0  4.066466  0
C  C166  1  0.37450920  0.77271694  0.12549193  1  1.741883  0  0.288578  0.571835  0  4.159954  0
C  C167  1  0.33055675  0.93192914  0.16944496  1  6.3e-05  0  -0.122824  -0.257874  0  4.06653  0
C  C168  1  0.37451042  0.72728254  0.37451063  1  1.741984  0  0.288561  0.5716  0  4.160395  0
C  C169  1  0.33055743  0.56807158  0.33055760  1  0.000139  0  -0.122836  -0.257947  0  4.06653  0
C  C170  1  0.12549299  0.72728320  0.12549316  1  1.741751  0  0.288559  0.571638  0  4.159981  0
C  C171  1  0.16944604  0.56807161  0.16944619  1  -0.004827  0  -0.12284  -0.257913  0  4.066524  0
C  C172  1  0.77271754  0.12549177  0.37450939  1  1.741888  0  0.288546  0.571724  0  4.159975  0
C  C173  1  0.93192911  0.16944538  0.33055636  1  -0.004813  0  -0.12281  -0.257838  0  4.066473  0
C  C174  1  0.77271750  0.37450922  0.12549192  1  1.741877  0  0.288574  0.571825  0  4.159963  0
C  C175  1  0.93192908  0.33055678  0.16944494  1  6.4e-05  0  -0.122822  -0.257874  0  4.066524  0
C  C176  1  0.72728316  0.12549300  0.12549314  1  1.741748  0  0.288559  0.57163  0  4.160002  0
C  C177  1  0.56807157  0.16944606  0.16944617  1  -0.004831  0  -0.12284  -0.257914  0  4.06652  0
C  C178  1  0.72728310  0.37451045  0.37451062  1  1.741986  0  0.288556  0.571595  0  4.160409  0
C  C179  1  0.56807154  0.33055746  0.33055759  1  0.000145  0  -0.12283  -0.257941  0  4.066524  0
N  N180  1  0.58747039  0.69002649  0.31343600  1  -1.139435  0  -0.376177  -0.289722  0  3.582516  0
N  N181  1  0.91253189  0.80997711  0.31343477  1  -1.139539  0  -0.376199  -0.289728  0  3.582724  0
N  N182  1  0.91253130  0.69002582  0.18656470  1  -1.139434  0  -0.376148  -0.289676  0  3.582486  0
N  N183  1  0.58747037  0.80997596  0.18656471  1  -1.139535  0  -0.376186  -0.289792  0  3.582604  0
N  N184  1  0.31343583  0.58747051  0.69002606  1  -1.139414  0  -0.376197  -0.289785  0  3.582573  0
N  N185  1  0.31343515  0.91253205  0.80997676  1  -1.139549  0  -0.376223  -0.28977  0  3.582661  0
N  N186  1  0.18656510  0.91253146  0.69002546  1  -1.139432  0  -0.376177  -0.289796  0  3.582584  0
N  N187  1  0.18656455  0.58747054  0.80997554  1  -1.139531  0  -0.376156  -0.289752  0  3.582603  0
N  N188  1  0.69002649  0.31343585  0.58747062  1  -1.139427  0  -0.376181  -0.28973  0  3.582523  0
N  N189  1  0.80997655  0.31343461  0.91253218  1  -1.13955  0  -0.376211  -0.289752  0  3.582628  0
N  N190  1  0.69002589  0.18656457  0.91253158  1  -1.139419  0  -0.376154  -0.289747  0  3.582522  0
N  N191  1  0.80997597  0.18656455  0.58747061  1  -1.139554  0  -0.376163  -0.289785  0  3.582632  0
N  N192  1  0.19002648  0.08747046  0.68656485  1  -1.139433  0  -0.37618  -0.28972  0  3.582525  0
N  N193  1  0.30997587  0.41253197  0.68656485  1  -1.139532  0  -0.376148  -0.289643  0  3.582603  0
N  N194  1  0.19002519  0.41253138  0.81343554  1  -1.139428  0  -0.376186  -0.289794  0  3.582575  0
N  N195  1  0.30997593  0.08747043  0.81343553  1  -1.139554  0  -0.376168  -0.28979  0  3.582584  0
N  N196  1  0.08747032  0.81343605  0.30997541  1  -1.139549  0  -0.376191  -0.289795  0  3.582572  0
N  N197  1  0.41253123  0.81343537  0.19002532  1  -1.139434  0  -0.376189  -0.289841  0  3.582635  0
N  N198  1  0.41253186  0.68656470  0.30997602  1  -1.139531  0  -0.376173  -0.289708  0  3.5826  0
N  N199  1  0.08747035  0.68656477  0.19002655  1  -1.139435  0  -0.376168  -0.289702  0  3.582521  0
N  N200  1  0.81343536  0.19002515  0.41253144  1  -1.13944  0  -0.376165  -0.289736  0  3.582635  0
N  N201  1  0.81343595  0.30997583  0.08747048  1  -1.139568  0  -0.376185  -0.289807  0  3.582617  0
N  N202  1  0.68656470  0.19002639  0.08747048  1  -1.139432  0  -0.376176  -0.289712  0  3.582524  0
N  N203  1  0.68656528  0.30997586  0.41253205  1  -1.139532  0  -0.376143  -0.289649  0  3.58258  0
N  N204  1  0.41253192  0.30997591  0.68656485  1  -1.139531  0  -0.376182  -0.289737  0  3.582628  0
N  N205  1  0.08747043  0.19002651  0.68656486  1  -1.139433  0  -0.376167  -0.289687  0  3.582488  0
N  N206  1  0.08747040  0.30997598  0.81343554  1  -1.139549  0  -0.376164  -0.289747  0  3.582545  0
N  N207  1  0.41253133  0.19002523  0.81343553  1  -1.139427  0  -0.376186  -0.289797  0  3.582567  0
N  N208  1  0.68656526  0.41253189  0.30997601  1  -1.139529  0  -0.376178  -0.289717  0  3.582596  0
N  N209  1  0.68656472  0.08747097  0.19002653  1  -1.139434  0  -0.376163  -0.289696  0  3.582511  0
N  N210  1  0.81343599  0.08747033  0.30997539  1  -1.139569  0  -0.376194  -0.289767  0  3.58255  0
N  N211  1  0.81343532  0.41253126  0.19002530  1  -1.139439  0  -0.376189  -0.289841  0  3.582633  0
N  N212  1  0.30997583  0.68656533  0.41253207  1  -1.139539  0  -0.376149  -0.289664  0  3.582593  0
N  N213  1  0.19002638  0.68656475  0.08747050  1  -1.139432  0  -0.376176  -0.289712  0  3.582523  0
N  N214  1  0.30997581  0.81343600  0.08747050  1  -1.139561  0  -0.37618  -0.289797  0  3.58261  0
N  N215  1  0.19002512  0.81343542  0.41253146  1  -1.139439  0  -0.376163  -0.289727  0  3.582637  0
N  N216  1  0.80997645  0.91253195  0.31343477  1  -1.139555  0  -0.376187  -0.289739  0  3.582652  0
N  N217  1  0.69002644  0.58747044  0.31343600  1  -1.139423  0  -0.376187  -0.28977  0  3.58256  0
N  N218  1  0.80997590  0.58747041  0.18656470  1  -1.139551  0  -0.376179  -0.289756  0  3.582584  0
N  N219  1  0.69002577  0.91253136  0.18656471  1  -1.139438  0  -0.37615  -0.289683  0  3.582476  0
N  N220  1  0.91253139  0.18656514  0.69002543  1  -1.139412  0  -0.376158  -0.289699  0  3.582517  0
N  N221  1  0.58747048  0.18656459  0.80997553  1  -1.139544  0  -0.376188  -0.289799  0  3.582625  0
N  N222  1  0.58747046  0.31343587  0.69002606  1  -1.139414  0  -0.376198  -0.28979  0  3.582574  0
N  N223  1  0.91253197  0.31343458  0.80997674  1  -1.139537  0  -0.376219  -0.289769  0  3.582647  0
N  N224  1  0.18656452  0.80997604  0.58747063  1  -1.139535  0  -0.376155  -0.289763  0  3.582603  0
N  N225  1  0.18656514  0.69002596  0.91253159  1  -1.139393  0  -0.376163  -0.28977  0  3.582531  0
N  N226  1  0.31343456  0.80997662  0.91253220  1  -1.139548  0  -0.376182  -0.289663  0  3.582594  0
N  N227  1  0.31343581  0.69002655  0.58747063  1  -1.13942  0  -0.376179  -0.289708  0  3.582503  0
O  O228  1  0.60336597  0.60336602  0.20379748  1  -1.156335  0  -0.338309  -0.553774  0  2.104738  0
O  O229  1  0.89663936  0.89663942  0.20379869  1  -1.156377  0  -0.338329  -0.553758  0  2.10484  0
O  O230  1  0.89663820  0.60336229  0.29620200  1  -1.156344  0  -0.338284  -0.553728  0  2.104796  0
O  O231  1  0.60336225  0.89663826  0.29620201  1  -1.156319  0  -0.338285  -0.553728  0  2.104792  0
O  O232  1  0.20379732  0.60336610  0.60336620  1  -1.156339  0  -0.338317  -0.553782  0  2.104747  0
O  O233  1  0.20379848  0.89663956  0.89663969  1  -1.156386  0  -0.338267  -0.553695  0  2.104855  0
O  O234  1  0.29620178  0.89663832  0.60336253  1  -1.156372  0  -0.338252  -0.553733  0  2.104808  0
O  O235  1  0.29620183  0.60336241  0.89663786  1  -1.156373  0  -0.338258  -0.5537  0  2.104848  0
O  O236  1  0.60336604  0.20379735  0.60336557  1  -1.156342  0  -0.33832  -0.553786  0  2.104734  0
O  O237  1  0.89663948  0.20379852  0.89663967  1  -1.156389  0  -0.338306  -0.55374  0  2.104904  0
O  O238  1  0.60336235  0.29620188  0.89663785  1  -1.156368  0  -0.338255  -0.553695  0  2.104847  0
O  O239  1  0.89663825  0.29620182  0.60336251  1  -1.156374  0  -0.338252  -0.553734  0  2.104816  0
O  O240  1  0.10336539  0.10336543  0.79620277  1  -1.156355  0  -0.338286  -0.55372  0  2.1046  0
O  O241  1  0.39663940  0.39663944  0.79620154  1  -1.15637  0  -0.338299  -0.553697  0  2.104857  0
O  O242  1  0.10336290  0.39663767  0.70379885  1  -1.156362  0  -0.338285  -0.553777  0  2.104709  0
O  O243  1  0.39663762  0.10336292  0.70379884  1  -1.156361  0  -0.338282  -0.553774  0  2.104707  0
O  O244  1  0.10336284  0.70379875  0.39663773  1  -1.156362  0  -0.338308  -0.553797  0  2.104597  0
O  O245  1  0.39663813  0.70379869  0.10336239  1  -1.156369  0  -0.338295  -0.553801  0  2.104656  0
O  O246  1  0.39663933  0.79620139  0.39663955  1  -1.15636  0  -0.338295  -0.553698  0  2.1049  0
O  O247  1  0.10336589  0.79620267  0.10336545  1  -1.156346  0  -0.338292  -0.553742  0  2.10469  0
O  O248  1  0.70379870  0.10336286  0.39663771  1  -1.156366  0  -0.33831  -0.553801  0  2.104602  0
O  O249  1  0.70379865  0.39663816  0.10336238  1  -1.156365  0  -0.338289  -0.553791  0  2.104648  0
O  O250  1  0.79620262  0.10336590  0.10336543  1  -1.156349  0  -0.338289  -0.553736  0  2.104691  0
O  O251  1  0.79620133  0.39663936  0.39663954  1  -1.156373  0  -0.338304  -0.55371  0  2.104916  0
