# generated using pymatgen
data_KH10C10O3F5
_symmetry_space_group_name_H-M   'P 1'
_cell_length_a   4.33677214
_cell_length_b   12.07910460
_cell_length_c   12.25036538
_cell_angle_alpha   86.45436864
_cell_angle_beta   81.79864342
_cell_angle_gamma   88.87200633
_symmetry_Int_Tables_number   1
_chemical_formula_structural   KH10C10O3F5
_chemical_formula_sum   'K2 H20 C20 O6 F10'
_cell_volume   633.90994888
_cell_formula_units_Z   2
loop_
 _symmetry_equiv_pos_site_id
 _symmetry_equiv_pos_as_xyz
  1  'x, y, z'
loop_
 _atom_site_type_symbol
 _atom_site_label
 _atom_site_symmetry_multiplicity
 _atom_site_fract_x
 _atom_site_fract_y
 _atom_site_fract_z
 _atom_site_occupancy
 _atom_site_hle17_bader_spin_density
 _atom_site_hle17_ddec_charge
 _atom_site_hle17_ddec_spin_density
 _atom_site_hle17_ddec_sum_bond_order
 _atom_site_hle17_magmom
 _atom_site_hse06_10hf_bader_spin_density
 _atom_site_hse06_10hf_ddec_charge
 _atom_site_hse06_10hf_ddec_spin_density
 _atom_site_hse06_10hf_ddec_sum_bond_order
 _atom_site_hse06_10hf_magmom
 _atom_site_hse06_bader_spin_density
 _atom_site_hse06_ddec_charge
 _atom_site_hse06_ddec_spin_density
 _atom_site_hse06_ddec_sum_bond_order
 _atom_site_hse06_magmom
 _atom_site_pbe_bader_spin_density
 _atom_site_pbe_cm5_charge
 _atom_site_pbe_ddec_charge
 _atom_site_pbe_ddec_spin_density
 _atom_site_pbe_ddec_sum_bond_order
 _atom_site_pbe_magmom
K  K0  1  0.20668015  0.37735579  0.08755694  1  0  0.922684  0  0.452151  0  0  0.867709  0  0.628614  0  0  0.884386  0  0.604475  0  0  0.758388  0.855182  0  0.645858  0
K  K1  1  0.79333542  0.62264019  0.91244378  1  0  0.922686  0  0.452154  0  0  0.867721  0  0.62862  0  0  0.884383  0  0.604495  0  0  0.758387  0.855186  0  0.645869  0
H  H2  1  0.61322582  0.01693501  0.13191815  1  0  0.070381  0  0.965625  0  0  0.081847  0  1.04318  0  0  0.083063  0  1.041984  0  0  0.084606  0.080872  0  1.044125  0
H  H3  1  0.38676876  0.98306180  0.86808439  1  0  0.070406  0  0.965642  0  0  0.081873  0  1.043187  0  0  0.083089  0  1.041994  0  0  0.084626  0.080898  0  1.044133  0
H  H4  1  0.60132644  0.11970515  0.02045988  1  0  0.084629  0  0.966233  0  0  0.101992  0  1.032554  0  0  0.102303  0  1.032887  0  0  0.098177  0.101671  0  1.032424  0
H  H5  1  0.39867284  0.88029000  0.97954253  1  0  0.084581  0  0.966248  0  0  0.101935  0  1.032564  0  0  0.102246  0  1.032899  0  0  0.098146  0.101614  0  1.032433  0
H  H6  1  0.24631325  0.06246136  0.09262220  1  0  0.072581  0  0.946078  0  0  0.089633  0  1.011907  0  0  0.090544  0  1.011505  0  0  0.090454  0.088841  0  1.012339  0
H  H7  1  0.75368133  0.93753546  0.90738034  1  0  0.072617  0  0.946098  0  0  0.089635  0  1.011956  0  0  0.090548  0  1.011555  0  0  0.090489  0.088839  0  1.012394  0
H  H8  1  0.43990866  0.07349534  0.31703323  1  0  0.056845  0  0.916638  0  0  0.072227  0  0.978412  0  0  0.072576  0  0.977625  0  0  0.098878  0.071871  0  0.979094  0
H  H9  1  0.56008351  0.92650396  0.68297010  1  0  0.056845  0  0.916685  0  0  0.072214  0  0.978455  0  0  0.072562  0  0.977668  0  0  0.098864  0.071857  0  0.979136  0
H  H10  1  0.07708656  0.11953009  0.27579185  1  0  0.058143  0  0.926022  0  0  0.071715  0  0.99083  0  0  0.072562  0  0.989823  0  0  0.10135  0.070975  0  0.991725  0
H  H11  1  0.92291027  0.88046921  0.72421125  1  0  0.058148  0  0.925984  0  0  0.071679  0  0.990819  0  0  0.072525  0  0.989815  0  0  0.101336  0.070939  0  0.991714  0
H  H12  1  0.21689666  0.21061020  0.44033021  1  0  0.056648  0  0.930585  0  0  0.067197  0  0.999083  0  0  0.06779  0  0.997736  0  0  0.095665  0.06672  0  1.000092  0
H  H13  1  0.78309783  0.78938993  0.55967132  1  0  0.056654  0  0.930571  0  0  0.067216  0  0.999049  0  0  0.067816  0  0.997702  0  0  0.095687  0.066739  0  1.000056  0
H  H14  1  0.54896629  0.27139758  0.35558671  1  0  0.063676  0  0.935519  0  0  0.075501  0  1.000843  0  0  0.076968  0  0.999358  0  0  0.102655  0.074343  0  1.002068  0
H  H15  1  0.45102820  0.72860255  0.64441400  1  0  0.063656  0  0.935554  0  0  0.075473  0  1.000877  0  0  0.076943  0  0.999397  0  0  0.102654  0.074313  0  1.002101  0
H  H16  1  0.93667230  0.38149074  0.47216609  1  0  0.070272  0  0.957299  0  0  0.085784  0  1.028677  0  0  0.086279  0  1.028742  0  0  0.08418  0.085299  0  1.028792  0
H  H17  1  0.06332223  0.61850773  0.52783554  1  0  0.070288  0  0.957344  0  0  0.085811  0  1.028703  0  0  0.08631  0  1.028766  0  0  0.084184  0.085323  0  1.028817  0
H  H18  1  0.93167948  0.47898308  0.35602958  1  0  0.082624  0  0.974221  0  0  0.094037  0  1.050482  0  0  0.095072  0  1.049637  0  0  0.093214  0.093194  0  1.051191  0
H  H19  1  0.06831267  0.52101705  0.64397370  1  0  0.082699  0  0.974176  0  0  0.094126  0  1.05042  0  0  0.095162  0  1.049574  0  0  0.093244  0.093281  0  1.051131  0
H  H20  1  0.29031588  0.44640120  0.40869624  1  0  0.073531  0  0.952113  0  0  0.088859  0  1.022246  0  0  0.09003  0  1.021377  0  0  0.087744  0.087925  0  1.022941  0
H  H21  1  0.70968096  0.55359810  0.59130522  1  0  0.073611  0  0.952066  0  0  0.088905  0  1.022231  0  0  0.090074  0  1.021365  0  0  0.087763  0.08797  0  1.022925  0
C  C22  1  0.92317012  0.23674597  0.84488539  1  0  0.069467  0  3.781382  0  0  0.038878  0  4.092494  0  0  0.041698  0  4.102908  0  0  0.056083  0.036462  0  4.08602  0
C  C23  1  0.07683825  0.76325747  0.15511280  1  0  0.069531  0  3.781263  0  0  0.038859  0  4.092431  0  0  0.041679  0  4.102844  0  0  0.056089  0.036444  0  4.085954  0
C  C24  1  0.91169828  0.17745904  0.75201346  1  0  0.113769  0  3.867461  0  0  0.074126  0  4.186765  0  0  0.084247  0  4.194952  0  0  0.064704  0.067164  0  4.181657  0
C  C25  1  0.08831949  0.82254191  0.24798358  1  0  0.113685  0  3.867465  0  0  0.074117  0  4.186743  0  0  0.08424  0  4.194926  0  0  0.064651  0.067154  0  4.181639  0
C  C26  1  0.73373326  0.21624192  0.67110822  1  0  0.086885  0  3.847579  0  0  0.046716  0  4.174133  0  0  0.051436  0  4.181394  0  0  0.05282  0.043138  0  4.169701  0
C  C27  1  0.26627750  0.78375987  0.32888668  1  0  0.087021  0  3.847539  0  0  0.046826  0  4.174133  0  0  0.051547  0  4.181392  0  0  0.052855  0.043251  0  4.1697  0
C  C28  1  0.57022906  0.31596451  0.68586188  1  0  0.110553  0  3.876029  0  0  0.066072  0  4.201745  0  0  0.075681  0  4.211284  0  0  0.066378  0.059474  0  4.195736  0
C  C29  1  0.42978156  0.68404225  0.31413353  1  0  0.110518  0  3.876014  0  0  0.065971  0  4.201828  0  0  0.075582  0  4.211366  0  0  0.066358  0.059375  0  4.195823  0
C  C30  1  0.58382836  0.37429103  0.77920797  1  0  0.076498  0  3.758648  0  0  0.045723  0  4.068928  0  0  0.049  0  4.078757  0  0  0.060332  0.043001  0  4.062843  0
C  C31  1  0.41617544  0.62570993  0.22078651  1  0  0.076531  0  3.75865  0  0  0.045782  0  4.068966  0  0  0.049058  0  4.078795  0  0  0.060369  0.04305  0  4.062897  0
C  C32  1  0.75925975  0.33855996  0.86500876  1  0  0.196141  0  4.083541  0  0  0.165106  0  4.384749  0  0  0.179665  0  4.396582  0  0  0.04395  0.155246  0  4.376663  0
C  C33  1  0.24073703  0.66144183  0.13498684  1  0  0.196198  0  4.083512  0  0  0.165155  0  4.384776  0  0  0.179711  0  4.396613  0  0  0.043991  0.155296  0  4.376693  0
C  C34  1  0.48325602  0.08883014  0.10120095  1  0  -0.08856  0  3.690466  0  0  -0.178008  0  3.955012  0  0  -0.173116  0  3.960581  0  0  -0.152608  -0.181085  0  3.951066  0
C  C35  1  0.51673853  0.91116750  0.89880154  1  0  -0.088554  0  3.690511  0  0  -0.177975  0  3.955092  0  0  -0.173077  0  3.960643  0  0  -0.152617  -0.181053  0  3.951147  0
C  C36  1  0.31734356  0.14508128  0.28131624  1  0  0.053658  0  3.676305  0  0  -0.006626  0  3.953363  0  0  -0.000578  0  3.959439  0  0  -0.076362  -0.010687  0  3.949158  0
C  C37  1  0.68265095  0.85491802  0.71868616  1  0  0.053586  0  3.676478  0  0  -0.006641  0  3.953455  0  0  -0.000585  0  3.959536  0  0  -0.076364  -0.010703  0  3.949244  0
C  C38  1  0.31129698  0.24025993  0.35527471  1  0  0.051207  0  3.665833  0  0  -0.003753  0  3.93808  0  0  0.002203  0  3.943711  0  0  -0.075883  -0.007789  0  3.934216  0
C  C39  1  0.68869750  0.75974020  0.64472681  1  0  0.051266  0  3.665966  0  0  -0.003664  0  3.938113  0  0  0.002266  0  3.943783  0  0  -0.075857  -0.0077  0  3.934245  0
C  C40  1  0.06730107  0.41304002  0.39288454  1  0  -0.086354  0  3.684688  0  0  -0.178228  0  3.95484  0  0  -0.173119  0  3.959845  0  0  -0.156639  -0.181467  0  3.951304  0
C  C41  1  0.93269341  0.58696011  0.60711780  1  0  -0.086545  0  3.684817  0  0  -0.178438  0  3.954986  0  0  -0.173322  0  3.959966  0  0  -0.156692  -0.181671  0  3.951447  0
O  O42  1  0.47279475  0.17774675  0.17332435  1  0  -0.3151  0  2.273841  0  0  -0.242621  0  2.53025  0  0  -0.257171  0  2.530234  0  0  -0.283151  -0.232206  0  2.529695  0
O  O43  1  0.52719982  0.82225006  0.82667819  1  0  -0.315085  0  2.273886  0  0  -0.242618  0  2.530266  0  0  -0.257165  0  2.530248  0  0  -0.283161  -0.232201  0  2.529707  0
O  O44  1  0.11670419  0.32741085  0.31698842  1  0  -0.321944  0  2.304383  0  0  -0.250146  0  2.562911  0  0  -0.265236  0  2.563405  0  0  -0.294257  -0.239337  0  2.562053  0
O  O45  1  0.88328796  0.67258928  0.68301240  1  0  -0.321915  0  2.304499  0  0  -0.250133  0  2.563028  0  0  -0.265214  0  2.56353  0  0  -0.294267  -0.239323  0  2.562164  0
O  O46  1  0.76816655  0.39323884  0.95227354  1  0  -0.711617  0  1.997544  0  0  -0.686876  0  2.256073  0  0  -0.706634  0  2.247628  0  0  -0.556961  -0.672613  0  2.261415  0
O  O47  1  0.23183493  0.60676129  0.04772438  1  0  -0.711629  0  1.997501  0  0  -0.686898  0  2.256073  0  0  -0.70665  0  2.24763  0  0  -0.556985  -0.672631  0  2.261413  0
F  F48  1  0.10405524  0.19595748  0.92136620  1  0  -0.182878  0  1.264775  0  0  -0.127238  0  1.437523  0  0  -0.136609  0  1.430479  0  0  -0.093727  -0.120437  0  1.442437  0
F  F49  1  0.89594841  0.80404845  0.07863207  1  0  -0.182953  0  1.264651  0  0  -0.127245  0  1.437377  0  0  -0.13662  0  1.430333  0  0  -0.093734  -0.120446  0  1.442291  0
F  F50  1  0.07946411  0.08178928  0.73785565  1  0  -0.155905  0  1.25433  0  0  -0.1141  0  1.435514  0  0  -0.121793  0  1.424845  0  0  -0.084924  -0.108544  0  1.442881  0
F  F51  1  0.92053962  0.91821334  0.26214526  1  0  -0.155924  0  1.254212  0  0  -0.114138  0  1.435376  0  0  -0.121829  0  1.424704  0  0  -0.084917  -0.108581  0  1.442744  0
F  F52  1  0.72210451  0.15877476  0.57974891  1  0  -0.156051  0  1.217283  0  0  -0.106983  0  1.376967  0  0  -0.114227  0  1.367028  0  0  -0.09385  -0.101957  0  1.384135  0
F  F53  1  0.27790149  0.84123035  0.42024847  1  0  -0.156123  0  1.217095  0  0  -0.107047  0  1.376791  0  0  -0.114299  0  1.366858  0  0  -0.093875  -0.102021  0  1.383958  0
F  F54  1  0.39622259  0.35558036  0.60767059  1  0  -0.168389  0  1.27999  0  0  -0.112658  0  1.458457  0  0  -0.121973  0  1.450865  0  0  -0.079995  -0.105956  0  1.463683  0
F  F55  1  0.60377188  0.64442060  0.39232681  1  0  -0.16834  0  1.279908  0  0  -0.112576  0  1.458386  0  0  -0.121891  0  1.450794  0  0  -0.07996  -0.105873  0  1.463613  0
F  F56  1  0.41726935  0.47164674  0.79043284  1  0  -0.183408  0  1.239437  0  0  -0.125883  0  1.404768  0  0  -0.135045  0  1.397366  0  0  -0.091228  -0.119291  0  1.409969  0
F  F57  1  0.58273208  0.52835504  0.20956742  1  0  -0.183446  0  1.239538  0  0  -0.12593  0  1.404883  0  0  -0.13509  0  1.397479  0  0  -0.091258  -0.119336  0  1.410088  0
