# generated using pymatgen
data_GdH12C27(NO2)6
_symmetry_space_group_name_H-M   'P 1'
_cell_length_a   12.83715525
_cell_length_b   12.83434564
_cell_length_c   15.62650506
_cell_angle_alpha   89.96464016
_cell_angle_beta   90.05141591
_cell_angle_gamma   120.01167241
_symmetry_Int_Tables_number   1
_chemical_formula_structural   GdH12C27(NO2)6
_chemical_formula_sum   'Gd2 H24 C54 N12 O24'
_cell_volume   2229.37813032
_cell_formula_units_Z   2
loop_
 _symmetry_equiv_pos_site_id
 _symmetry_equiv_pos_as_xyz
  1  'x, y, z'
loop_
 _atom_site_type_symbol
 _atom_site_label
 _atom_site_symmetry_multiplicity
 _atom_site_fract_x
 _atom_site_fract_y
 _atom_site_fract_z
 _atom_site_occupancy
 _atom_site_pbe_bader_charge
 _atom_site_pbe_bader_spin_density
 _atom_site_pbe_cm5_charge
 _atom_site_pbe_ddec_charge
 _atom_site_pbe_ddec_spin_density
 _atom_site_pbe_ddec_sum_bond_order
 _atom_site_pbe_magmom
Gd  Gd0  1  0.66757869  0.33363634  0.56073342  1  2.188276  -0.002904  1.481713  2.027641  -0.002028  2.347754  -0.004
Gd  Gd1  1  0.33369287  0.66610043  0.06068346  1  2.18626  -0.00286  1.481921  2.027407  -0.001961  2.347036  -0.003
H  H2  1  0.25724922  0.04308189  0.71545011  1  0.116944  -0.000239  0.121181  0.13694  -0.000667  0.982182  0.0
H  H3  1  0.78567604  0.74275743  0.71536819  1  0.11758  -0.000268  0.121201  0.136968  -0.000705  0.982246  0.0
H  H4  1  0.95676577  0.21428850  0.71536500  1  0.118963  -0.00031  0.121297  0.137068  -0.00079  0.982146  0.0
H  H5  1  0.21454759  0.95715492  0.21495219  1  0.112862  -0.000209  0.121068  0.136569  -0.000651  0.982178  0.0
H  H6  1  0.04296658  0.25750220  0.21486131  1  0.114965  -0.000265  0.121013  0.13676  -0.000732  0.982071  0.0
H  H7  1  0.74237709  0.78542972  0.21482932  1  0.158555  -0.000405  0.12124  0.137141  -0.000783  0.982126  0.0
H  H8  1  0.58547759  0.04858870  0.77967435  1  0.160684  -0.000412  0.12228  0.131004  -0.000478  0.988331  -0.002
H  H9  1  0.46294485  0.41438536  0.77930190  1  0.167426  -0.000574  0.122107  0.13078  -0.000493  0.988356  -0.002
H  H10  1  0.95155906  0.53708633  0.77958476  1  0.166043  -0.000542  0.122277  0.130985  -0.000536  0.988748  -0.002
H  H11  1  0.53717605  0.95163190  0.27952711  1  0.164907  -0.000481  0.122096  0.130739  -0.000468  0.988314  -0.002
H  H12  1  0.04818903  0.58554890  0.27904588  1  0.16743  -0.000499  0.12205  0.130438  -0.0005  0.988975  -0.002
H  H13  1  0.41449443  0.46275986  0.27953607  1  0.167269  -0.000577  0.122293  0.130948  -0.000531  0.988703  -0.002
H  H14  1  0.27081242  0.83976388  0.93414593  1  0.199137  -0.001106  0.127198  0.13871  -0.001397  1.030269  -0.001
H  H15  1  0.56895757  0.72894762  0.93401091  1  0.158434  -0.001005  0.127425  0.138981  -0.001388  1.029858  -0.001
H  H16  1  0.16036655  0.43094402  0.93407618  1  0.192562  -0.001114  0.127324  0.138753  -0.001407  1.029772  -0.001
H  H17  1  0.43085407  0.16014168  0.43387775  1  0.196865  -0.001125  0.127183  0.138715  -0.00139  1.029455  -0.001
H  H18  1  0.84003409  0.27073374  0.43369089  1  0.200877  -0.001116  0.127656  0.139117  -0.001391  1.028594  -0.001
H  H19  1  0.72970980  0.56926846  0.43379648  1  0.175374  -0.001064  0.127508  0.138681  -0.001411  1.029974  -0.001
H  H20  1  0.08659035  0.80215456  0.87199445  1  0.589155  -0.001568  0.312695  0.304281  8.7e-05  0.993286  -0.002
H  H21  1  0.71544735  0.91316110  0.87206485  1  0.58055  -0.001595  0.312673  0.304505  0.000112  0.992901  -0.002
H  H22  1  0.19775333  0.28443714  0.87211028  1  0.56212  -0.00166  0.312692  0.304168  0.000127  0.993358  -0.002
H  H23  1  0.28437842  0.19779448  0.37151509  1  0.56497  -0.001664  0.313112  0.304733  6.8e-05  0.992047  -0.002
H  H24  1  0.80236286  0.08674294  0.37158292  1  0.586983  -0.001585  0.313221  0.305261  9.3e-05  0.99156  -0.002
H  H25  1  0.91347972  0.71564435  0.37155925  1  0.579162  -0.001602  0.313065  0.304773  9.4e-05  0.992009  -0.002
C  C26  1  0.06427125  0.94740415  0.83577649  1  1.54132  -0.01954  0.365849  0.535294  -0.01433  4.064808  -0.022
C  C27  1  0.88300965  0.93562306  0.83578289  1  1.535574  -0.019457  0.366176  0.535989  -0.014274  4.066772  -0.022
C  C28  1  0.05246979  0.11686311  0.83571633  1  1.55011  -0.019453  0.366412  0.536485  -0.014298  4.065628  -0.022
C  C29  1  0.11694696  0.05262133  0.33524721  1  1.546683  -0.01944  0.366611  0.53699  -0.014278  4.066199  -0.022
C  C30  1  0.94744269  0.06434826  0.33520497  1  1.542646  -0.019383  0.366491  0.537032  -0.014208  4.066811  -0.022
C  C31  1  0.93569692  0.88313179  0.33513522  1  1.535568  -0.019413  0.366257  0.536806  -0.014258  4.067013  -0.022
C  C32  1  0.25068117  0.93843882  0.82802427  1  0.364683  0.086941  0.136161  0.265186  0.082575  3.957643  0.04
C  C33  1  0.68765256  0.74917861  0.82792892  1  0.387329  0.087038  0.136658  0.266013  0.083307  3.956527  0.04
C  C34  1  0.06155051  0.31229929  0.82794812  1  0.371087  0.089081  0.13714  0.26579  0.084798  3.956438  0.041
C  C35  1  0.31237277  0.06166533  0.32760762  1  0.371721  0.086096  0.135874  0.266377  0.081956  3.955554  0.039
C  C36  1  0.93840424  0.25075342  0.32746364  1  0.394055  0.088041  0.136657  0.266101  0.083554  3.957082  0.04
C  C37  1  0.74937074  0.68763983  0.32750523  1  0.387703  0.088151  0.137152  0.266378  0.084463  3.956979  0.041
C  C38  1  0.30735346  0.01688854  0.75799387  1  0.044385  0.063429  -0.055009  -0.149693  0.066837  3.854231  0.038
C  C39  1  0.70940099  0.69259891  0.75784924  1  0.043437  0.063774  -0.054858  -0.14967  0.067155  3.853411  0.038
C  C40  1  0.98301142  0.29057467  0.75788828  1  0.037386  0.065674  -0.054158  -0.148539  0.06898  3.852502  0.039
C  C41  1  0.29076297  0.98332382  0.25756890  1  0.038864  0.062718  -0.054662  -0.149603  0.065886  3.854775  0.037
C  C42  1  0.01671480  0.30749858  0.25738652  1  0.03239  0.06363  -0.053967  -0.148711  0.067041  3.854114  0.038
C  C43  1  0.69243903  0.70922024  0.25745883  1  0.00206  0.065339  -0.053943  -0.148892  0.068596  3.854139  0.039
C  C44  1  0.42653517  0.05354124  0.74062337  1  -0.001922  0.003666  0.005679  0.005496  0.002466  3.940182  -0.003
C  C45  1  0.62686060  0.57338950  0.74037764  1  -0.013722  0.002794  0.005167  0.004823  0.001705  3.939788  -0.004
C  C46  1  0.94646676  0.37320309  0.74051714  1  -0.013633  0.002737  0.005375  0.005375  0.00151  3.938753  -0.004
C  C47  1  0.37332090  0.94668172  0.24030655  1  -0.014262  0.003728  0.005172  0.004889  0.002528  3.941826  -0.003
C  C48  1  0.05328499  0.42669889  0.24000514  1  -0.008017  0.003026  0.005198  0.005081  0.001633  3.940887  -0.004
C  C49  1  0.57323195  0.62656678  0.24024576  1  -0.008712  0.002724  0.005515  0.006129  0.001663  3.939134  -0.004
C  C50  1  0.49149854  0.01777036  0.79386755  1  0.010354  0.176741  -0.030362  -0.03188  0.183679  3.792265  0.103
C  C51  1  0.52615509  0.50838697  0.79357125  1  0.0005  0.178305  -0.029972  -0.031339  0.185042  3.790448  0.103
C  C52  1  0.98241192  0.47391666  0.79378307  1  0.008332  0.180663  -0.0292  -0.03005  0.187753  3.789621  0.105
C  C53  1  0.47397889  0.98243608  0.29362432  1  0.007462  0.175378  -0.030485  -0.032207  0.182332  3.792644  0.102
C  C54  1  0.01747939  0.49154823  0.29326148  1  0.033386  0.177957  -0.030143  -0.031164  0.1854  3.791045  0.103
C  C55  1  0.50855023  0.52593896  0.29362496  1  0.004719  0.179992  -0.029822  -0.030858  0.186984  3.790013  0.104
C  C56  1  0.43621056  0.94117997  0.86370149  1  -0.068325  -0.010083  -0.00206  -0.028682  -0.011496  3.952827  -0.013
C  C57  1  0.50489526  0.56355417  0.86345511  1  -0.011265  -0.010205  -0.002007  -0.028755  -0.011698  3.951548  -0.013
C  C58  1  0.05905821  0.49516094  0.86361510  1  -0.03511  -0.010047  -0.001924  -0.028462  -0.011579  3.952619  -0.013
C  C59  1  0.49511277  0.05893091  0.36346082  1  -0.040934  -0.009909  -0.002117  -0.028883  -0.011413  3.953222  -0.012
C  C60  1  0.94109500  0.43623448  0.36316133  1  -0.098468  -0.009808  -0.002062  -0.028637  -0.011683  3.951952  -0.013
C  C61  1  0.56408424  0.50485496  0.36345122  1  -0.017843  -0.00979  -0.001902  -0.028611  -0.011427  3.953266  -0.013
C  C62  1  0.31546874  0.89930227  0.88010760  1  0.034599  0.102747  -0.044413  -0.129267  0.107555  3.796595  0.06
C  C63  1  0.58377844  0.68431753  0.87996233  1  -0.001264  0.103916  -0.044356  -0.129872  0.108164  3.796615  0.06
C  C64  1  0.10085421  0.41622673  0.88002568  1  0.005972  0.10414  -0.043908  -0.128999  0.109019  3.795539  0.061
C  C65  1  0.41615530  0.10072158  0.37980870  1  0.007566  0.102352  -0.044704  -0.130103  0.107164  3.796124  0.06
C  C66  1  0.89937434  0.31548798  0.37960584  1  0.036674  0.103485  -0.044474  -0.130025  0.108375  3.796279  0.06
C  C67  1  0.68483859  0.58384288  0.37973318  1  -0.016441  0.104376  -0.044329  -0.129296  0.10863  3.797208  0.06
C  C68  1  0.49096094  0.13122533  0.66533075  1  1.588214  -0.005709  0.206492  0.565586  -0.00584  4.237623  -0.006
C  C69  1  0.64019305  0.50886888  0.66517397  1  1.614315  -0.005717  0.206418  0.566864  -0.005913  4.236097  -0.006
C  C70  1  0.86845163  0.36021292  0.66538259  1  1.585711  -0.005197  0.205352  0.566463  -0.005347  4.236542  -0.005
C  C71  1  0.36003927  0.86887541  0.16512784  1  1.598781  -0.005821  0.207167  0.566759  -0.005958  4.236382  -0.006
C  C72  1  0.13131511  0.49149793  0.16492690  1  1.610268  -0.005556  0.205911  0.566869  -0.005794  4.236076  -0.006
C  C73  1  0.50807626  0.63952214  0.16518032  1  1.571201  -0.005239  0.204508  0.56514  -0.005326  4.23967  -0.005
C  C74  1  0.50940939  0.90248081  0.91655082  1  1.609368  -0.001994  0.234773  0.632167  -0.002107  4.174291  -0.002
C  C75  1  0.39306787  0.49018758  0.91626029  1  1.617981  -0.001948  0.234643  0.632694  -0.002095  4.172676  -0.002
C  C76  1  0.09762760  0.60692334  0.91652202  1  1.606621  -0.002001  0.234552  0.631752  -0.002128  4.175058  -0.002
C  C77  1  0.60686874  0.09755893  0.41645350  1  1.607522  -0.00201  0.234349  0.631811  -0.002115  4.17551  -0.002
C  C78  1  0.90271066  0.50948959  0.41614889  1  1.605964  -0.001974  0.234762  0.632244  -0.002109  4.175392  -0.002
C  C79  1  0.49099933  0.39323651  0.41654693  1  1.626879  -0.002013  0.234346  0.63125  -0.002137  4.175962  -0.002
N  N80  1  0.94392256  0.87543421  0.83531189  1  -1.15019  0.118936  -0.304466  -0.45897  0.115348  3.115141  0.087
N  N81  1  0.93138346  0.05597395  0.83518646  1  -1.155072  0.115356  -0.306115  -0.461905  0.111786  3.117985  0.084
N  N82  1  0.12444827  0.06855447  0.83513143  1  -1.159534  0.116512  -0.305492  -0.460917  0.112945  3.11596  0.085
N  N83  1  0.06853523  0.12457037  0.33476342  1  -1.157409  0.118234  -0.305637  -0.461433  0.114705  3.116937  0.086
N  N84  1  0.87547748  0.94399784  0.33456439  1  -1.154355  0.11437  -0.306392  -0.462887  0.110884  3.118663  0.084
N  N85  1  0.05599069  0.93147442  0.33460407  1  -1.150767  0.117011  -0.305805  -0.461598  0.113498  3.117634  0.085
N  N86  1  0.12991096  0.88990394  0.84483674  1  -1.210214  0.210008  -0.323087  -0.286188  0.20828  3.432463  0.158
N  N87  1  0.75986520  0.86991808  0.84485914  1  -1.208639  0.210893  -0.323076  -0.28615  0.209185  3.433037  0.158
N  N88  1  0.11000592  0.24006799  0.84484314  1  -1.183326  0.21452  -0.322066  -0.284321  0.21273  3.431724  0.161
N  N89  1  0.24006092  0.11014615  0.34434458  1  -1.188177  0.208412  -0.323724  -0.287235  0.206392  3.432517  0.156
N  N90  1  0.88994283  0.13000192  0.34431194  1  -1.234072  0.211063  -0.323222  -0.286345  0.2092  3.431733  0.158
N  N91  1  0.87009337  0.75993026  0.34426970  1  -1.204265  0.21359  -0.322193  -0.28487  0.211645  3.43167  0.16
O  O92  1  0.43514384  0.14570736  0.60435164  1  -1.101098  0.104038  -0.291224  -0.518658  0.100715  2.039706  0.085
O  O93  1  0.71058194  0.56444974  0.60424285  1  -1.108242  0.0976  -0.294199  -0.523114  0.094433  2.044253  0.08
O  O94  1  0.85306852  0.28978336  0.60435740  1  -1.109784  0.086746  -0.298991  -0.529364  0.083751  2.050564  0.071
O  O95  1  0.28988113  0.85439365  0.10404506  1  -1.099421  0.104696  -0.291286  -0.518859  0.101328  2.040351  0.085
O  O96  1  0.14640027  0.43625697  0.10390492  1  -1.109219  0.09255  -0.296777  -0.526712  0.089433  2.048596  0.075
O  O97  1  0.56304801  0.70984355  0.10406106  1  -1.11243  0.087145  -0.298565  -0.528693  0.08408  2.052563  0.071
O  O98  1  0.60610320  0.18197896  0.66704963  1  -1.116036  0.110913  -0.357709  -0.578706  0.108422  2.188698  0.093
O  O99  1  0.57579140  0.39369460  0.66697924  1  -1.123014  0.113122  -0.356656  -0.578311  0.110629  2.1853  0.095
O  O100  1  0.81817521  0.42505532  0.66759486  1  -1.107106  0.107034  -0.360006  -0.581888  0.104593  2.187962  0.09
O  O101  1  0.42420163  0.81789291  0.16701822  1  -1.11607  0.112507  -0.3571  -0.578395  0.110006  2.186356  0.094
O  O102  1  0.18202214  0.60666577  0.16701246  1  -1.125367  0.112323  -0.356919  -0.578675  0.109866  2.184631  0.094
O  O103  1  0.39296201  0.57480015  0.16755833  1  -1.08727  0.106748  -0.359904  -0.581431  0.104255  2.189005  0.089
O  O104  1  0.62075271  0.95308734  0.90129212  1  -1.138552  0.047258  -0.304705  -0.530813  0.045221  2.127378  0.039
O  O105  1  0.33250514  0.37880509  0.90091200  1  -1.150842  0.046199  -0.304618  -0.530583  0.044141  2.12742  0.038
O  O106  1  0.04679738  0.66749917  0.90129724  1  -1.138571  0.048053  -0.304506  -0.530183  0.045995  2.126874  0.04
O  O107  1  0.66778095  0.04714611  0.40122424  1  -1.139849  0.048073  -0.304386  -0.530506  0.046012  2.127251  0.04
O  O108  1  0.95341261  0.62088159  0.40085820  1  -1.136458  0.04741  -0.304618  -0.530419  0.045309  2.127458  0.039
O  O109  1  0.37962653  0.33240998  0.40130295  1  -1.153784  0.049207  -0.304228  -0.529843  0.047127  2.126858  0.041
O  O110  1  0.45370173  0.81988344  0.97152795  1  -1.189838  0.024841  -0.408704  -0.671956  0.023644  2.369674  0.021
O  O111  1  0.36612049  0.54575474  0.97124062  1  -1.187615  0.020947  -0.410713  -0.674637  0.019821  2.370884  0.018
O  O112  1  0.18028499  0.63389720  0.97147931  1  -1.188426  0.023706  -0.408373  -0.672204  0.022519  2.370143  0.02
O  O113  1  0.63343675  0.17990424  0.47157206  1  -1.188002  0.02432  -0.409141  -0.672607  0.023132  2.369723  0.021
O  O114  1  0.82039428  0.45385109  0.47127192  1  -1.188521  0.020858  -0.410707  -0.674664  0.019742  2.371694  0.018
O  O115  1  0.54674925  0.36664461  0.47171796  1  -1.192297  0.024622  -0.408157  -0.67166  0.023418  2.368858  0.021
