# generated using pymatgen
data_NaH16C18SNO10
_symmetry_space_group_name_H-M   'P 1'
_cell_length_a   7.88713036
_cell_length_b   8.63461720
_cell_length_c   14.19938756
_cell_angle_alpha   82.53116780
_cell_angle_beta   76.98743804
_cell_angle_gamma   71.08762428
_symmetry_Int_Tables_number   1
_chemical_formula_structural   NaH16C18SNO10
_chemical_formula_sum   'Na2 H32 C36 S2 N2 O20'
_cell_volume   889.60999193
_cell_formula_units_Z   2
loop_
 _symmetry_equiv_pos_site_id
 _symmetry_equiv_pos_as_xyz
  1  'x, y, z'
loop_
 _atom_site_type_symbol
 _atom_site_label
 _atom_site_symmetry_multiplicity
 _atom_site_fract_x
 _atom_site_fract_y
 _atom_site_fract_z
 _atom_site_occupancy
 _atom_site_hle17_bader_spin_density
 _atom_site_hle17_ddec_charge
 _atom_site_hle17_ddec_spin_density
 _atom_site_hle17_ddec_sum_bond_order
 _atom_site_hle17_magmom
 _atom_site_hse06_10hf_bader_spin_density
 _atom_site_hse06_10hf_ddec_charge
 _atom_site_hse06_10hf_ddec_spin_density
 _atom_site_hse06_10hf_ddec_sum_bond_order
 _atom_site_hse06_10hf_magmom
 _atom_site_hse06_bader_spin_density
 _atom_site_hse06_ddec_charge
 _atom_site_hse06_ddec_spin_density
 _atom_site_hse06_ddec_sum_bond_order
 _atom_site_hse06_magmom
 _atom_site_pbe_bader_spin_density
 _atom_site_pbe_cm5_charge
 _atom_site_pbe_ddec_charge
 _atom_site_pbe_ddec_spin_density
 _atom_site_pbe_ddec_sum_bond_order
 _atom_site_pbe_magmom
Na  Na0  1  0.30865860  0.93404832  0.49830866  1  0  0.913114  0  0.355718  0  0  0.880535  0  0.494154  0  0  0.888066  0  0.475051  0  0  0.687043  0.874477  0  0.508269  0
Na  Na1  1  0.69134174  0.06595187  0.50169250  1  0  0.913115  0  0.355715  0  0  0.880529  0  0.494167  0  0  0.888062  0  0.475066  0  0  0.687032  0.874469  0  0.508285  0
H  H2  1  0.11707505  0.05024744  0.91408850  1  0  0.119294  0  0.94906  0  0  0.13149  0  1.005282  0  0  0.134994  0  1.004578  0  0  0.105867  0.129175  0  1.005668  0
H  H3  1  0.88292611  0.94975031  0.08591064  1  0  0.1193  0  0.949155  0  0  0.131504  0  1.005364  0  0  0.13501  0  1.004659  0  0  0.105866  0.129189  0  1.005751  0
H  H4  1  0.13584132  0.17927078  0.05760885  1  0  0.107453  0  0.948894  0  0  0.11409  0  1.015844  0  0  0.117936  0  1.012203  0  0  0.104771  0.111226  0  1.018723  0
H  H5  1  0.86416158  0.82072574  0.94239157  1  0  0.107462  0  0.9489  0  0  0.114082  0  1.01588  0  0  0.117921  0  1.012238  0  0  0.104777  0.11122  0  1.01876  0
H  H6  1  0.32372928  0.78389159  0.91335551  1  0  0.088695  0  0.943094  0  0  0.094958  0  1.010494  0  0  0.09836  0  1.005922  0  0  0.123302  0.092481  0  1.014029  0
H  H7  1  0.67627103  0.21610861  0.08664355  1  0  0.088687  0  0.943074  0  0  0.094952  0  1.010474  0  0  0.098349  0  1.005906  0  0  0.123298  0.092472  0  1.014015  0
H  H8  1  0.16948227  0.56827224  0.22793204  1  0  0.113399  0  0.988955  0  0  0.118498  0  1.056276  0  0  0.122425  0  1.0528  0  0  0.104446  0.115758  0  1.058583  0
H  H9  1  0.83051715  0.43172675  0.77206582  1  0  0.113432  0  0.988908  0  0  0.11854  0  1.056211  0  0  0.122466  0  1.052737  0  0  0.104464  0.1158  0  1.058516  0
H  H10  1  0.41807884  0.03617791  0.13769150  1  0  0.108507  0  0.9533  0  0  0.117379  0  1.018678  0  0  0.120832  0  1.016581  0  0  0.104816  0.11598  0  1.018497  0
H  H11  1  0.58190898  0.96382837  0.86231009  1  0  0.108493  0  0.953299  0  0  0.117349  0  1.01869  0  0  0.120802  0  1.016592  0  0  0.10478  0.115946  0  1.018516  0
H  H12  1  0.41395979  0.87127949  0.01106358  1  0  0.08653  0  0.963708  0  0  0.099715  0  1.02403  0  0  0.101481  0  1.023675  0  0  0.100778  0.097813  0  1.025577  0
H  H13  1  0.58603189  0.12872683  0.98893541  1  0  0.086538  0  0.963681  0  0  0.099741  0  1.023954  0  0  0.101504  0  1.023602  0  0  0.100786  0.097841  0  1.0255  0
H  H14  1  0.39550812  0.33174891  0.64831564  1  0  0.100506  0  0.933869  0  0  0.10827  0  1.003567  0  0  0.110845  0  1.000891  0  0  0.120466  0.106364  0  1.005413  0
H  H15  1  0.60449134  0.66825375  0.35168333  1  0  0.100511  0  0.933885  0  0  0.108282  0  1.003559  0  0  0.110858  0  1.000882  0  0  0.120474  0.106378  0  1.005403  0
H  H16  1  0.42243805  0.50176928  0.69546256  1  0  0.097767  0  0.930748  0  0  0.10559  0  0.997882  0  0  0.107605  0  0.996265  0  0  0.116176  0.104531  0  0.998433  0
H  H17  1  0.57756012  0.49823338  0.30453658  1  0  0.097804  0  0.930691  0  0  0.10563  0  0.997809  0  0  0.107646  0  0.996189  0  0  0.116197  0.104571  0  0.99836  0
H  H18  1  0.99421903  0.66072169  0.76993623  1  0  0.119974  0  0.95626  0  0  0.129877  0  1.022261  0  0  0.132573  0  1.020633  0  0  0.115876  0.127958  0  1.023348  0
H  H19  1  0.00577832  0.33928340  0.23006494  1  0  0.119957  0  0.956293  0  0  0.129854  0  1.022278  0  0  0.132551  0  1.02065  0  0  0.115876  0.127938  0  1.023365  0
H  H20  1  0.96065394  0.76669130  0.65715266  1  0  0.115304  0  0.917188  0  0  0.129046  0  0.976591  0  0  0.132008  0  0.9743  0  0  0.125806  0.126662  0  0.978542  0
H  H21  1  0.03934381  0.23331257  0.34284714  1  0  0.115272  0  0.917222  0  0  0.129012  0  0.976608  0  0  0.131974  0  0.974317  0  0  0.125813  0.12663  0  0.97856  0
H  H22  1  0.23913569  0.58741992  0.57782252  1  0  0.304382  0  0.880011  0  0  0.288204  0  0.93785  0  0  0.296304  0  0.93165  0  0  0.315162  0.282341  0  0.942534  0
H  H23  1  0.76086250  0.41258272  0.42217803  1  0  0.304337  0  0.880037  0  0  0.288191  0  0.937882  0  0  0.296292  0  0.931679  0  0  0.31515  0.282324  0  0.942568  0
H  H24  1  0.09174544  0.48641568  0.63431464  1  0  0.308341  0  0.884188  0  0  0.292509  0  0.940919  0  0  0.300174  0  0.935424  0  0  0.314615  0.287647  0  0.943937  0
H  H25  1  0.90825188  0.51358573  0.36568682  1  0  0.308347  0  0.884139  0  0  0.292554  0  0.940867  0  0  0.300219  0  0.935372  0  0  0.314659  0.287688  0  0.943888  0
H  H26  1  0.17549823  0.04647548  0.74980450  1  0  0.379776  0  0.927926  0  0  0.347973  0  1.008691  0  0  0.360904  0  0.995672  0  0  0.290884  0.339642  0  1.016707  0
H  H27  1  0.82450079  0.95352471  0.25019543  1  0  0.37977  0  0.927948  0  0  0.34797  0  1.008708  0  0  0.360899  0  0.995689  0  0  0.290877  0.339638  0  1.016723  0
H  H28  1  0.39348760  0.04976799  0.29742402  1  0  0.408519  0  0.79677  0  0  0.394225  0  0.850173  0  0  0.402839  0  0.840328  0  0  0.350685  0.387917  0  0.857443  0
H  H29  1  0.60650881  0.95022850  0.70257793  1  0  0.408559  0  0.796843  0  0  0.394302  0  0.850194  0  0  0.402885  0  0.840397  0  0  0.350687  0.387992  0  0.857471  0
H  H30  1  0.76161300  0.75620933  0.48656494  1  0  0.432828  0  0.851391  0  0  0.404462  0  0.91414  0  0  0.413554  0  0.900478  0  0  0.304195  0.398026  0  0.923771  0
H  H31  1  0.23838773  0.24378965  0.51343345  1  0  0.432822  0  0.851401  0  0  0.404449  0  0.914167  0  0  0.41354  0  0.900506  0  0  0.304185  0.398012  0  0.9238  0
H  H32  1  0.59635125  0.73648369  0.56900893  1  0  0.445633  0  0.823772  0  0  0.423817  0  0.87506  0  0  0.432651  0  0.861755  0  0  0.31516  0.417425  0  0.884728  0
H  H33  1  0.40364992  0.26351406  0.43099091  1  0  0.445627  0  0.82379  0  0  0.42381  0  0.875074  0  0  0.432644  0  0.861769  0  0  0.315153  0.417416  0  0.884743  0
C  C34  1  0.21343196  0.22432538  0.80978684  1  0  0.343742  0  3.829899  0  0  0.324242  0  4.097864  0  0  0.3413  0  4.111753  0  0  0.094401  0.313017  0  4.087709  0
C  C35  1  0.78657054  0.77567607  0.19021255  1  0  0.343797  0  3.829824  0  0  0.324284  0  4.097826  0  0  0.341343  0  4.111712  0  0  0.094401  0.313059  0  4.087668  0
C  C36  1  0.16227471  0.15881821  0.90526492  1  0  -0.227303  0  3.746992  0  0  -0.246936  0  4.009074  0  0  -0.258221  0  4.030774  0  0  -0.111783  -0.238757  0  3.994115  0
C  C37  1  0.83773036  0.84117956  0.09473442  1  0  -0.22736  0  3.747057  0  0  -0.247014  0  4.009164  0  0  -0.258299  0  4.030859  0  0  -0.111809  -0.238834  0  3.994204  0
C  C38  1  0.17029623  0.23144448  0.98435490  1  0  -0.024273  0  3.754224  0  0  -0.05146  0  4.014861  0  0  -0.045286  0  4.032848  0  0  -0.081109  -0.055339  0  4.003316  0
C  C39  1  0.82970712  0.76855450  0.01564456  1  0  -0.02429  0  3.754238  0  0  -0.051449  0  4.014899  0  0  -0.045262  0  4.032873  0  0  -0.081099  -0.055331  0  4.003355  0
C  C40  1  0.22295587  0.37527288  0.97270724  1  0  -0.174742  0  3.838843  0  0  -0.165506  0  4.08886  0  0  -0.180714  0  4.115257  0  0  -0.044167  -0.155434  0  4.071081  0
C  C41  1  0.77705050  0.62472489  0.02729263  1  0  -0.1746  0  3.838728  0  0  -0.165402  0  4.088778  0  0  -0.180606  0  4.115174  0  0  -0.044145  -0.155333  0  4.070999  0
C  C42  1  0.25972270  0.44395978  0.87806450  1  0  0.24457  0  3.751884  0  0  0.218502  0  4.013273  0  0  0.23362  0  4.030073  0  0  0.098947  0.208746  0  4.00113  0
C  C43  1  0.74027894  0.55604042  0.12193650  1  0  0.244552  0  3.751868  0  0  0.218493  0  4.013274  0  0  0.2336  0  4.030088  0  0  0.098929  0.208741  0  4.001124  0
C  C44  1  0.26025816  0.37115338  0.79552683  1  0  -0.17588  0  3.72497  0  0  -0.165594  0  3.980889  0  0  -0.177186  0  4.00509  0  0  -0.041334  -0.157734  0  3.963856  0
C  C45  1  0.73974478  0.62884683  0.20447330  1  0  -0.175973  0  3.724997  0  0  -0.165684  0  3.980931  0  0  -0.177272  0  4.005135  0  0  -0.041341  -0.157824  0  3.963895  0
C  C46  1  0.25036462  0.44525911  0.05426610  1  0  0.385521  0  3.817595  0  0  0.361056  0  4.091013  0  0  0.386573  0  4.094009  0  0  0.128868  0.343685  0  4.089848  0
C  C47  1  0.74963443  0.55474108  0.94573523  1  0  0.385429  0  3.817592  0  0  0.360995  0  4.09104  0  0  0.386515  0  4.094039  0  0  0.128872  0.343625  0  4.089877  0
C  C48  1  0.27972475  0.60747625  0.03303080  1  0  -0.159152  0  3.782004  0  0  -0.152084  0  4.03303  0  0  -0.164283  0  4.057861  0  0  -0.033742  -0.144571  0  4.017514  0
C  C49  1  0.72027859  0.39252274  0.96696866  1  0  -0.159105  0  3.781984  0  0  -0.152125  0  4.033106  0  0  -0.164329  0  4.057934  0  0  -0.033732  -0.144613  0  4.017591  0
C  C50  1  0.30206585  0.66623944  0.93859301  1  0  0.156871  0  3.61237  0  0  0.104796  0  3.889205  0  0  0.120793  0  3.896519  0  0  0.036488  0.093275  0  3.885139  0
C  C51  1  0.69793618  0.33375955  0.06140592  1  0  0.156934  0  3.612363  0  0  0.104883  0  3.889235  0  0  0.120886  0  3.896545  0  0  0.036532  0.093363  0  3.885168  0
C  C52  1  0.28840792  0.70555071  0.10880514  1  0  0.063335  0  3.771841  0  0  0.078094  0  4.009262  0  0  0.07692  0  4.034096  0  0  -0.015615  0.079404  0  3.991452  0
C  C53  1  0.71159416  0.29445196  0.89119421  1  0  0.063354  0  3.77196  0  0  0.078147  0  4.009367  0  0  0.076975  0  4.0342  0  0  -0.015582  0.079459  0  3.991557  0
C  C54  1  0.22261878  0.67148855  0.20708320  1  0  -0.069814  0  3.699173  0  0  -0.108595  0  3.954812  0  0  -0.105339  0  3.970891  0  0  -0.083789  -0.110863  0  3.943581  0
C  C55  1  0.77737504  0.32851163  0.79291669  1  0  -0.069849  0  3.699249  0  0  -0.108646  0  3.95485  0  0  -0.105393  0  3.970938  0  0  -0.083812  -0.110911  0  3.943616  0
C  C56  1  0.22759179  0.76403000  0.27943695  1  0  -0.230198  0  3.699098  0  0  -0.206768  0  3.948072  0  0  -0.21697  0  3.967963  0  0  -0.02956  -0.200173  0  3.935805  0
C  C57  1  0.77240808  0.23596774  0.72056306  1  0  -0.230188  0  3.699023  0  0  -0.206731  0  3.947908  0  0  -0.216921  0  3.967766  0  0  -0.02959  -0.200137  0  3.935648  0
C  C58  1  0.30283050  0.89391994  0.25472733  1  0  0.353502  0  3.772671  0  0  0.334818  0  4.038893  0  0  0.3486  0  4.052443  0  0  0.092222  0.32461  0  4.030716  0
C  C59  1  0.69716717  0.10607657  0.74527164  1  0  0.353477  0  3.772775  0  0  0.334841  0  4.038895  0  0  0.348628  0  4.052437  0  0  0.09227  0.324632  0  4.030719  0
C  C60  1  0.36557024  0.93149818  0.15714848  1  0  -0.198166  0  3.772197  0  0  -0.218878  0  4.032786  0  0  -0.225682  0  4.052535  0  0  -0.102868  -0.214333  0  4.018628  0
C  C61  1  0.63442400  0.06850077  0.84285145  1  0  -0.19817  0  3.772126  0  0  -0.218893  0  4.032704  0  0  -0.225693  0  4.052443  0  0  -0.102886  -0.214348  0  4.018561  0
C  C62  1  0.35947440  0.83895455  0.08583061  1  0  -0.071975  0  3.736502  0  0  -0.094063  0  3.985049  0  0  -0.093211  0  4.006635  0  0  -0.083668  -0.09414  0  3.971269  0
C  C63  1  0.64051902  0.16105054  0.91416896  1  0  -0.072028  0  3.736346  0  0  -0.094118  0  3.984891  0  0  -0.093265  0  4.00648  0  0  -0.083709  -0.094195  0  3.971107  0
C  C64  1  0.32723588  0.43380675  0.69541078  1  0  0.016992  0  3.564873  0  0  -0.046944  0  3.817724  0  0  -0.041196  0  3.825849  0  0  -0.060587  -0.050367  0  3.81079  0
C  C65  1  0.67276489  0.56619221  0.30459113  1  0  0.016964  0  3.564773  0  0  -0.046913  0  3.817659  0  0  -0.041168  0  3.825786  0  0  -0.060613  -0.050342  0  3.810727  0
C  C66  1  0.06538100  0.69668387  0.69911586  1  0  -0.138358  0  3.533148  0  0  -0.199324  0  3.788196  0  0  -0.200156  0  3.792317  0  0  -0.065911  -0.199027  0  3.785436  0
C  C67  1  0.93461806  0.30332001  0.30088448  1  0  -0.138353  0  3.533121  0  0  -0.199243  0  3.788176  0  0  -0.200078  0  3.7923  0  0  -0.065916  -0.198958  0  3.785421  0
C  C68  1  0.17621131  0.80807804  0.70790907  1  0  0.687612  0  3.896064  0  0  0.635892  0  4.214762  0  0  0.669713  0  4.204602  0  0  0.205226  0.613398  0  4.220554  0
C  C69  1  0.82378816  0.19192462  0.29209061  1  0  0.687645  0  3.896053  0  0  0.635908  0  4.214744  0  0  0.66973  0  4.204582  0  0  0.205231  0.613416  0  4.220536  0
S  S70  1  0.13494063  0.71232802  0.40138642  1  0  1.334578  0  5.629995  0  0  1.239838  0  6.150995  0  0  1.28737  0  6.125946  0  0  0.511269  1.206971  0  6.167459  0
S  S71  1  0.86506186  0.28766973  0.59861466  1  0  1.334541  0  5.629919  0  0  1.239786  0  6.150904  0  0  1.287316  0  6.125866  0  0  0.511251  1.20692  0  6.16737  0
N  N72  1  0.17874559  0.54814865  0.64631447  1  0  -0.263408  0  3.308533  0  0  -0.198631  0  3.519531  0  0  -0.212295  0  3.52735  0  0  -0.474374  -0.18932  0  3.51323  0
N  N73  1  0.82125261  0.45185398  0.35368678  1  0  -0.263307  0  3.308514  0  0  -0.198734  0  3.519703  0  0  -0.212398  0  3.527524  0  0  -0.474427  -0.189412  0  3.513404  0
O  O74  1  0.22210574  0.15072296  0.73140899  1  0  -0.52078  0  2.148744  0  0  -0.473867  0  2.38019  0  0  -0.494387  0  2.370981  0  0  -0.337803  -0.459748  0  2.384395  0
O  O75  1  0.77789546  0.84927847  0.26859056  1  0  -0.52074  0  2.148735  0  0  -0.473829  0  2.380195  0  0  -0.494351  0  2.370992  0  0  -0.337781  -0.459712  0  2.3844  0
O  O76  1  0.25225880  0.36797597  0.13541631  1  0  -0.510087  0  1.923914  0  0  -0.470612  0  2.143277  0  0  -0.488529  0  2.13674  0  0  -0.299727  -0.45899  0  2.14708  0
O  O77  1  0.74774241  0.63202546  0.86458395  1  0  -0.510086  0  1.923904  0  0  -0.470609  0  2.143262  0  0  -0.488526  0  2.136725  0  0  -0.29975  -0.458993  0  2.147076  0
O  O78  1  0.30269800  0.58771878  0.86243143  1  0  -0.197773  0  2.49925  0  0  -0.118156  0  2.728021  0  0  -0.138319  0  2.733635  0  0  -0.111966  -0.103997  0  2.723629  0
O  O79  1  0.69730533  0.41228021  0.13756733  1  0  -0.197817  0  2.499325  0  0  -0.118197  0  2.728098  0  0  -0.138358  0  2.733714  0  0  -0.111975  -0.104039  0  2.723703  0
O  O80  1  0.31531254  0.98123631  0.32587334  1  0  -0.555061  0  2.120628  0  0  -0.515397  0  2.344623  0  0  -0.530513  0  2.331202  0  0  -0.383096  -0.50478  0  2.354112  0
O  O81  1  0.68468172  0.01876263  0.67412800  1  0  -0.555054  0  2.120826  0  0  -0.515451  0  2.344757  0  0  -0.530535  0  2.331384  0  0  -0.383068  -0.504831  0  2.354244  0
O  O82  1  0.08438491  0.56354158  0.39900042  1  0  -0.667867  0  1.965642  0  0  -0.615788  0  2.20708  0  0  -0.636064  0  2.192468  0  0  -0.344257  -0.601558  0  2.21636  0
O  O83  1  0.91561541  0.43645492  0.60100103  1  0  -0.667842  0  1.965655  0  0  -0.615748  0  2.207086  0  0  -0.636026  0  2.192478  0  0  -0.344226  -0.601521  0  2.216366  0
O  O84  1  0.28338708  0.68112569  0.45610459  1  0  -0.719292  0  1.962052  0  0  -0.67386  0  2.214635  0  0  -0.693659  0  2.198856  0  0  -0.391117  -0.659822  0  2.225214  0
O  O85  1  0.71661498  0.31887328  0.54389574  1  0  -0.71927  0  1.962081  0  0  -0.673855  0  2.214676  0  0  -0.693655  0  2.198898  0  0  -0.391091  -0.659813  0  2.225254  0
O  O86  1  0.97832642  0.85317600  0.43697264  1  0  -0.717183  0  1.93679  0  0  -0.674097  0  2.194161  0  0  -0.693392  0  2.177707  0  0  -0.376925  -0.660324  0  2.204792  0
O  O87  1  0.02167347  0.14682173  0.56302877  1  0  -0.717176  0  1.936691  0  0  -0.674089  0  2.194065  0  0  -0.693385  0  2.177614  0  0  -0.376948  -0.660311  0  2.204684  0
O  O88  1  0.10090250  0.91148057  0.77257772  1  0  -0.615398  0  1.9953  0  0  -0.562878  0  2.227907  0  0  -0.589732  0  2.221087  0  0  -0.320333  -0.545439  0  2.23178  0
O  O89  1  0.89909740  0.08852086  0.22742200  1  0  -0.615452  0  1.995339  0  0  -0.562918  0  2.227934  0  0  -0.589768  0  2.221114  0  0  -0.320355  -0.545479  0  2.231807  0
O  O90  1  0.32616232  0.79548001  0.64951222  1  0  -0.706738  0  1.920275  0  0  -0.662762  0  2.15956  0  0  -0.683914  0  2.145189  0  0  -0.407566  -0.648071  0  2.168236  0
O  O91  1  0.67383844  0.20451896  0.35048829  1  0  -0.706756  0  1.920296  0  0  -0.66278  0  2.159596  0  0  -0.683931  0  2.145224  0  0  -0.40756  -0.64809  0  2.168271  0
O  O92  1  0.63169923  0.80568628  0.51292674  1  0  -0.893309  0  1.769376  0  0  -0.855674  0  1.935235  0  0  -0.869399  0  1.903536  0  0  -0.666165  -0.845731  0  1.95752  0
O  O93  1  0.36829980  0.19431392  0.48707319  1  0  -0.893299  0  1.769396  0  0  -0.855662  0  1.935254  0  0  -0.869386  0  1.903554  0  0  -0.666153  -0.845719  0  1.957541  0
