# generated using pymatgen
data_SrH10C6(N2O3)4
_symmetry_space_group_name_H-M   'P 1'
_cell_length_a   6.32617493
_cell_length_b   8.96559980
_cell_length_c   14.77448437
_cell_angle_alpha   74.87732321
_cell_angle_beta   77.65472781
_cell_angle_gamma   69.35682337
_symmetry_Int_Tables_number   1
_chemical_formula_structural   SrH10C6(N2O3)4
_chemical_formula_sum   'Sr2 H20 C12 N16 O24'
_cell_volume   750.10368958
_cell_formula_units_Z   2
loop_
 _symmetry_equiv_pos_site_id
 _symmetry_equiv_pos_as_xyz
  1  'x, y, z'
loop_
 _atom_site_type_symbol
 _atom_site_label
 _atom_site_symmetry_multiplicity
 _atom_site_fract_x
 _atom_site_fract_y
 _atom_site_fract_z
 _atom_site_occupancy
 _atom_site_hle17_bader_spin_density
 _atom_site_hle17_ddec_charge
 _atom_site_hle17_ddec_spin_density
 _atom_site_hle17_ddec_sum_bond_order
 _atom_site_hle17_magmom
 _atom_site_hse06_10hf_bader_spin_density
 _atom_site_hse06_10hf_ddec_charge
 _atom_site_hse06_10hf_ddec_spin_density
 _atom_site_hse06_10hf_ddec_sum_bond_order
 _atom_site_hse06_10hf_magmom
 _atom_site_hse06_bader_spin_density
 _atom_site_hse06_ddec_charge
 _atom_site_hse06_ddec_spin_density
 _atom_site_hse06_ddec_sum_bond_order
 _atom_site_hse06_magmom
 _atom_site_pbe_bader_spin_density
 _atom_site_pbe_cm5_charge
 _atom_site_pbe_ddec_charge
 _atom_site_pbe_ddec_spin_density
 _atom_site_pbe_ddec_sum_bond_order
 _atom_site_pbe_magmom
Sr  Sr0  1  0.16423879  0.24999327  0.74999893  1  0  1.573821  0  1.043896  0  0  1.41106  0  1.417659  0  0  1.448957  0  1.37354  0  0  0.878471  1.382934  0  1.449447  0
Sr  Sr1  1  0.83575956  0.75000696  0.25000102  1  0  1.573816  0  1.043923  0  0  1.411175  0  1.417556  0  0  1.448979  0  1.373533  0  0  0.878471  1.382959  0  1.449444  0
H  H2  1  0.39517969  0.33777002  0.90990221  1  0  0.409291  0  0.901943  0  0  0.362712  0  0.993283  0  0  0.374171  0  0.976644  0  0  0.288744  0.354539  0  1.005143  0
H  H3  1  0.64253358  0.16227447  0.59003369  1  0  0.409455  0  0.90178  0  0  0.362933  0  0.993122  0  0  0.374338  0  0.976579  0  0  0.288775  0.354753  0  1.004993  0
H  H4  1  0.60482081  0.66222534  0.09009832  1  0  0.409291  0  0.901939  0  0  0.362716  0  0.993271  0  0  0.374175  0  0.976631  0  0  0.288736  0.354543  0  1.005131  0
H  H5  1  0.35746276  0.83772698  0.40996598  1  0  0.409465  0  0.901755  0  0  0.362923  0  0.993134  0  0  0.37435  0  0.976551  0  0  0.28879  0.354767  0  1.004965  0
H  H6  1  0.46206597  0.41061623  0.80355215  1  0  0.425426  0  0.832207  0  0  0.400836  0  0.898881  0  0  0.409545  0  0.888983  0  0  0.317864  0.394893  0  0.905543  0
H  H7  1  0.67573757  0.08940268  0.69640137  1  0  0.424108  0  0.833256  0  0  0.399744  0  0.899493  0  0  0.408392  0  0.889741  0  0  0.317269  0.393422  0  0.90667  0
H  H8  1  0.53793585  0.58938278  0.19644825  1  0  0.425424  0  0.83223  0  0  0.400865  0  0.898839  0  0  0.409541  0  0.889009  0  0  0.317859  0.394889  0  0.905572  0
H  H9  1  0.32426293  0.91059755  0.30359806  1  0  0.424099  0  0.833262  0  0  0.399737  0  0.899494  0  0  0.408383  0  0.889745  0  0  0.317266  0.393415  0  0.906673  0
H  H10  1  0.89974282  0.01460564  0.89824912  1  0  0.426419  0  0.854273  0  0  0.391288  0  0.931708  0  0  0.401539  0  0.916387  0  0  0.301561  0.383973  0  0.942593  0
H  H11  1  0.81227295  0.48537438  0.60179366  1  0  0.427223  0  0.854383  0  0  0.392417  0  0.930197  0  0  0.402582  0  0.915005  0  0  0.301588  0.384805  0  0.941747  0
H  H12  1  0.10026023  0.98539215  0.10175075  1  0  0.426461  0  0.854228  0  0  0.391329  0  0.93165  0  0  0.401578  0  0.916334  0  0  0.301581  0.384015  0  0.942532  0
H  H13  1  0.18772809  0.51462463  0.39820591  1  0  0.427209  0  0.854362  0  0  0.39239  0  0.930231  0  0  0.402565  0  0.915019  0  0  0.301572  0.384787  0  0.941764  0
H  H14  1  0.71817957  0.16874286  0.84840363  1  0  0.426712  0  0.874096  0  0  0.396462  0  0.936986  0  0  0.407282  0  0.921308  0  0  0.293672  0.388854  0  0.947966  0
H  H15  1  0.73499640  0.33122979  0.65159961  1  0  0.42643  0  0.874602  0  0  0.396779  0  0.936725  0  0  0.407529  0  0.92113  0  0  0.293326  0.389039  0  0.947914  0
H  H16  1  0.28182146  0.83125616  0.15159594  1  0  0.426699  0  0.874115  0  0  0.396448  0  0.937006  0  0  0.407268  0  0.921327  0  0  0.293662  0.388841  0  0.947985  0
H  H17  1  0.26500410  0.66877044  0.34839982  1  0  0.426413  0  0.874627  0  0  0.396756  0  0.936761  0  0  0.407512  0  0.921154  0  0  0.293314  0.389022  0  0.94794  0
H  H18  1  0.75130292  0.66594612  0.74099624  1  0  0.125607  0  0.970759  0  0  0.123996  0  1.046126  0  0  0.128018  0  1.042088  0  0  0.125445  0.120942  0  1.049405  0
H  H19  1  0.15788347  0.83410862  0.75902378  1  0  0.125607  0  0.970348  0  0  0.12355  0  1.046318  0  0  0.127764  0  1.042011  0  0  0.125383  0.120541  0  1.04917  0
H  H20  1  0.24869306  0.33404924  0.25900234  1  0  0.125584  0  0.97078  0  0  0.123967  0  1.046159  0  0  0.127977  0  1.042145  0  0  0.125403  0.120905  0  1.049471  0
H  H21  1  0.84211124  0.16590013  0.24097668  1  0  0.125594  0  0.970347  0  0  0.123558  0  1.046263  0  0  0.12775  0  1.042012  0  0  0.125413  0.120525  0  1.049174  0
C  C22  1  0.81365567  0.46462600  0.94987128  1  0  0.341647  0  3.765702  0  0  0.289255  0  4.064594  0  0  0.294193  0  4.084196  0  0  0.296235  0.285418  0  4.051877  0
C  C23  1  0.22791971  0.03535301  0.55013644  1  0  0.33973  0  3.769406  0  0  0.286524  0  4.069101  0  0  0.292753  0  4.087691  0  0  0.296196  0.283782  0  4.055411  0
C  C24  1  0.18634378  0.53536814  0.05012774  1  0  0.341649  0  3.765754  0  0  0.289332  0  4.064567  0  0  0.294268  0  4.084167  0  0  0.296228  0.285489  0  4.05186  0
C  C25  1  0.77207610  0.96464965  0.44986308  1  0  0.339669  0  3.769309  0  0  0.286527  0  4.068939  0  0  0.292701  0  4.087628  0  0  0.296197  0.283732  0  4.055338  0
C  C26  1  0.75128792  0.62153010  0.81665581  1  0  0.058734  0  3.609258  0  0  0.012432  0  3.891875  0  0  0.018894  0  3.905128  0  0  0.045923  0.00773  0  3.883239  0
C  C27  1  0.18911810  0.87851513  0.68336017  1  0  0.059596  0  3.60906  0  0  0.013454  0  3.891749  0  0  0.020181  0  3.90474  0  0  0.047173  0.010539  0  3.880892  0
C  C28  1  0.24871569  0.37846282  0.18334298  1  0  0.058764  0  3.609218  0  0  0.012506  0  3.891767  0  0  0.018946  0  3.905067  0  0  0.045887  0.007769  0  3.883193  0
C  C29  1  0.81087582  0.12149362  0.31663946  1  0  0.059675  0  3.609032  0  0  0.013869  0  3.891705  0  0  0.020327  0  3.904631  0  0  0.047208  0.010696  0  3.880787  0
C  C30  1  0.64157574  0.70436843  0.89151913  1  0  0.163608  0  3.735677  0  0  0.121275  0  4.030654  0  0  0.118317  0  4.052848  0  0  0.180092  0.12338  0  4.015461  0
C  C31  1  0.23731459  0.79559121  0.60852191  1  0  0.160869  0  3.739636  0  0  0.119505  0  4.035089  0  0  0.115626  0  4.057871  0  0  0.179383  0.12207  0  4.01844  0
C  C32  1  0.35842693  0.29562815  0.10847855  1  0  0.163577  0  3.735535  0  0  0.121291  0  4.030648  0  0  0.118346  0  4.052825  0  0  0.180146  0.123416  0  4.015422  0
C  C33  1  0.76268241  0.20441389  0.39147830  1  0  0.160974  0  3.739539  0  0  0.11828  0  4.035786  0  0  0.115567  0  4.057808  0  0  0.179382  0.122011  0  4.018391  0
N  N34  1  0.86252399  0.46709768  0.85533443  1  0  -0.43916  0  3.074472  0  0  -0.393259  0  3.357071  0  0  -0.407587  0  3.372798  0  0  -0.367013  -0.383194  0  3.346612  0
N  N35  1  0.18461781  0.03296336  0.64466927  1  0  -0.440436  0  3.075206  0  0  -0.394552  0  3.358438  0  0  -0.40891  0  3.373629  0  0  -0.367582  -0.384002  0  3.346597  0
N  N36  1  0.13748108  0.53289525  0.14466450  1  0  -0.439158  0  3.074545  0  0  -0.393233  0  3.357011  0  0  -0.407585  0  3.372791  0  0  -0.366958  -0.383191  0  3.346616  0
N  N37  1  0.81537665  0.96704417  0.35533050  1  0  -0.440498  0  3.075279  0  0  -0.394598  0  3.358438  0  0  -0.409014  0  3.373758  0  0  -0.367652  -0.384105  0  3.346717  0
N  N38  1  0.68074454  0.60379658  0.97639289  1  0  -0.425821  0  3.07772  0  0  -0.390715  0  3.356969  0  0  -0.400943  0  3.373279  0  0  -0.313994  -0.383207  0  3.345767  0
N  N39  1  0.26083903  0.89611607  0.52363802  1  0  -0.425615  0  3.081359  0  0  -0.390354  0  3.360815  0  0  -0.400719  0  3.377105  0  0  -0.314553  -0.383603  0  3.349872  0
N  N40  1  0.31925585  0.39619878  0.02360613  1  0  -0.42584  0  3.077783  0  0  -0.390763  0  3.357041  0  0  -0.400996  0  3.373354  0  0  -0.313993  -0.383253  0  3.345826  0
N  N41  1  0.73916506  0.10388781  0.47636225  1  0  -0.425591  0  3.081133  0  0  -0.390044  0  3.36081  0  0  -0.400637  0  3.376865  0  0  -0.314512  -0.383516  0  3.349627  0
N  N42  1  0.89495384  0.31980788  0.01823881  1  0  0.420362  0  3.964361  0  0  0.460971  0  4.25438  0  0  0.480896  0  4.263633  0  0  0.049675  0.447789  0  4.247954  0
N  N43  1  0.23292232  0.18011178  0.48173651  1  0  0.423814  0  3.963145  0  0  0.465121  0  4.251731  0  0  0.482821  0  4.261421  0  0  0.051178  0.451595  0  4.245389  0
N  N44  1  0.10504813  0.68018748  0.98176187  1  0  0.420323  0  3.964344  0  0  0.460931  0  4.254347  0  0  0.480859  0  4.263596  0  0  0.049698  0.447751  0  4.24792  0
N  N45  1  0.76707535  0.81989331  0.51826303  1  0  0.423769  0  3.9635  0  0  0.464984  0  4.252266  0  0  0.482674  0  4.261917  0  0  0.051156  0.451467  0  4.24587  0
N  N46  1  0.49590723  0.86710527  0.88576806  1  0  0.461734  0  3.981717  0  0  0.506211  0  4.258735  0  0  0.525668  0  4.268854  0  0  0.052992  0.491756  0  4.251989  0
N  N47  1  0.24872882  0.63280393  0.61435268  1  0  0.464439  0  3.978479  0  0  0.505049  0  4.258215  0  0  0.526435  0  4.267988  0  0  0.053832  0.492529  0  4.250718  0
N  N48  1  0.50409248  0.13289009  0.11423165  1  0  0.462009  0  3.98141  0  0  0.506172  0  4.258854  0  0  0.525604  0  4.26898  0  0  0.053018  0.491712  0  4.252101  0
N  N49  1  0.75127391  0.36719995  0.38564895  1  0  0.464315  0  3.978614  0  0  0.507443  0  4.257475  0  0  0.526628  0  4.267746  0  0  0.053883  0.492701  0  4.250491  0
O  O50  1  0.02908281  0.19614228  0.98937204  1  0  -0.353739  0  1.824008  0  0  -0.341202  0  2.048557  0  0  -0.35214  0  2.04387  0  0  -0.106687  -0.333836  0  2.051602  0
O  O51  1  0.21433565  0.30385410  0.51058488  1  0  -0.354722  0  1.822675  0  0  -0.342288  0  2.04632  0  0  -0.351916  0  2.04129  0  0  -0.107157  -0.334797  0  2.051285  0
O  O52  1  0.97091619  0.80385186  0.01063067  1  0  -0.353634  0  1.823813  0  0  -0.341198  0  2.048476  0  0  -0.35214  0  2.043787  0  0  -0.106689  -0.333821  0  2.051489  0
O  O53  1  0.78566335  0.69615465  0.48941452  1  0  -0.35464  0  1.822919  0  0  -0.34218  0  2.04663  0  0  -0.351814  0  2.041601  0  0  -0.107132  -0.334699  0  2.051577  0
O  O54  1  0.82674386  0.32479167  0.10346458  1  0  -0.353681  0  1.810881  0  0  -0.335639  0  2.02786  0  0  -0.347011  0  2.026454  0  0  -0.127163  -0.327905  0  2.028948  0
O  O55  1  0.25528249  0.17500848  0.39650134  1  0  -0.354048  0  1.809011  0  0  -0.336316  0  2.025627  0  0  -0.346685  0  2.024112  0  0  -0.127765  -0.329286  0  2.027217  0
O  O56  1  0.17325356  0.67520734  0.89653537  1  0  -0.353717  0  1.810865  0  0  -0.335644  0  2.02785  0  0  -0.347006  0  2.026426  0  0  -0.127175  -0.327894  0  2.02891  0
O  O57  1  0.74471665  0.82499175  0.60349944  1  0  -0.35408  0  1.809065  0  0  -0.336296  0  2.025733  0  0  -0.346646  0  2.024195  0  0  -0.127774  -0.329265  0  2.027305  0
O  O58  1  0.47170210  0.95340822  0.80383040  1  0  -0.443587  0  1.836557  0  0  -0.412793  0  2.062  0  0  -0.428987  0  2.058073  0  0  -0.165056  -0.40113  0  2.064702  0
O  O59  1  0.22829873  0.54677706  0.69634234  1  0  -0.444614  0  1.837047  0  0  -0.411987  0  2.062703  0  0  -0.429399  0  2.059007  0  0  -0.165536  -0.402124  0  2.065651  0
O  O60  1  0.52829639  0.04658836  0.19616984  1  0  -0.443652  0  1.836507  0  0  -0.412758  0  2.062078  0  0  -0.428944  0  2.05815  0  0  -0.16506  -0.401105  0  2.064796  0
O  O61  1  0.77169287  0.45323412  0.30365986  1  0  -0.444574  0  1.837091  0  0  -0.413183  0  2.062707  0  0  -0.429504  0  2.058965  0  0  -0.165621  -0.402205  0  2.065585  0
O  O62  1  0.39640440  0.91643967  0.95914558  1  0  -0.31288  0  1.8097  0  0  -0.297571  0  2.016001  0  0  -0.306926  0  2.012758  0  0  -0.101512  -0.290286  0  2.018003  0
O  O63  1  0.27256569  0.58318189  0.54101538  1  0  -0.313253  0  1.806727  0  0  -0.295654  0  2.012783  0  0  -0.306273  0  2.009726  0  0  -0.101633  -0.290067  0  2.016913  0
O  O64  1  0.60359878  0.08355447  0.04085457  1  0  -0.313032  0  1.809616  0  0  -0.297586  0  2.016056  0  0  -0.306923  0  2.01281  0  0  -0.101532  -0.290294  0  2.018055  0
O  O65  1  0.72744225  0.41681712  0.45898862  1  0  -0.313211  0  1.806681  0  0  -0.296921  0  2.012776  0  0  -0.30635  0  2.009579  0  0  -0.101621  -0.29013  0  2.016769  0
O  O66  1  0.44274362  0.31065788  0.84535325  1  0  -0.840557  0  1.875346  0  0  -0.780723  0  2.071332  0  0  -0.800549  0  2.043059  0  0  -0.582249  -0.766671  0  2.090961  0
O  O67  1  0.59815802  0.18932357  0.65460020  1  0  -0.839446  0  1.876223  0  0  -0.780115  0  2.072069  0  0  -0.799973  0  2.043971  0  0  -0.581953  -0.765841  0  2.092255  0
O  O68  1  0.55725527  0.68934113  0.15464685  1  0  -0.840565  0  1.875393  0  0  -0.780702  0  2.071303  0  0  -0.800555  0  2.043102  0  0  -0.582224  -0.766676  0  2.091008  0
O  O69  1  0.40184180  0.81067666  0.34539990  1  0  -0.839436  0  1.876195  0  0  -0.780109  0  2.072051  0  0  -0.799963  0  2.043942  0  0  -0.581961  -0.765829  0  2.092224  0
O  O70  1  0.87633098  0.09308201  0.83826697  1  0  -0.876642  0  1.79893  0  0  -0.818802  0  1.989221  0  0  -0.83861  0  1.958061  0  0  -0.627822  -0.804229  0  2.010984  0
O  O71  1  0.80738921  0.40687735  0.66176824  1  0  -0.876471  0  1.79952  0  0  -0.819399  0  1.987181  0  0  -0.839293  0  1.956225  0  0  -0.627132  -0.805152  0  2.009515  0
O  O72  1  0.12367085  0.90691700  0.16173343  1  0  -0.87667  0  1.798902  0  0  -0.818824  0  1.989179  0  0  -0.838632  0  1.958017  0  0  -0.627821  -0.804255  0  2.010955  0
O  O73  1  0.19260940  0.59312409  0.33823240  1  0  -0.876444  0  1.799504  0  0  -0.819364  0  1.987172  0  0  -0.839268  0  1.956237  0  0  -0.627115  -0.805126  0  2.009526  0
