# generated using pymatgen
data_ZnH16C21N2O7
_symmetry_space_group_name_H-M   'P 1'
_cell_length_a   9.79153095
_cell_length_b   11.12893460
_cell_length_c   23.79385013
_cell_angle_alpha   89.21259772
_cell_angle_beta   78.17703385
_cell_angle_gamma   84.55215084
_symmetry_Int_Tables_number   1
_chemical_formula_structural   ZnH16C21N2O7
_chemical_formula_sum   'Zn2 H32 C42 N4 O14'
_cell_volume   2526.28749132
_cell_formula_units_Z   2
loop_
 _symmetry_equiv_pos_site_id
 _symmetry_equiv_pos_as_xyz
  1  'x, y, z'
loop_
 _atom_site_type_symbol
 _atom_site_label
 _atom_site_symmetry_multiplicity
 _atom_site_fract_x
 _atom_site_fract_y
 _atom_site_fract_z
 _atom_site_occupancy
 _atom_site_pbe_bader_charge
 _atom_site_pbe_bader_spin_density
 _atom_site_pbe_cm5_charge
 _atom_site_pbe_ddec_charge
 _atom_site_pbe_ddec_spin_density
 _atom_site_pbe_ddec_sum_bond_order
 _atom_site_pbe_magmom
Zn  Zn0  1  0.64896913  0.51128529  0.48087830  1  1.298332  0  0.672913  0.82839  0  2.396206  0
Zn  Zn1  1  0.35402244  0.48425757  0.51528071  1  1.299581  0  0.671978  0.828829  0  2.383693  0
H  H2  1  0.49105920  0.80581563  0.94489826  1  0.124944  0  0.119134  0.124559  0  0.97672  0
H  H3  1  0.49964061  0.19945501  0.05288165  1  0.156389  0  0.118854  0.123948  0  0.977857  0
H  H4  1  0.48058709  0.80519822  0.05221757  1  0.128226  0  0.118739  0.123939  0  0.976367  0
H  H5  1  0.51167964  0.19994163  0.94545278  1  0.121844  0  0.118644  0.123831  0  0.977272  0
H  H6  1  0.67723560  0.39686274  0.20088713  1  0.084363  0  0.109953  0.120807  0  0.98194  0
H  H7  1  0.31293406  0.60243008  0.79546598  1  0.068445  0  0.109703  0.120904  0  0.982862  0
H  H8  1  0.67226523  0.40276437  0.30630662  1  0.08421  0  0.109925  0.114909  0  0.987256  0
H  H9  1  0.31965094  0.59067651  0.69004126  1  0.108606  0  0.109919  0.115923  0  0.985491  0
H  H10  1  0.27675259  0.60910151  0.23077330  1  0.089953  0  0.116005  0.140955  0  0.975561  0
H  H11  1  0.71953306  0.40063972  0.76806631  1  0.097363  0  0.114852  0.13848  0  0.976186  0
H  H12  1  0.39256965  0.10779034  0.50095203  1  0.092583  0  0.105693  0.101983  0  1.005836  0
H  H13  1  0.62143080  0.88767422  0.48661697  1  0.127438  0  0.108208  0.108265  0  0.988889  0
H  H14  1  0.71475123  0.09490313  0.48089660  1  0.041355  0  0.104582  0.121075  0  0.989502  0
H  H15  1  0.29840582  0.90314191  0.51206599  1  0.089846  0  0.105345  0.122965  0  0.988771  0
H  H16  1  0.87130642  0.42638050  0.52592895  1  0.149122  0  0.131236  0.104234  0  1.014659  0
H  H17  1  0.13523077  0.55281529  0.46248782  1  0.167549  0  0.132252  0.106548  0  1.020142  0
H  H18  1  0.80160762  0.61302590  0.35713324  1  0.065654  0  0.093255  0.136851  0  1.002939  0
H  H19  1  0.72270624  0.72944771  0.40665204  1  0.072739  0  0.089388  0.129976  0  1.032329  0
H  H20  1  0.87538731  0.75377322  0.35378893  1  0.032529  0  0.092001  0.123958  0  0.994586  0
H  H21  1  0.93726494  0.71706506  0.44967837  1  0.049175  0  0.113001  0.086048  0  0.949118  0
H  H22  1  0.02058313  0.60444705  0.39889116  1  0.10863  0  0.111914  0.089377  0  1.004096  0
H  H23  1  0.23643618  0.21556234  0.56121443  1  0.046697  0  0.087494  0.121285  0  1.03012  0
H  H24  1  0.26695088  0.31865294  0.61253092  1  0.081782  0  0.093903  0.140357  0  1.019071  0
H  H25  1  0.13009280  0.22177422  0.63169838  1  0.035558  0  0.093707  0.125236  0  0.992138  0
H  H26  1  0.02953211  0.42970536  0.61436132  1  0.096983  0  0.122482  0.108589  0  0.936732  0
H  H27  1  0.99619201  0.32495520  0.56522368  1  0.037836  0  0.107406  0.07308  0  1.002038  0
H  H28  1  0.34555076  0.71753184  0.39513872  1  0.059498  0  0.094948  0.10133  0  1.028751  0
H  H29  1  0.17462553  0.77904476  0.38837012  1  0.061605  0  0.102934  0.103822  0  0.994316  0
H  H30  1  0.32160247  0.79855817  0.33111978  1  0.044896  0  0.099904  0.10007  0  0.981216  0
H  H31  1  0.82802882  0.22035542  0.61504492  1  0.067628  0  0.102427  0.104828  0  0.993592  0
H  H32  1  0.66428913  0.28429678  0.60080574  1  0.062379  0  0.09413  0.101337  0  1.02773  0
H  H33  1  0.67076495  0.20798799  0.66778707  1  0.0537  0  0.100265  0.100475  0  0.982527  0
C  C34  1  0.42986722  0.73007907  0.50351956  1  1.51842  0  0.203656  0.624249  0  4.199619  0
C  C35  1  0.58136590  0.26699532  0.49024284  1  1.556944  0  0.202915  0.622062  0  4.200764  0
C  C36  1  0.58909557  0.44383399  0.23030205  1  0.04027  0  -0.091209  -0.169287  0  3.999587  0
C  C37  1  0.40304029  0.55691421  0.76653376  1  0.038669  0  -0.092257  -0.172321  0  4.00029  0
C  C38  1  0.58597018  0.44698298  0.28888317  1  -0.064229  0  -0.078501  -0.060315  0  3.992255  0
C  C39  1  0.40726147  0.55059730  0.70790583  1  -0.070315  0  -0.07981  -0.063249  0  3.989643  0
C  C40  1  0.47279894  0.50589019  0.32767771  1  0.053787  0  -0.020671  -0.136567  0  3.929588  0
C  C41  1  0.52281193  0.49299327  0.66980538  1  0.051465  0  -0.02006  -0.131587  0  3.925216  0
C  C42  1  0.36091184  0.56483202  0.30575500  1  0.516767  0  0.09204  0.256826  0  4.008875  0
C  C43  1  0.63590483  0.43868948  0.69244165  1  0.475522  0  0.090308  0.252669  0  4.016412  0
C  C44  1  0.36309043  0.56142449  0.24688099  1  0.011706  0  -0.091023  -0.261281  0  3.9462  0
C  C45  1  0.63249085  0.44531535  0.75132354  1  0.063086  0  -0.091243  -0.260132  0  3.950452  0
C  C46  1  0.47648769  0.50130869  0.20969098  1  0.248447  0  0.088828  0.21333  0  4.031612  0
C  C47  1  0.51670637  0.50367871  0.78784309  1  0.27435  0  0.088952  0.210761  0  4.029781  0
C  C48  1  0.40707801  0.86360246  0.50344596  1  -0.020801  0  -0.092323  -0.230358  0  3.889488  0
C  C49  1  0.60580339  0.13347645  0.48791513  1  -0.009468  0  -0.09129  -0.224953  0  3.884925  0
C  C50  1  0.51531825  0.93325265  0.49411245  1  -0.053912  0  -0.07612  -0.032217  0  4.025984  0
C  C51  1  0.49882519  0.06279807  0.49452366  1  -0.084957  0  -0.075897  -0.029813  0  4.025312  0
C  C52  1  0.07630307  0.49836718  0.49575736  1  0.627644  0  0.096286  0.090298  0  3.840288  0
C  C53  1  0.92822586  0.48867705  0.49614245  1  0.627319  0  0.095242  0.092332  0  3.84524  0
C  C54  1  0.47846288  0.50046843  0.39029906  1  1.595108  0  0.217216  0.605768  0  4.176209  0
C  C55  1  0.51851796  0.49454787  0.60701116  1  1.573811  0  0.21609  0.604706  0  4.175813  0
C  C56  1  0.51066265  0.39030251  0.87662703  1  1.306037  0  0.244775  0.433787  0  4.092435  0
C  C57  1  0.48191489  0.61504177  0.12096464  1  1.34584  0  0.244261  0.436344  0  4.094843  0
C  C58  1  0.50609888  0.61658114  0.87622682  1  1.327122  0  0.244909  0.433567  0  4.096817  0
C  C59  1  0.48355381  0.38896236  0.12158266  1  1.346587  0  0.24416  0.435757  0  4.097052  0
C  C60  1  0.49823130  0.61402036  0.93914086  1  -0.015661  0  -0.002976  -0.05834  0  3.987228  0
C  C61  1  0.49238015  0.39128020  0.05861722  1  -0.06913  0  -0.003264  -0.058286  0  3.986369  0
C  C62  1  0.49876277  0.50280866  0.96866486  1  0.014649  0  0.004277  0.031671  0  4.004481  0
C  C63  1  0.49237820  0.50245954  0.02903957  1  0.022869  0  0.004709  0.029755  0  4.004476  0
C  C64  1  0.50549047  0.39193723  0.93933714  1  0.003255  0  -0.003274  -0.060494  0  3.98902  0
C  C65  1  0.48617284  0.61327335  0.05832101  1  -0.05363  0  -0.003471  -0.057363  0  3.984953  0
C  C66  1  0.49139505  0.72172000  0.96891934  1  -0.016892  0  -0.062033  -0.069432  0  3.931382  0
C  C67  1  0.49955032  0.28353063  0.02882936  1  -0.049649  0  -0.061325  -0.067665  0  3.930756  0
C  C68  1  0.48550479  0.72139487  0.02837873  1  -0.014126  0  -0.061465  -0.068504  0  3.929196  0
C  C69  1  0.50616947  0.28382075  0.96930503  1  -0.016738  0  -0.061717  -0.068867  0  3.931176  0
C  C70  1  0.91794714  0.64165364  0.42360196  1  0.242526  0  -0.061445  0.003886  0  3.924462  0
C  C71  1  0.82335484  0.68703632  0.38297359  1  -0.102455  0  -0.248161  -0.390992  0  3.941205  0
C  C72  1  0.08032946  0.36961622  0.57815024  1  0.27598  0  -0.058575  0.008512  0  3.928062  0
C  C73  1  0.18529948  0.27596776  0.59689888  1  -0.083764  0  -0.245459  -0.386993  0  3.939622  0
C  C74  1  0.27555290  0.73693679  0.36483203  1  0.386672  0  -0.13933  -0.171944  0  3.915944  0
C  C75  1  0.72533729  0.26614735  0.63443413  1  0.362378  0  -0.139436  -0.173178  0  3.915423  0
N  N76  1  0.51209423  0.50367915  0.84888235  1  -1.155854  0  -0.227851  -0.205789  0  3.546108  0
N  N77  1  0.47960494  0.50183750  0.14879506  1  -1.15558  0  -0.226874  -0.218844  0  3.563581  0
N  N78  1  0.14570218  0.44609062  0.53135452  1  -1.14279  0  -0.295781  -0.153721  0  3.357304  0
N  N79  1  0.85647298  0.55028614  0.46402058  1  -1.126764  0  -0.296696  -0.153462  0  3.351328  0
O  O80  1  0.55671292  0.68345816  0.49057564  1  -1.179455  0  -0.32115  -0.564162  0  2.364222  0
O  O81  1  0.45460624  0.31351017  0.49932889  1  -1.18081  0  -0.319378  -0.56303  0  2.351891  0
O  O82  1  0.32148247  0.67199431  0.51607027  1  -1.170255  0  -0.325195  -0.55395  0  2.259599  0
O  O83  1  0.68987044  0.32540299  0.48337181  1  -1.154793  0  -0.325914  -0.558058  0  2.276333  0
O  O84  1  0.60054080  0.49376702  0.40167320  1  -1.15849  0  -0.312846  -0.546984  0  2.348878  0
O  O85  1  0.39751780  0.48893154  0.59544444  1  -1.163821  0  -0.315486  -0.548451  0  2.340231  0
O  O86  1  0.36383541  0.50091433  0.42680231  1  -1.169455  0  -0.31222  -0.552734  0  2.363719  0
O  O87  1  0.63180400  0.50348378  0.57081528  1  -1.177915  0  -0.312225  -0.551658  0  2.335818  0
O  O88  1  0.51303848  0.29645591  0.84974716  1  -1.095807  0  -0.272676  -0.42792  0  2.072576  0
O  O89  1  0.48104349  0.70884626  0.14767644  1  -1.096262  0  -0.273123  -0.428156  0  2.071708  0
O  O90  1  0.50783272  0.71084728  0.84875601  1  -1.099123  0  -0.272619  -0.428501  0  2.06872  0
O  O91  1  0.47959779  0.29493519  0.14923670  1  -1.090624  0  -0.271517  -0.426305  0  2.068948  0
O  O92  1  0.24575110  0.62833107  0.33942974  1  -1.08551  0  -0.2099  -0.206713  0  2.550964  0
O  O93  1  0.75275332  0.37580953  0.65969619  1  -1.08563  0  -0.211932  -0.210863  0  2.543331  0
