# generated using pymatgen
data_Al3H33C56(N3O8)2
_symmetry_space_group_name_H-M   'P 1'
_cell_length_a   13.59951113
_cell_length_b   13.82830454
_cell_length_c   33.48138413
_cell_angle_alpha   83.61879082
_cell_angle_beta   84.08473003
_cell_angle_gamma   62.57147162
_symmetry_Int_Tables_number   1
_chemical_formula_structural   Al3H33C56(N3O8)2
_chemical_formula_sum   'Al6 H66 C112 N12 O32'
_cell_volume   5544.40793172
_cell_formula_units_Z   2
loop_
 _symmetry_equiv_pos_site_id
 _symmetry_equiv_pos_as_xyz
  1  'x, y, z'
loop_
 _atom_site_type_symbol
 _atom_site_label
 _atom_site_symmetry_multiplicity
 _atom_site_fract_x
 _atom_site_fract_y
 _atom_site_fract_z
 _atom_site_occupancy
 _atom_site_pbe_bader_charge
 _atom_site_pbe_bader_spin_density
 _atom_site_pbe_cm5_charge
 _atom_site_pbe_ddec_charge
 _atom_site_pbe_ddec_spin_density
 _atom_site_pbe_ddec_sum_bond_order
 _atom_site_pbe_magmom
Al  Al0  1  0.57682340  0.59355182  0.49019648  1  2.499118  0  0.393051  1.68816  0  2.560472  0
Al  Al1  1  0.57895932  0.35931518  0.50367686  1  2.481007  0  0.503239  1.663465  0  2.508496  0
Al  Al2  1  0.35886852  0.55906511  0.50420900  1  2.482311  0  0.503114  1.658626  0  2.511045  0
Al  Al3  1  0.07464308  0.08091327  0.01391508  1  2.495419  0  0.392965  1.692103  0  2.554267  0
Al  Al4  1  0.30893784  0.08709095  0.00475049  1  2.478513  0  0.503803  1.663703  0  2.503797  0
Al  Al5  1  0.10165824  0.30043410  0.00483836  1  2.479745  0  0.503804  1.661805  0  2.507863  0
H  H6  1  0.15228575  0.42749931  0.89183239  1  0.095647  0  0.111193  0.113555  0  0.995169  0
H  H7  1  0.20309895  0.75904639  0.60158792  1  0.07535  0  0.109299  0.111439  0  0.992638  0
H  H8  1  0.44674740  0.92777622  0.90086513  1  0.08466  0  0.109435  0.111256  0  0.995898  0
H  H9  1  0.51491336  0.77373834  0.66213541  1  0.089277  0  0.108324  0.106679  0  1.01287  0
H  H10  1  0.18178817  0.81089216  0.67276774  1  0.072703  0  0.106662  0.101679  0  1.02223  0
H  H11  1  0.46994336  0.87827648  0.82939952  1  0.122483  0  0.106929  0.104163  0  1.016556  0
H  H12  1  0.12775249  0.93233499  0.91380372  1  0.117529  0  0.113832  0.118038  0  0.998067  0
H  H13  1  0.15029084  0.88213151  0.84215203  1  0.098173  0  0.105678  0.100196  0  1.028026  0
H  H14  1  0.76195483  0.22568632  0.60437065  1  0.092195  0  0.109879  0.113136  0  0.9921  0
H  H15  1  0.72043611  0.55443086  0.59126488  1  0.08309  0  0.115921  0.122577  0  0.989643  0
H  H16  1  0.91893989  0.14893499  0.91557913  1  0.1258  0  0.118108  0.135883  0  1.017458  0
H  H17  1  0.18184883  0.44436784  0.81699940  1  0.081762  0  0.111679  0.117572  0  0.979113  0
H  H18  1  0.82999379  0.20143196  0.67346260  1  0.102522  0  0.107232  0.106693  0  1.007562  0
H  H19  1  0.78260985  0.53296106  0.66140495  1  0.102171  0  0.106727  0.105534  0  1.012189  0
H  H20  1  0.94319832  0.44894531  0.90245466  1  0.065665  0  0.108211  0.114728  0  0.99918  0
H  H21  1  0.91155738  0.46715602  0.82879090  1  0.122932  0  0.106472  0.104084  0  1.013815  0
H  H22  1  0.55603600  0.22533908  0.40520509  1  0.069385  0  0.11229  0.116555  0  0.991271  0
H  H23  1  0.23897846  0.51049651  0.40846471  1  0.126989  0  0.111701  0.119778  0  1.016805  0
H  H24  1  0.45063856  0.12709650  0.10090284  1  0.082809  0  0.113958  0.117729  0  0.988413  0
H  H25  1  0.53875548  0.21285642  0.33251114  1  0.105842  0  0.107449  0.105307  0  1.020301  0
H  H26  1  0.22096460  0.49847559  0.33615061  1  0.080694  0  0.108249  0.106836  0  1.013639  0
H  H27  1  0.48148762  0.16114817  0.16932116  1  0.09038  0  0.108775  0.107136  0  1.009266  0
H  H28  1  0.14841053  0.42791833  0.09773077  1  0.116804  0  0.112813  0.115867  0  0.991926  0
H  H29  1  0.17699915  0.46102597  0.16670275  1  0.111511  0  0.107615  0.104917  0  1.013669  0
H  H30  1  0.12641099  0.92918612  0.12145059  1  0.085222  0  0.111523  0.127252  0  1.028196  0
H  H31  1  0.19858577  0.75961968  0.31882117  1  0.092653  0  0.114143  0.135957  0  0.982176  0
H  H32  1  0.46481322  0.80236945  0.39613532  1  0.097088  0  0.116449  0.126276  0  0.998883  0
H  H33  1  0.46709555  0.87373025  0.18357812  1  0.076841  0  0.106776  0.111381  0  0.995541  0
H  H34  1  0.44780634  0.91898678  0.10926651  1  0.078653  0  0.10826  0.115136  0  0.999134  0
H  H35  1  0.24678629  0.51862585  0.61610261  1  0.116464  0  0.110691  0.125187  0  1.029819  0
H  H36  1  0.94115563  0.43663064  0.11184035  1  0.07796  0  0.109145  0.111471  0  0.996951  0
H  H37  1  0.88856476  0.45604978  0.18564895  1  0.088825  0  0.10441  0.108945  0  1.007059  0
H  H38  1  0.68754109  0.54881273  0.37595201  1  0.103497  0  0.112054  0.122007  0  0.999426  0
H  H39  1  0.78965718  0.20722514  0.40626177  1  0.096476  0  0.11004  0.113522  0  0.992133  0
H  H40  1  0.86928786  0.15188551  0.19523477  1  0.079972  0  0.104431  0.104014  0  1.002698  0
H  H41  1  0.92038242  0.13468739  0.12099602  1  0.097212  0  0.111873  0.114435  0  1.002739  0
H  H42  1  0.84941918  0.16931804  0.33393997  1  0.082145  0  0.106669  0.109774  0  0.98837  0
H  H43  1  0.53177977  0.20453516  0.61057877  1  0.089996  0  0.11071  0.118039  0  0.993512  0
H  H44  1  0.47547935  0.13381435  0.82224174  1  0.094016  0  0.108078  0.111644  0  0.986223  0
H  H45  1  0.44563974  0.11873349  0.89708697  1  0.123823  0  0.11053  0.11195  0  0.999991  0
H  H46  1  0.51036611  0.16982255  0.68519942  1  0.073747  0  0.110371  0.115863  0  0.979511  0
H  H47  1  0.53378421  0.72652894  0.59044032  1  0.124969  0  0.118837  0.12565  0  0.987009  0
H  H48  1  0.81301804  0.09065835  0.88760500  1  0.059695  0  0.105926  0.106115  0  0.977767  0
H  H49  1  0.95820420  0.01475280  0.87382672  1  0.054631  0  0.103486  0.104865  0  1.001274  0
H  H50  1  0.85694759  0.01943712  0.84222414  1  0.067589  0  0.11465  0.121746  0  0.964383  0
H  H51  1  0.08534505  0.58912602  0.65844294  1  0.045041  0  0.103081  0.102322  0  0.979739  0
H  H52  1  0.18102177  0.64270241  0.66385161  1  0.066888  0  0.097106  0.095785  0  1.03767  0
H  H53  1  0.08267413  0.64635970  0.70444873  1  0.031728  0  0.115924  0.12519  0  0.960967  0
H  H54  1  0.05011033  0.83428254  0.16461896  1  0.060529  0  0.102825  0.101747  0  0.981296  0
H  H55  1  0.98986781  0.97758698  0.17184938  1  0.056526  0  0.100125  0.098191  0  1.020528  0
H  H56  1  0.98072186  0.88418460  0.21214559  1  0.079916  0  0.112852  0.119816  0  0.966671  0
H  H57  1  0.04395660  0.84423427  0.40074605  1  0.036311  0  0.092483  0.085411  0  0.99482  0
H  H58  1  0.12947248  0.79363939  0.44347872  1  0.089593  0  0.098757  0.102075  0  1.016168  0
H  H59  1  0.05470924  0.72421169  0.43095077  1  0.071027  0  0.110561  0.116395  0  0.967898  0
H  H60  1  0.33405295  0.00700350  0.28293519  1  0.079392  0  0.099585  0.103227  0  1.011701  0
H  H61  1  0.44592463  0.09723287  0.25171711  1  0.041348  0  0.091046  0.085535  0  1.041709  0
H  H62  1  0.63763259  0.03520785  0.27187991  1  0.060585  0  0.098239  0.093845  0  1.005819  0
H  H63  1  0.71910412  0.87650694  0.32293543  1  0.083223  0  0.099525  0.095198  0  0.994694  0
H  H64  1  0.60929534  0.78251725  0.35255337  1  0.077363  0  0.103784  0.102926  0  1.001345  0
H  H65  1  0.56214466  0.60435483  0.29853344  1  0.052029  0  0.100124  0.101905  0  1.00143  0
H  H66  1  0.53529990  0.75219656  0.24528899  1  0.050661  0  0.092187  0.084814  0  1.055737  0
H  H67  1  0.69844018  0.77101218  0.21157062  1  0.05055  0  0.095876  0.088927  0  1.004668  0
H  H68  1  0.88919241  0.64023239  0.23203617  1  0.058485  0  0.097434  0.091511  0  1.001237  0
H  H69  1  0.91554906  0.49056037  0.28483480  1  0.062479  0  0.101144  0.102583  0  0.995722  0
H  H70  1  0.69843434  0.66146452  0.46048906  1  0.560355  0  0.285831  0.374894  0  0.936526  0
H  H71  1  0.01502530  0.94922719  0.03756682  1  0.581886  0  0.28476  0.372203  0  0.940349  0
C  C72  1  0.69604561  0.40810507  0.55323554  1  1.546311  0  0.269503  0.630871  0  4.098305  0
C  C73  1  0.36740137  0.32473023  0.69328855  1  0.125388  0  -0.000991  0.044609  0  4.088075  0
C  C74  1  0.29118129  0.42437122  0.67348839  1  0.482826  0  0.097921  0.221444  0  4.009889  0
C  C75  1  0.30249376  0.44258356  0.63182150  1  -0.008385  0  -0.099649  -0.232803  0  3.970115  0
C  C76  1  0.23963133  0.37361059  0.83476102  1  0.018956  0  -0.077023  -0.122661  0  3.925233  0
C  C77  1  0.22351496  0.36450481  0.87633338  1  -0.064994  0  -0.074682  -0.07809  0  3.980554  0
C  C78  1  0.38923082  0.19010635  0.87923883  1  -0.013297  0  -0.077025  -0.079547  0  3.986578  0
C  C79  1  0.40558528  0.19836870  0.83767959  1  -0.056636  0  -0.079918  -0.12841  0  3.943394  0
C  C80  1  0.33068859  0.29020057  0.81461612  1  0.06696  0  0.011713  0.155277  0  4.094883  0
C  C81  1  0.34555457  0.29893309  0.77222019  1  -0.030902  0  -0.036471  -0.104485  0  4.089463  0
C  C82  1  0.35685825  0.30859793  0.73552835  1  -0.280127  0  -0.035581  -0.074505  0  4.126256  0
C  C83  1  0.40667664  0.38917943  0.56577603  1  1.531366  0  0.276102  0.646076  0  4.069525  0
C  C84  1  0.29782444  0.27253165  0.89904339  1  0.00049  0  -0.016111  -0.057821  0  3.980682  0
C  C85  1  0.37057852  0.73793868  0.59236848  1  0.001782  0  -0.006997  -0.033415  0  3.960876  0
C  C86  1  0.45748385  0.74498731  0.60898846  1  -0.03717  0  -0.070578  -0.076619  0  3.945484  0
C  C87  1  0.44674623  0.77149548  0.64851315  1  0.033712  0  -0.076337  -0.102351  0  3.957137  0
C  C88  1  0.34786507  0.79296631  0.67190490  1  -0.061955  0  0.000148  0.024846  0  3.98568  0
C  C89  1  0.25867308  0.79163547  0.65451196  1  0.008165  0  -0.081962  -0.113078  0  3.973406  0
C  C90  1  0.27037876  0.76338775  0.61510543  1  -0.058418  0  -0.078954  -0.090423  0  3.980807  0
C  C91  1  0.32320038  0.85093825  0.78952113  1  0.969674  0  0.244599  0.250322  0  3.972993  0
C  C92  1  0.33947129  0.81275964  0.71460203  1  0.97052  0  0.2444  0.251223  0  3.975073  0
C  C93  1  0.39552099  0.88986653  0.84813112  1  -0.086707  0  -0.078967  -0.105343  0  3.958929  0
C  C94  1  0.39168380  0.69387994  0.55204195  1  1.563277  0  0.27305  0.630775  0  4.100129  0
C  C95  1  0.38272654  0.91706052  0.88772739  1  0.018006  0  -0.076332  -0.081917  0  3.970494  0
C  C96  1  0.20225659  0.91942579  0.89483808  1  -0.036082  0  -0.074147  -0.081883  0  3.958017  0
C  C97  1  0.21468390  0.89207614  0.85536409  1  -0.056604  0  -0.079266  -0.106563  0  3.965457  0
C  C98  1  0.31125215  0.87773688  0.83153945  1  0.015721  0  0.000115  0.02479  0  3.98261  0
C  C99  1  0.28575953  0.93287612  0.91121325  1  -0.028373  0  -0.008086  -0.033049  0  3.957028  0
C  C100  1  0.73900046  0.39101016  0.59386848  1  -0.018828  0  -0.009141  -0.037175  0  3.96681  0
C  C101  1  0.76848990  0.29164945  0.61697764  1  -0.014937  0  -0.076762  -0.081457  0  3.969814  0
C  C102  1  0.80518955  0.27858383  0.65534357  1  -0.062111  0  -0.080524  -0.110581  0  3.966618  0
C  C103  1  0.81085489  0.36563947  0.67131613  1  -0.043294  0  -0.000582  0.029233  0  3.993634  0
C  C104  1  0.77862478  0.46607785  0.64847250  1  -0.018015  0  -0.079805  -0.108468  0  3.962248  0
C  C105  1  0.69537393  0.40609435  0.43745304  1  1.542381  0  0.270351  0.639806  0  4.092569  0
C  C106  1  0.74412825  0.47810651  0.60984307  1  0.034975  0  -0.074317  -0.082253  0  3.95895  0
C  C107  1  0.89191197  0.32769443  0.78652267  1  0.95691  0  0.241004  0.263743  0  3.980242  0
C  C108  1  0.85157137  0.35099244  0.71148003  1  0.956365  0  0.239052  0.244878  0  4.000251  0
C  C109  1  0.89585062  0.22907076  0.85510803  1  0.48074  0  0.099156  0.238502  0  4.024528  0
C  C110  1  0.91522401  0.21848292  0.89590923  1  -0.000106  0  -0.096597  -0.233143  0  3.959507  0
C  C111  1  0.92911616  0.38871459  0.88893928  1  0.000672  0  -0.09096  -0.116307  0  4.000768  0
C  C112  1  0.91169768  0.39853440  0.84824687  1  -0.046936  0  -0.080225  -0.088211  0  3.992092  0
C  C113  1  0.89843138  0.31836245  0.83026941  1  0.01996  0  -0.008393  -0.079373  0  3.957566  0
C  C114  1  0.93365330  0.29669717  0.91254588  1  -0.007399  0  -0.009492  -0.009062  0  3.998175  0
C  C115  1  0.39780202  0.36777281  0.41137174  1  -0.000966  0  -0.00792  -0.041406  0  3.955801  0
C  C116  1  0.41481701  0.38506123  0.45268902  1  1.536465  0  0.277908  0.645617  0  4.076596  0
C  C117  1  0.48224136  0.28345103  0.38994239  1  -0.027564  0  -0.072244  -0.076226  0  3.950741  0
C  C118  1  0.47298391  0.27697927  0.34948874  1  0.026155  0  -0.076031  -0.100782  0  3.947874  0
C  C119  1  0.37903180  0.35535450  0.32973758  1  -0.023762  0  0.00179  0.023295  0  3.982172  0
C  C120  1  0.29318326  0.43774397  0.35157880  1  -0.055049  0  -0.077083  -0.101571  0  3.943742  0
C  C121  1  0.30260784  0.44378908  0.39203250  1  0.011692  0  -0.072798  -0.074226  0  3.942773  0
C  C122  1  0.34933503  0.33406327  0.21224244  1  0.952948  0  0.242912  0.243916  0  3.988772  0
C  C123  1  0.37170666  0.35328383  0.28639740  1  0.941139  0  0.24674  0.250052  0  3.973343  0
C  C124  1  0.40887399  0.21933037  0.15344082  1  -0.006701  0  -0.07679  -0.105843  0  3.953997  0
C  C125  1  0.39232726  0.20079065  0.11530710  1  -0.007169  0  -0.071728  -0.074544  0  3.951722  0
C  C126  1  0.22135596  0.37062028  0.11360955  1  -0.012375  0  -0.072603  -0.07638  0  3.955633  0
C  C127  1  0.37367044  0.69484679  0.43956299  1  1.564424  0  0.268975  0.64781  0  4.085553  0
C  C128  1  0.23697386  0.38877342  0.15189629  1  -0.061053  0  -0.077943  -0.103468  0  3.954498  0
C  C129  1  0.33153934  0.31375216  0.17206045  1  0.028705  0  0.003354  0.028152  0  3.981969  0
C  C130  1  0.29898157  0.27677980  0.09494248  1  -0.065482  0  -0.006954  -0.039718  0  3.957511  0
C  C131  1  0.34148418  0.74723275  0.39853873  1  0.032443  0  -0.020963  -0.150072  0  3.957988  0
C  C132  1  0.40581194  0.79515793  0.37848670  1  -0.024103  0  -0.07292  -0.114908  0  3.953715  0
C  C133  1  0.39749655  0.83285855  0.33801705  1  0.010862  0  -0.00113  0.016978  0  3.96124  0
C  C134  1  0.32431276  0.81516566  0.31555688  1  0.101072  0  0.008141  0.116128  0  4.085148  0
C  C135  1  0.25600104  0.77147480  0.33572904  1  -0.047247  0  -0.09064  -0.242027  0  3.938325  0
C  C136  1  0.26075394  0.74101970  0.37682558  1  0.504239  0  0.091658  0.246276  0  4.043151  0
C  C137  1  0.21095948  0.88917854  0.17705466  1  0.47588  0  0.094901  0.216985  0  4.02135  0
C  C138  1  0.38937987  0.36325356  0.60932748  1  -0.00763  0  -0.014774  -0.024237  0  4.003515  0
C  C139  1  0.20068158  0.91450261  0.13580247  1  -0.000287  0  -0.100975  -0.23627  0  3.98214  0
C  C140  1  0.38274901  0.90970466  0.12855003  1  0.044219  0  -0.091639  -0.118302  0  4.015607  0
C  C141  1  0.39309996  0.88486500  0.16975964  1  0.011776  0  -0.081932  -0.109825  0  3.970225  0
C  C142  1  0.30802007  0.87462850  0.19482849  1  0.072362  0  -0.00386  0.040864  0  4.099133  0
C  C143  1  0.31537002  0.85263977  0.23681254  1  -0.135465  0  -0.033484  -0.078838  0  4.109921  0
C  C144  1  0.31954646  0.83697977  0.27336845  1  -0.166216  0  -0.030006  -0.086413  0  4.09666  0
C  C145  1  0.28605624  0.92532515  0.11154120  1  -0.046123  0  -0.014608  -0.018566  0  3.999119  0
C  C146  1  0.73657804  0.38007100  0.39526033  1  -0.070353  0  -0.015827  -0.042486  0  3.994035  0
C  C147  1  0.78154482  0.27292485  0.38357220  1  -0.019488  0  -0.080003  -0.091173  0  4.002483  0
C  C148  1  0.81451294  0.25206536  0.34351894  1  0.013243  0  -0.082526  -0.125103  0  3.968952  0
C  C149  1  0.46443777  0.26464031  0.62845393  1  -0.002435  0  -0.088985  -0.112669  0  4.007555  0
C  C150  1  0.80243937  0.33801220  0.31429098  1  0.090004  0  0.007714  0.101801  0  4.07566  0
C  C151  1  0.75633625  0.44688568  0.32601617  1  -0.053239  0  0.007345  0.036534  0  3.941905  0
C  C152  1  0.72405412  0.46595064  0.36635162  1  0.011631  0  -0.075064  -0.133468  0  3.938473  0
C  C153  1  0.89631362  0.38564649  0.17130807  1  -0.024261  0  -0.07998  -0.122053  0  3.927331  0
C  C154  1  0.92491173  0.37509186  0.13041165  1  -0.050504  0  -0.078807  -0.085827  0  3.990402  0
C  C155  1  0.91324332  0.20406437  0.13584460  1  0.047884  0  -0.078332  -0.084967  0  3.989463  0
C  C156  1  0.88541248  0.21354382  0.17668493  1  -0.047189  0  -0.082407  -0.129369  0  3.956378  0
C  C157  1  0.87790213  0.30384818  0.19514889  1  0.093657  0  0.007822  0.149804  0  4.102059  0
C  C158  1  0.85284778  0.31157388  0.23700397  1  -0.549109  0  -0.035656  -0.09432  0  4.097316  0
C  C159  1  0.83191622  0.31887607  0.27319223  1  0.171855  0  -0.038668  -0.097893  0  4.12831  0
C  C160  1  0.45275541  0.24587097  0.66986863  1  -0.019801  0  -0.078561  -0.108658  0  3.972948  0
C  C161  1  0.93478147  0.28379595  0.11247504  1  -0.035176  0  -0.014571  -0.048277  0  3.97827  0
C  C162  1  0.26483496  0.97261429  0.95231112  1  1.556141  0  0.270059  0.632595  0  4.097519  0
C  C163  1  0.27442770  0.25651148  0.94280761  1  1.517255  0  0.273582  0.642966  0  4.085134  0
C  C164  1  0.96985362  0.27303515  0.95450127  1  1.552802  0  0.276189  0.634934  0  4.084783  0
C  C165  1  0.26621371  0.96364982  0.06848152  1  1.53968  0  0.270088  0.639861  0  4.082138  0
C  C166  1  0.27699859  0.25404291  0.05528749  1  1.559088  0  0.278327  0.645141  0  4.081412  0
C  C167  1  0.97598834  0.26434830  0.06984253  1  1.568814  0  0.268717  0.637348  0  4.095834  0
C  C168  1  0.87554730  0.06561675  0.86218811  1  0.397704  0  -0.127831  -0.170175  0  3.905424  0
C  C169  1  0.13593863  0.59966246  0.67960734  1  0.433469  0  -0.131822  -0.173823  0  3.908241  0
C  C170  1  0.03262875  0.89481520  0.18653145  1  0.368772  0  -0.130927  -0.173603  0  3.923213  0
C  C171  1  0.09937084  0.77069672  0.41868836  1  0.360712  0  -0.136152  -0.167033  0  3.921295  0
C  C172  1  0.46376690  0.88780211  0.31981787  1  -0.029427  0  -0.01057  0.067257  0  4.014439  0
C  C173  1  0.41903121  0.97710234  0.29128780  1  -0.012779  0  -0.092905  -0.130676  0  3.984598  0
C  C174  1  0.48174934  0.02865969  0.27399017  1  -0.041974  0  -0.102989  -0.088028  0  4.049012  0
C  C175  1  0.58972829  0.99343920  0.28530157  1  -0.038424  0  -0.097321  -0.093592  0  4.039359  0
C  C176  1  0.63463769  0.90552915  0.31402336  1  -0.139546  0  -0.095537  -0.086088  0  4.045934  0
C  C177  1  0.57245483  0.85297614  0.33100535  1  -0.045849  0  -0.086122  -0.119919  0  3.968434  0
C  C178  1  0.74056194  0.53791248  0.29520885  1  -0.061834  0  -0.010339  0.067365  0  4.018888  0
C  C179  1  0.63379190  0.61228630  0.28385094  1  0.00124  0  -0.089225  -0.128095  0  3.963429  0
C  C180  1  0.61898253  0.69514048  0.25364482  1  -0.005406  0  -0.094322  -0.074386  0  4.028447  0
C  C181  1  0.71046365  0.70542157  0.23485390  1  -0.095608  0  -0.097833  -0.093212  0  4.04261  0
C  C182  1  0.81720150  0.63228137  0.24632552  1  -0.056751  0  -0.098534  -0.092152  0  4.062881  0
C  C183  1  0.83226905  0.54856144  0.27615126  1  -0.014325  0  -0.092631  -0.135742  0  3.994843  0
N  N184  1  0.41555151  0.84187361  0.76711514  1  -0.563757  0  -0.153243  -0.145866  0  3.215713  0
N  N185  1  0.46216955  0.28405975  0.26489606  1  -0.56394  0  -0.149193  -0.142229  0  3.213881  0
N  N186  1  0.27793109  0.42813447  0.26888559  1  -0.528275  0  -0.151461  -0.1428  0  3.210848  0
N  N187  1  0.26669008  0.41854290  0.23122710  1  -0.563099  0  -0.153457  -0.147364  0  3.217985  0
N  N188  1  0.42364920  0.82276591  0.72902342  1  -0.540276  0  -0.153185  -0.146775  0  3.217909  0
N  N189  1  0.25126038  0.81356754  0.73774943  1  -0.563931  0  -0.154265  -0.148327  0  3.216013  0
N  N190  1  0.24287002  0.83328048  0.77580005  1  -0.547025  0  -0.152234  -0.143098  0  3.215407  0
N  N191  1  0.93041623  0.23615946  0.76633295  1  -0.522834  0  -0.155308  -0.140152  0  3.218846  0
N  N192  1  0.90941596  0.24815842  0.72809823  1  -0.545671  0  -0.16133  -0.158781  0  3.218424  0
N  N193  1  0.84223367  0.43924184  0.72861062  1  -0.579372  0  -0.159308  -0.152585  0  3.229152  0
N  N194  1  0.86266849  0.42754738  0.76685748  1  -0.538599  0  -0.158227  -0.153558  0  3.217869  0
N  N195  1  0.45054803  0.27393214  0.22720588  1  -0.546734  0  -0.154644  -0.152317  0  3.226416  0
O  O196  1  0.48108494  0.68068532  0.53267556  1  -1.242295  0  -0.20812  -0.54177  0  2.358429  0
O  O197  1  0.50765371  0.31949098  0.46774269  1  -1.263381  0  -0.237014  -0.600117  0  2.301046  0
O  O198  1  0.33967460  0.46819409  0.46979039  1  -1.262875  0  -0.234498  -0.596746  0  2.299834  0
O  O199  1  0.30775980  0.66461340  0.46192005  1  -1.27681  0  -0.244806  -0.612205  0  2.324081  0
O  O200  1  0.50421571  0.50278656  0.49957406  1  -1.613552  0  -0.390988  -1.261506  0  2.289869  0
O  O201  1  0.98343686  0.18283600  0.97240040  1  -1.241525  0  -0.208064  -0.538747  0  2.341164  0
O  O202  1  0.17114464  0.99447081  0.96985925  1  -1.242909  0  -0.214725  -0.566594  0  2.372593  0
O  O203  1  0.34204062  0.98650211  0.96650599  1  -1.273358  0  -0.250794  -0.617062  0  2.276922  0
O  O204  1  0.34337213  0.16915722  0.96175114  1  -1.280473  0  -0.240842  -0.60915  0  2.30751  0
O  O205  1  0.18375399  0.32731697  0.95908614  1  -1.27163  0  -0.23815  -0.600422  0  2.297641  0
O  O206  1  0.99093241  0.34381535  0.96906512  1  -1.275421  0  -0.248794  -0.614473  0  2.283299  0
O  O207  1  0.67428289  0.49778817  0.53327692  1  -1.244856  0  -0.214964  -0.564915  0  2.353686  0
O  O208  1  0.98997283  0.17598633  0.05710940  1  -1.247945  0  -0.218079  -0.574324  0  2.372256  0
O  O209  1  0.17391196  0.98294224  0.05579771  1  -1.248107  0  -0.224802  -0.585316  0  2.355133  0
O  O210  1  0.34269777  0.97974734  0.04700069  1  -1.2761  0  -0.249722  -0.612851  0  2.277799  0
O  O211  1  0.34311540  0.16200328  0.04139582  1  -1.262038  0  -0.232624  -0.593615  0  2.304201  0
O  O212  1  0.18990628  0.32588410  0.03834571  1  -1.268116  0  -0.234884  -0.600386  0  2.311278  0
O  O213  1  0.99934998  0.33662600  0.04907652  1  -1.282452  0  -0.252576  -0.619472  0  2.27748  0
O  O214  1  0.16305674  0.15680095  0.00788029  1  -1.60579  0  -0.390616  -1.261331  0  2.282827  0
O  O215  1  0.68045518  0.33002825  0.54173236  1  -1.274604  0  -0.251171  -0.617277  0  2.283025  0
O  O216  1  0.49661055  0.32448575  0.54728474  1  -1.269591  0  -0.234004  -0.599153  0  2.307084  0
O  O217  1  0.33290489  0.47842459  0.54939043  1  -1.283039  0  -0.238804  -0.600331  0  2.297405  0
O  O218  1  0.32026813  0.66706041  0.54059188  1  -1.27395  0  -0.25003  -0.615335  0  2.283288  0
O  O219  1  0.46743053  0.67889047  0.44944045  1  -1.240291  0  -0.216488  -0.567304  0  2.363533  0
O  O220  1  0.66613717  0.50230433  0.44666792  1  -1.2567  0  -0.222311  -0.584147  0  2.367574  0
O  O221  1  0.68838191  0.32993718  0.46181955  1  -1.276451  0  -0.250261  -0.616126  0  2.282201  0
O  O222  1  0.87312434  0.15823056  0.83770676  1  -1.068197  0  -0.178386  -0.155104  0  2.615361  0
O  O223  1  0.21157966  0.49667325  0.69786670  1  -1.080106  0  -0.179067  -0.148919  0  2.580697  0
O  O224  1  0.13220678  0.87874574  0.20306246  1  -1.071076  0  -0.182824  -0.153589  0  2.583353  0
O  O225  1  0.18999767  0.69944043  0.39322294  1  -1.086982  0  -0.202007  -0.194945  0  2.568535  0
O  O226  1  0.64374317  0.67738143  0.48286432  1  -1.357778  0  -0.583235  -1.00005  0  1.796893  0
O  O227  1  0.99258551  0.01175469  0.01822210  1  -1.379512  0  -0.585187  -1.000465  0  1.798687  0
