# generated using pymatgen
data_ZnH8C13(N3O)2
_symmetry_space_group_name_H-M   'P 1'
_cell_length_a   11.20084481
_cell_length_b   16.07493553
_cell_length_c   15.69863811
_cell_angle_alpha   115.02467444
_cell_angle_beta   102.71754012
_cell_angle_gamma   102.63368238
_symmetry_Int_Tables_number   1
_chemical_formula_structural   ZnH8C13(N3O)2
_chemical_formula_sum   'Zn6 H48 C78 N36 O12'
_cell_volume   2337.75424632
_cell_formula_units_Z   6
loop_
 _symmetry_equiv_pos_site_id
 _symmetry_equiv_pos_as_xyz
  1  'x, y, z'
loop_
 _atom_site_type_symbol
 _atom_site_label
 _atom_site_symmetry_multiplicity
 _atom_site_fract_x
 _atom_site_fract_y
 _atom_site_fract_z
 _atom_site_occupancy
 _atom_site_pbe_bader_charge
 _atom_site_pbe_bader_spin_density
 _atom_site_pbe_cm5_charge
 _atom_site_pbe_ddec_charge
 _atom_site_pbe_ddec_spin_density
 _atom_site_pbe_ddec_sum_bond_order
 _atom_site_pbe_magmom
Zn  Zn0  1  0.75745943  0.60955487  0.42727543  1  1.239572  0  0.733134  0.728974  0  2.438854  0
Zn  Zn1  1  0.24254002  0.39043902  0.57272417  1  1.239506  0  0.733148  0.728958  0  2.438881  0
Zn  Zn2  1  0.59352126  0.20711561  0.11243392  1  1.245174  0  0.746958  0.70563  0  2.471113  0
Zn  Zn3  1  0.40648131  0.79288327  0.88756062  1  1.244956  0  0.746981  0.705612  0  2.471152  0
Zn  Zn4  1  0.19418396  0.07895244  0.70263361  1  1.24564  0  0.724558  0.729349  0  2.392439  0
Zn  Zn5  1  0.80580523  0.92104879  0.29736949  1  1.245574  0  0.724574  0.729371  0  2.392242  0
H  H6  1  0.23504446  0.34038269  0.21331360  1  0.09289  0  0.099846  0.100341  0  1.04492  0
H  H7  1  0.76494393  0.65959515  0.78668265  1  0.09324  0  0.099933  0.100527  0  1.044895  0
H  H8  1  0.06989699  0.39984577  0.27665212  1  0.041418  0  0.098892  0.101587  0  1.012153  0
H  H9  1  0.93008934  0.60013141  0.72334801  1  0.041299  0  0.098893  0.101622  0  1.012085  0
H  H10  1  0.38036876  0.64629292  0.54060365  1  0.082  0  0.101106  0.105216  0  1.040657  0
H  H11  1  0.61962606  0.35369930  0.45938372  1  0.090317  0  0.101029  0.105237  0  1.04076  0
H  H12  1  0.54232130  0.58610169  0.47911971  1  0.158402  0  0.101168  0.108326  0  1.075413  0
H  H13  1  0.45767218  0.41388973  0.52086394  1  0.158344  0  0.101201  0.108382  0  1.075433  0
H  H14  1  0.91729596  0.47470876  0.32976820  1  0.119278  0  0.114124  0.104429  0  1.051912  0
H  H15  1  0.08269708  0.52528512  0.67023044  1  0.11935  0  0.114114  0.10435  0  1.051968  0
H  H16  1  0.03433276  0.73458140  0.60510694  1  0.173046  0  0.136415  0.105863  0  1.013575  0
H  H17  1  0.96567872  0.26541896  0.39488890  1  0.173005  0  0.136434  0.105908  0  1.013452  0
H  H18  1  0.30023082  0.07535251  0.04182069  1  0.112299  0  0.103918  0.111874  0  1.025936  0
H  H19  1  0.69977661  0.92465669  0.95818148  1  0.112645  0  0.103896  0.111906  0  1.025821  0
H  H20  1  0.12251004  0.08314125  0.10895902  1  0.07849  0  0.101616  0.101685  0  1.031449  0
H  H21  1  0.87749463  0.91686207  0.89103961  1  0.078681  0  0.101556  0.101591  0  1.031532  0
H  H22  1  0.02165576  0.26061910  0.98086515  1  0.051067  0  0.107037  0.107641  0  0.990941  0
H  H23  1  0.97834278  0.73938277  0.01913387  1  0.051061  0  0.107029  0.107595  0  0.990961  0
H  H24  1  0.19430456  0.24705677  0.90825537  1  0.085158  0  0.10519  0.106196  0  1.009052  0
H  H25  1  0.80570471  0.75295619  0.09175377  1  0.082481  0  0.105197  0.106224  0  1.009112  0
H  H26  1  0.83427061  0.24989883  0.02567601  1  0.127175  0  0.122555  0.116522  0  1.007761  0
H  H27  1  0.16572727  0.75009573  0.97432045  1  0.127024  0  0.12255  0.116479  0  1.007787  0
H  H28  1  0.77097716  0.12881620  0.21019574  1  0.190822  0  0.142912  0.113872  0  0.987553  0
H  H29  1  0.22903393  0.87119089  0.78981054  1  0.191161  0  0.142946  0.113959  0  0.987529  0
H  H30  1  0.75269146  0.92882505  0.51068562  1  0.089451  0  0.106701  0.114906  0  1.002086  0
H  H31  1  0.24731669  0.07118516  0.48933173  1  0.089661  0  0.106674  0.114849  0  1.002238  0
H  H32  1  0.58564808  0.98126754  0.57538026  1  0.069026  0  0.105676  0.109129  0  0.999494  0
H  H33  1  0.41435762  0.01874336  0.42463511  1  0.069365  0  0.105757  0.109253  0  0.999232  0
H  H34  1  0.29324581  0.69711584  0.35392052  1  0.071501  0  0.102707  0.101634  0  1.001768  0
H  H35  1  0.70675479  0.30290218  0.64608627  1  0.071045  0  0.102625  0.101505  0  1.001876  0
H  H36  1  0.46008380  0.64648989  0.28807217  1  0.088993  0  0.107358  0.110758  0  0.985573  0
H  H37  1  0.53992000  0.35351884  0.71194391  1  0.088601  0  0.107428  0.110948  0  0.98544  0
H  H38  1  0.43640468  0.01344652  0.65956854  1  0.16305  0  0.118266  0.109057  0  1.051724  0
H  H39  1  0.56359326  0.98656568  0.34043859  1  0.163129  0  0.118251  0.109064  0  1.051757  0
H  H40  1  0.03122433  0.87291898  0.49571289  1  0.223512  0  0.144636  0.12264  0  0.996881  0
H  H41  1  0.96877658  0.12708589  0.50429094  1  0.223479  0  0.144613  0.122616  0  0.996848  0
H  H42  1  0.86215255  0.10097669  0.83237336  1  0.108324  0  0.099335  0.101894  0  1.022289  0
H  H43  1  0.13784974  0.89901613  0.16760774  1  0.107853  0  0.099375  0.101954  0  1.022452  0
H  H44  1  0.65166209  0.04518166  0.85446691  1  0.110987  0  0.098674  0.095395  0  1.062455  0
H  H45  1  0.34833979  0.95482213  0.14551685  1  0.114732  0  0.098706  0.095457  0  1.062505  0
H  H46  1  0.58195033  0.74902610  0.63251251  1  0.104227  0  0.107833  0.115641  0  1.019659  0
H  H47  1  0.41804370  0.25096783  0.36748949  1  0.104307  0  0.107851  0.115675  0  1.019708  0
H  H48  1  0.23958863  0.69665787  0.59333044  1  0.554704  0  0.314979  0.303572  0  0.991062  0
H  H49  1  0.76041162  0.30333219  0.40665874  1  0.554514  0  0.314957  0.303646  0  0.990944  0
H  H50  1  0.96073424  0.09603660  0.17316094  1  0.548696  0  0.308415  0.287026  0  0.998324  0
H  H51  1  0.03927548  0.90396756  0.82684390  1  0.548149  0  0.3084  0.287027  0  0.998294  0
H  H52  1  0.14493085  0.77775868  0.38909089  1  0.492925  0  0.345682  0.302171  0  0.896214  0
H  H53  1  0.85507798  0.22225348  0.61091402  1  0.492681  0  0.345776  0.302454  0  0.895865  0
C  C54  1  0.26573314  0.40723332  0.28507903  1  0.054312  0  -0.084696  -0.098692  0  3.967381  0
C  C55  1  0.73426230  0.59274597  0.71491762  1  0.053912  0  -0.085003  -0.099204  0  3.967494  0
C  C56  1  0.17355113  0.44103394  0.32108145  1  -0.079682  0  -0.091513  -0.122944  0  3.973349  0
C  C57  1  0.82643801  0.55894167  0.67891206  1  -0.08009  0  -0.091493  -0.122896  0  3.973456  0
C  C58  1  0.21264493  0.52817204  0.41344693  1  -0.023854  0  -0.009557  0.047891  0  4.063334  0
C  C59  1  0.78734143  0.47181152  0.58654444  1  -0.023453  0  -0.0095  0.048084  0  4.063347  0
C  C60  1  0.34696548  0.57847280  0.46914502  1  -0.044207  0  -0.095223  -0.129515  0  3.96976  0
C  C61  1  0.65302292  0.42151141  0.53084183  1  -0.052698  0  -0.095102  -0.129606  0  3.969958  0
C  C62  1  0.43942308  0.54458337  0.43343011  1  -0.089703  0  -0.089546  -0.114151  0  3.985021  0
C  C63  1  0.56056843  0.45540746  0.56656064  1  -0.090003  0  -0.089744  -0.114532  0  3.985385  0
C  C64  1  0.40025752  0.45922430  0.34049787  1  0.028942  0  -0.009633  0.015597  0  4.01829  0
C  C65  1  0.59973398  0.54076065  0.65948975  1  0.028955  0  -0.009314  0.016202  0  4.018019  0
C  C66  1  0.49527787  0.42316512  0.30023133  1  0.942556  0  0.223098  0.254358  0  4.020996  0
C  C67  1  0.50471726  0.57682356  0.69976159  1  0.9433  0  0.222987  0.254234  0  4.020923  0
C  C68  1  0.11671255  0.56714257  0.44807038  1  0.334876  0  0.08129  0.106763  0  4.010738  0
C  C69  1  0.88328202  0.43284473  0.55192698  1  0.331364  0  0.08126  0.106665  0  4.010761  0
C  C70  1  0.98284165  0.53692984  0.40169842  1  0.458914  0  0.001596  -0.080185  0  3.948255  0
C  C71  1  0.01715862  0.46306398  0.59829744  1  0.458693  0  0.001557  -0.080155  0  3.948577  0
C  C72  1  0.03813034  0.67065412  0.54452123  1  1.002405  0  0.147099  0.160532  0  3.920401  0
C  C73  1  0.96187407  0.32934478  0.45547422  1  1.002062  0  0.146994  0.160391  0  3.920432  0
C  C74  1  0.23780389  0.11468660  0.02705317  1  0.010806  0  -0.080303  -0.09615  0  3.956211  0
C  C75  1  0.76220124  0.88531965  0.97294677  1  0.010475  0  -0.080298  -0.096167  0  3.955888  0
C  C76  1  0.13733032  0.11989254  0.06553557  1  -0.021616  0  -0.086059  -0.112939  0  3.936411  0
C  C77  1  0.86267460  0.88010933  0.93446313  1  -0.021897  0  -0.086012  -0.112852  0  3.93633  0
C  C78  1  0.05646459  0.17135530  0.04884292  1  -0.032435  0  -0.003896  0.049244  0  4.04561  0
C  C79  1  0.94353283  0.82864219  0.95115471  1  -0.032192  0  -0.003905  0.049125  0  4.045788  0
C  C80  1  0.08046473  0.21801333  0.99270954  1  -0.037721  0  -0.086603  -0.124504  0  3.984703  0
C  C81  1  0.91953641  0.78199007  0.00729371  1  -0.038046  0  -0.086585  -0.124299  0  3.984618  0
C  C82  1  0.17875170  0.21124174  0.95242953  1  -0.001229  0  -0.083634  -0.104804  0  3.976824  0
C  C83  1  0.82125144  0.78876603  0.04757395  1  0.001576  0  -0.083651  -0.104943  0  3.976844  0
C  C84  1  0.25854355  0.15931655  0.96921214  1  -0.007432  0  -0.007124  0.017231  0  4.029566  0
C  C85  1  0.74146209  0.84069268  0.03079169  1  -0.007456  0  -0.006998  0.017365  0  4.029463  0
C  C86  1  0.36151224  0.15352787  0.92597348  1  0.970508  0  0.237337  0.285324  0  3.991673  0
C  C87  1  0.63849027  0.84648059  0.07402765  1  0.970864  0  0.237215  0.285053  0  3.991882  0
C  C88  1  0.94925085  0.17675636  0.08683899  1  0.386934  0  0.088623  0.109796  0  3.994556  0
C  C89  1  0.05074770  0.82323966  0.91315755  1  0.387276  0  0.088659  0.109899  0  3.994533  0
C  C90  1  0.85241343  0.21542891  0.07100526  1  0.393076  0  0.00489  -0.082932  0  3.939394  0
C  C91  1  0.14758855  0.78456858  0.92899242  1  0.39273  0  0.004942  -0.082858  0  3.939451  0
C  C92  1  0.81508307  0.15354657  0.16623289  1  0.981362  0  0.149996  0.162646  0  3.916491  0
C  C93  1  0.18492402  0.84645978  0.83377248  1  0.980746  0  0.149941  0.162504  0  3.916558  0
C  C94  1  0.65130040  0.87892383  0.47477911  1  -0.009773  0  -0.081951  -0.102395  0  3.97224  0
C  C95  1  0.34870584  0.12108844  0.52523183  1  -0.01028  0  -0.081955  -0.102333  0  3.972281  0
C  C96  1  0.55699752  0.90787149  0.51193947  1  -0.027061  0  -0.083268  -0.112819  0  3.959512  0
C  C97  1  0.44301185  0.09214155  0.48807353  1  -0.026545  0  -0.083392  -0.113084  0  3.959161  0
C  C98  1  0.42568863  0.84436272  0.46873584  1  -0.002898  0  -0.004503  0.049479  0  4.037021  0
C  C99  1  0.57431972  0.15565611  0.53127564  1  -0.002737  0  -0.004522  0.049502  0  4.036983  0
C  C100  1  0.39301484  0.74966820  0.38783623  1  -0.012359  0  -0.090957  -0.124808  0  3.975092  0
C  C101  1  0.60699070  0.25034845  0.61217582  1  -0.011444  0  -0.09095  -0.124717  0  3.975327  0
C  C102  1  0.48758984  0.72018661  0.35084259  1  -0.041622  0  -0.081332  -0.09832  0  3.975133  0
C  C103  1  0.51241095  0.27982567  0.64916881  1  -0.041883  0  -0.081326  -0.098536  0  3.975048  0
C  C104  1  0.61768269  0.78478528  0.39313551  1  -0.002626  0  -0.007028  0.010738  0  4.011262  0
C  C105  1  0.38231979  0.21522055  0.60688106  1  -0.003055  0  -0.006946  0.010879  0  4.011061  0
C  C106  1  0.32943492  0.87903326  0.50858540  1  0.330376  0  0.089086  0.114181  0  3.984759  0
C  C107  1  0.67056719  0.12098029  0.49141591  1  0.329824  0  0.089126  0.114266  0  3.984934  0
C  C108  1  0.34700285  0.95979564  0.59771109  1  0.414254  0  0.007352  -0.068491  0  3.931166  0
C  C109  1  0.65299647  0.04021364  0.40229501  1  0.41464  0  0.007317  -0.068457  0  3.931524  0
C  C110  1  0.13601183  0.89082302  0.51552746  1  0.954195  0  0.159529  0.178817  0  3.883057  0
C  C111  1  0.86398866  0.10918482  0.48447947  1  0.953842  0  0.159658  0.179057  0  3.882753  0
C  C112  1  0.71725268  0.75544908  0.35248846  1  0.967397  0  0.230441  0.276856  0  4.009737  0
C  C113  1  0.28274708  0.24455888  0.64752543  1  0.968336  0  0.230337  0.276857  0  4.009719  0
C  C114  1  0.80027206  0.02370849  0.78906344  1  -0.0239  0  -0.091781  -0.116955  0  3.979564  0
C  C115  1  0.19972707  0.97628518  0.21092392  1  -0.023557  0  -0.091876  -0.117146  0  3.980046  0
C  C116  1  0.68220894  0.99236278  0.80134258  1  -0.136229  0  -0.081328  -0.081278  0  3.955847  0
C  C117  1  0.31778739  0.00763671  0.19864491  1  -0.139915  0  -0.081367  -0.081352  0  3.956203  0
C  C118  1  0.60275428  0.89297466  0.74486433  1  0.026097  0  -0.017651  -0.036953  0  3.983223  0
C  C119  1  0.39724127  0.10702492  0.25512818  1  0.02571  0  -0.017623  -0.036867  0  3.983317  0
C  C120  1  0.64312870  0.82617353  0.67720560  1  -0.008804  0  -0.07401  -0.095545  0  3.937694  0
C  C121  1  0.35686864  0.17382178  0.32279238  1  -0.008609  0  -0.074034  -0.09565  0  3.93793  0
C  C122  1  0.76341333  0.85638543  0.66731020  1  0.006336  0  -0.020791  -0.072626  0  3.987724  0
C  C123  1  0.23658775  0.14360408  0.33268842  1  0.006129  0  -0.020866  -0.072691  0  3.987955  0
C  C124  1  0.84335682  0.95614385  0.72413383  1  -0.063835  0  -0.005286  -0.032538  0  3.942827  0
C  C125  1  0.15664200  0.04384486  0.27586093  1  -0.063523  0  -0.005198  -0.032315  0  3.942771  0
C  C126  1  0.97960231  0.99075707  0.72499302  1  1.579671  0  0.207153  0.590373  0  4.215877  0
C  C127  1  0.02039920  0.00923747  0.27500270  1  1.58008  0  0.207027  0.590146  0  4.215967  0
C  C128  1  0.80197918  0.78449202  0.59094150  1  1.556081  0  0.199364  0.561759  0  4.222062  0
C  C129  1  0.19802148  0.21549246  0.40906067  1  1.555842  0  0.199527  0.561902  0  4.222133  0
C  C130  1  0.48003603  0.85415759  0.76022251  1  1.569049  0  0.209742  0.585682  0  4.205866  0
C  C131  1  0.51996835  0.14584503  0.23977770  1  1.568801  0  0.209715  0.585636  0  4.205759  0
N  N132  1  0.62642626  0.47251873  0.33419496  1  -0.767594  0  -0.235876  -0.251457  0  3.504566  0
N  N133  1  0.37356463  0.52747866  0.66579720  1  -0.767296  0  -0.235886  -0.251441  0  3.504532  0
N  N134  1  0.67635308  0.41292027  0.27534863  1  -0.084686  0  -0.092587  -0.070488  0  3.21134  0
N  N135  1  0.32364195  0.58708008  0.72464604  1  -0.084756  0  -0.092473  -0.070326  0  3.211204  0
N  N136  1  0.57806119  0.33117565  0.20892303  1  -0.251464  0  -0.120443  -0.049671  0  3.660237  0
N  N137  1  0.42193888  0.66882178  0.79107115  1  -0.251723  0  -0.120478  -0.049716  0  3.660317  0
N  N138  1  0.46423693  0.33384567  0.22137542  1  -0.64894  0  -0.210591  -0.251133  0  3.152734  0
N  N139  1  0.53576015  0.66614734  0.77861581  1  -0.6487  0  -0.210645  -0.251297  0  3.15275  0
N  N140  1  0.93573213  0.60196596  0.46223031  1  -1.265476  0  -0.363541  -0.288017  0  3.62599  0
N  N141  1  0.06426974  0.39802933  0.53776642  1  -1.265334  0  -0.363573  -0.287949  0  3.626083  0
N  N142  1  0.14813135  0.65182478  0.53860075  1  -1.295478  0  -0.371292  -0.249402  0  3.631645  0
N  N143  1  0.85187435  0.34816900  0.46139336  1  -1.291491  0  -0.371097  -0.249315  0  3.63143  0
N  N144  1  0.48752982  0.17102703  0.97378411  1  -0.772444  0  -0.24324  -0.251439  0  3.500973  0
N  N145  1  0.51247432  0.82897918  0.02621311  1  -0.772738  0  -0.24333  -0.251447  0  3.50113  0
N  N146  1  0.55032217  0.16344045  0.90756399  1  -0.091832  0  -0.089958  -0.072804  0  3.256142  0
N  N147  1  0.44967813  0.83656937  0.09243165  1  -0.091782  0  -0.089861  -0.072588  0  3.256244  0
N  N148  1  0.46669450  0.14156143  0.82258718  1  -0.127125  0  -0.090283  -0.067174  0  3.246662  0
N  N149  1  0.53330353  0.85845133  0.17741065  1  -0.127114  0  -0.090352  -0.067409  0  3.246846  0
N  N150  1  0.34746969  0.13437676  0.83140457  1  -0.776171  0  -0.239839  -0.260579  0  3.49212  0
N  N151  1  0.65252774  0.86563460  0.16859575  1  -0.77651  0  -0.239732  -0.260324  0  3.492054  0
N  N152  1  0.76998745  0.20032974  0.12075775  1  -1.265493  0  -0.366374  -0.28547  0  3.627843  0
N  N153  1  0.23001538  0.79967145  0.87924353  1  -1.265042  0  -0.366402  -0.285483  0  3.627783  0
N  N154  1  0.92216880  0.13874035  0.14772496  1  -1.289963  0  -0.368015  -0.235278  0  3.632347  0
N  N155  1  0.07783564  0.86126232  0.85227783  1  -1.28926  0  -0.368064  -0.235326  0  3.632295  0
N  N156  1  0.75061656  0.67711635  0.34259644  1  -0.761119  0  -0.247164  -0.270719  0  3.488431  0
N  N157  1  0.24938180  0.32288866  0.65741472  1  -0.761701  0  -0.247135  -0.270711  0  3.48847  0
N  N158  1  0.84515575  0.67714350  0.30119928  1  -0.107868  0  -0.10852  -0.091241  0  3.25761  0
N  N159  1  0.15483400  0.32285698  0.69880294  1  -0.108085  0  -0.108599  -0.091389  0  3.257428  0
N  N160  1  0.86876243  0.75180727  0.28624177  1  -0.122548  0  -0.1057  -0.087994  0  3.256136  0
N  N161  1  0.13122277  0.24818948  0.71375502  1  -0.122408  0  -0.105662  -0.087873  0  3.256033  0
N  N162  1  0.79063495  0.80298702  0.31838708  1  -0.772435  0  -0.242413  -0.262549  0  3.480519  0
N  N163  1  0.20935425  0.19701422  0.68161666  1  -0.772601  0  -0.242324  -0.262571  0  3.480536  0
N  N164  1  0.22688272  0.96628114  0.60069949  1  -1.247602  0  -0.35656  -0.284543  0  3.585211  0
N  N165  1  0.77311492  0.03372450  0.39930609  1  -1.247443  0  -0.356505  -0.284623  0  3.585207  0
N  N166  1  0.19445706  0.83693331  0.45876426  1  -1.243371  0  -0.365495  -0.242748  0  3.630092  0
N  N167  1  0.80554531  0.16307668  0.54124131  1  -1.242995  0  -0.365723  -0.243306  0  3.630015  0
O  O168  1  0.89686632  0.81459119  0.56875765  1  -1.179829  0  -0.312912  -0.550337  0  2.20387  0
O  O169  1  0.10314699  0.18539270  0.43125251  1  -1.179449  0  -0.312952  -0.550291  0  2.204132  0
O  O170  1  0.72876730  0.69260789  0.54897294  1  -1.176597  0  -0.333802  -0.540809  0  2.352472  0
O  O171  1  0.27123597  0.30737813  0.45103409  1  -1.176576  0  -0.333851  -0.540922  0  2.352384  0
O  O172  1  0.00399892  0.04180323  0.68217355  1  -1.15318  0  -0.329271  -0.533593  0  2.289371  0
O  O173  1  0.99599157  0.95818540  0.31781676  1  -1.153583  0  -0.329228  -0.533533  0  2.289289  0
O  O174  1  0.06705681  0.97481230  0.77527594  1  -1.183598  0  -0.310319  -0.560376  0  2.247  0
O  O175  1  0.93295109  0.02519773  0.22473175  1  -1.183542  0  -0.310306  -0.560302  0  2.246837  0
O  O176  1  0.48724717  0.89156199  0.85323742  1  -1.167379  0  -0.339727  -0.55033  0  2.29071  0
O  O177  1  0.51276055  0.10843992  0.14676362  1  -1.167491  0  -0.339739  -0.550346  0  2.290658  0
O  O178  1  0.38227022  0.78660371  0.68659778  1  -1.216685  0  -0.324649  -0.580849  0  2.224995  0
O  O179  1  0.61773167  0.21339533  0.31340564  1  -1.216431  0  -0.324622  -0.580837  0  2.224936  0
