# generated using pymatgen
data_SrH2C5(NO2)2
_symmetry_space_group_name_H-M   'P 1'
_cell_length_a   6.83536798
_cell_length_b   6.96612215
_cell_length_c   13.59510433
_cell_angle_alpha   89.99894696
_cell_angle_beta   90.00028872
_cell_angle_gamma   107.46752089
_symmetry_Int_Tables_number   1
_chemical_formula_structural   SrH2C5(NO2)2
_chemical_formula_sum   'Sr4 H8 C20 N8 O16'
_cell_volume   617.49376606
_cell_formula_units_Z   4
loop_
 _symmetry_equiv_pos_site_id
 _symmetry_equiv_pos_as_xyz
  1  'x, y, z'
loop_
 _atom_site_type_symbol
 _atom_site_label
 _atom_site_symmetry_multiplicity
 _atom_site_fract_x
 _atom_site_fract_y
 _atom_site_fract_z
 _atom_site_occupancy
 _atom_site_hle17_bader_spin_density
 _atom_site_hle17_ddec_charge
 _atom_site_hle17_ddec_spin_density
 _atom_site_hle17_ddec_sum_bond_order
 _atom_site_hle17_magmom
 _atom_site_hse06_10hf_bader_spin_density
 _atom_site_hse06_10hf_ddec_charge
 _atom_site_hse06_10hf_ddec_spin_density
 _atom_site_hse06_10hf_ddec_sum_bond_order
 _atom_site_hse06_10hf_magmom
 _atom_site_hse06_bader_spin_density
 _atom_site_hse06_ddec_charge
 _atom_site_hse06_ddec_spin_density
 _atom_site_hse06_ddec_sum_bond_order
 _atom_site_hse06_magmom
 _atom_site_pbe_bader_spin_density
 _atom_site_pbe_cm5_charge
 _atom_site_pbe_ddec_charge
 _atom_site_pbe_ddec_spin_density
 _atom_site_pbe_ddec_sum_bond_order
 _atom_site_pbe_magmom
Sr  Sr0  1  0.22527862  0.38541294  0.54512779  1  0  1.604635  0  1.136765  0  0  1.456759  0  1.513028  0  0  1.495148  0  1.469404  0  0  0.991862  1.428737  0  1.543679  0
Sr  Sr1  1  0.27472069  0.61458729  0.04512840  1  0  1.604684  0  1.136675  0  0  1.456849  0  1.512851  0  0  1.495126  0  1.469413  0  0  0.991908  1.42884  0  1.543495  0
Sr  Sr2  1  0.77471910  0.61458362  0.45487213  1  0  1.604627  0  1.136809  0  0  1.456788  0  1.513006  0  0  1.495136  0  1.469452  0  0  0.991856  1.428766  0  1.543656  0
Sr  Sr3  1  0.72528188  0.38541525  0.95487152  1  0  1.604678  0  1.136686  0  0  1.456823  0  1.512899  0  0  1.495137  0  1.469398  0  0  0.991905  1.428816  0  1.543541  0
H  H4  1  0.35862202  0.85237377  0.25476756  1  0  0.312042  0  0.925565  0  0  0.287168  0  0.994755  0  0  0.297825  0  0.985463  0  0  0.316466  0.279533  0  1.001498  0
H  H5  1  0.14138044  0.14762943  0.75476824  1  0  0.31215  0  0.925522  0  0  0.287275  0  0.994729  0  0  0.297931  0  0.985438  0  0  0.316495  0.279637  0  1.00148  0
H  H6  1  0.64137861  0.14762729  0.74523236  1  0  0.312026  0  0.925565  0  0  0.287166  0  0.99474  0  0  0.297821  0  0.985452  0  0  0.316474  0.279537  0  1.001482  0
H  H7  1  0.85862165  0.85237160  0.24523168  1  0  0.312127  0  0.925535  0  0  0.287253  0  0.994747  0  0  0.297903  0  0.985457  0  0  0.316499  0.279618  0  1.001497  0
H  H8  1  0.36506312  0.92210448  0.43653561  1  0  0.101386  0  0.943644  0  0  0.107262  0  1.012113  0  0  0.110906  0  1.007281  0  0  0.151086  0.104537  0  1.015706  0
H  H9  1  0.13493863  0.07789972  0.93653620  1  0  0.101409  0  0.943644  0  0  0.107275  0  1.012127  0  0  0.110918  0  1.007295  0  0  0.1511  0.104551  0  1.015721  0
H  H10  1  0.63493606  0.07789659  0.56346431  1  0  0.101447  0  0.943672  0  0  0.107286  0  1.012171  0  0  0.110929  0  1.007341  0  0  0.151104  0.104562  0  1.015764  0
H  H11  1  0.86506200  0.92210133  0.06346298  1  0  0.101437  0  0.943684  0  0  0.107268  0  1.012195  0  0  0.110909  0  1.007368  0  0  0.151101  0.104544  0  1.015788  0
C  C12  1  0.37004322  0.03448663  0.38084991  1  0  0.27499  0  3.649692  0  0  0.210388  0  3.934958  0  0  0.225025  0  3.943168  0  0  0.175442  0.200868  0  3.929328  0
C  C13  1  0.12996005  0.96551503  0.88085166  1  0  0.274882  0  3.649906  0  0  0.210291  0  3.935174  0  0  0.22493  0  3.94338  0  0  0.175376  0.200771  0  3.929547  0
C  C14  1  0.62995643  0.96551595  0.61914780  1  0  0.274882  0  3.649688  0  0  0.210325  0  3.934945  0  0  0.22496  0  3.943152  0  0  0.175409  0.200811  0  3.929321  0
C  C15  1  0.87004156  0.03448450  0.11914752  1  0  0.274876  0  3.649843  0  0  0.21032  0  3.935127  0  0  0.224949  0  3.94333  0  0  0.175394  0.200803  0  3.929503  0
C  C16  1  0.36954442  0.16390124  0.23205676  1  0  0.010703  0  3.642414  0  0  -0.005648  0  3.905167  0  0  -0.006775  0  3.923928  0  0  0.095944  -0.004906  0  3.892726  0
C  C17  1  0.13045661  0.83609826  0.73205606  1  0  0.01067  0  3.642095  0  0  -0.005698  0  3.904826  0  0  -0.006821  0  3.923584  0  0  0.096008  -0.004957  0  3.892394  0
C  C18  1  0.63045476  0.83609983  0.76794315  1  0  0.010732  0  3.642299  0  0  -0.005616  0  3.90507  0  0  -0.006747  0  3.923826  0  0  0.095956  -0.00487  0  3.892632  0
C  C19  1  0.86954353  0.16390129  0.26794312  1  0  0.010644  0  3.642122  0  0  -0.005723  0  3.904868  0  0  -0.006856  0  3.923619  0  0  0.095946  -0.004979  0  3.892438  0
C  C20  1  0.37947236  0.31014689  0.30412541  1  0  -0.023202  0  3.771277  0  0  -0.027498  0  4.033762  0  0  -0.030611  0  4.054673  0  0  0.085071  -0.025504  0  4.019799  0
C  C21  1  0.12053197  0.68985600  0.80412680  1  0  -0.023181  0  3.77137  0  0  -0.027388  0  4.033759  0  0  -0.030489  0  4.05465  0  0  0.085085  -0.025402  0  4.019798  0
C  C22  1  0.62052633  0.68985268  0.69587451  1  0  -0.023231  0  3.771284  0  0  -0.027529  0  4.033761  0  0  -0.030648  0  4.054672  0  0  0.085084  -0.025528  0  4.01979  0
C  C23  1  0.87946818  0.31014355  0.19587385  1  0  -0.023162  0  3.771329  0  0  -0.027375  0  4.033751  0  0  -0.030472  0  4.054639  0  0  0.085091  -0.025386  0  4.019786  0
C  C24  1  0.38227631  0.52387435  0.30351021  1  0  0.676836  0  3.910045  0  0  0.624053  0  4.212167  0  0  0.659338  0  4.200558  0  0  0.231799  0.600014  0  4.219484  0
C  C25  1  0.11772123  0.47613019  0.80352245  1  0  0.676742  0  3.909927  0  0  0.623909  0  4.212086  0  0  0.659184  0  4.200487  0  0  0.231661  0.599889  0  4.21937  0
C  C26  1  0.61772432  0.47612670  0.69648897  1  0  0.676968  0  3.909965  0  0  0.624213  0  4.212024  0  0  0.659514  0  4.200384  0  0  0.231874  0.600175  0  4.219342  0
C  C27  1  0.88227892  0.52386936  0.19647674  1  0  0.676712  0  3.909899  0  0  0.623837  0  4.212129  0  0  0.659111  0  4.200529  0  0  0.231634  0.599816  0  4.219413  0
C  C28  1  0.37602717  0.15263504  0.12290724  1  0  0.681956  0  3.933845  0  0  0.630612  0  4.237287  0  0  0.665179  0  4.226505  0  0  0.231592  0.607073  0  4.243965  0
C  C29  1  0.12397639  0.84738500  0.62290936  1  0  0.682114  0  3.934207  0  0  0.630801  0  4.237569  0  0  0.665352  0  4.226819  0  0  0.23164  0.607261  0  4.244249  0
C  C30  1  0.62397200  0.84736603  0.87709268  1  0  0.681971  0  3.933773  0  0  0.630625  0  4.237218  0  0  0.665201  0  4.226419  0  0  0.231593  0.607088  0  4.243892  0
C  C31  1  0.87602231  0.15261458  0.37709056  1  0  0.682084  0  3.934133  0  0  0.630792  0  4.237474  0  0  0.665344  0  4.226722  0  0  0.231651  0.607253  0  4.244153  0
N  N32  1  0.38104137  0.22597436  0.39615600  1  0  -0.502269  0  3.181167  0  0  -0.447716  0  3.457938  0  0  -0.464387  0  3.474371  0  0  -0.40119  -0.4362  0  3.446612  0
N  N33  1  0.11896285  0.77402976  0.89615733  1  0  -0.502377  0  3.181381  0  0  -0.447869  0  3.458152  0  0  -0.46453  0  3.474576  0  0  -0.401266  -0.436351  0  3.446829  0
N  N34  1  0.61895732  0.77402522  0.60384318  1  0  -0.502304  0  3.181195  0  0  -0.447766  0  3.457979  0  0  -0.464435  0  3.474416  0  0  -0.401217  -0.436251  0  3.446648  0
N  N35  1  0.88103778  0.22597130  0.10384186  1  0  -0.502428  0  3.181302  0  0  -0.447909  0  3.458071  0  0  -0.464574  0  3.474493  0  0  -0.401287  -0.43639  0  3.446745  0
N  N36  1  0.36267133  0.99252051  0.28412968  1  0  -0.284747  0  3.429902  0  0  -0.221289  0  3.666596  0  0  -0.237248  0  3.680552  0  0  -0.359  -0.210673  0  3.657459  0
N  N37  1  0.13733156  0.00749221  0.78413020  1  0  -0.284728  0  3.429502  0  0  -0.221294  0  3.666218  0  0  -0.237256  0  3.680175  0  0  -0.358984  -0.210678  0  3.65709  0
N  N38  1  0.63732785  0.00748057  0.71587098  1  0  -0.284655  0  3.429757  0  0  -0.221229  0  3.666476  0  0  -0.237181  0  3.680426  0  0  -0.358994  -0.210636  0  3.657362  0
N  N39  1  0.86267005  0.99250732  0.21587045  1  0  -0.284641  0  3.429426  0  0  -0.22123  0  3.666163  0  0  -0.237163  0  3.680094  0  0  -0.35895  -0.210629  0  3.657047  0
O  O40  1  0.41496672  0.61185021  0.38752611  1  0  -0.73565  0  1.97237  0  0  -0.675431  0  2.222791  0  0  -0.700221  0  2.21082  0  0  -0.376977  -0.65793  0  2.230697  0
O  O41  1  0.08503896  0.38815873  0.88752217  1  0  -0.735548  0  1.972889  0  0  -0.675284  0  2.223272  0  0  -0.700045  0  2.211299  0  0  -0.376889  -0.657798  0  2.231174  0
O  O42  1  0.58503585  0.38815233  0.61247381  1  0  -0.735754  0  1.972396  0  0  -0.675529  0  2.222795  0  0  -0.700324  0  2.210814  0  0  -0.377046  -0.65802  0  2.230679  0
O  O43  1  0.91496167  0.61184232  0.11247848  1  0  -0.735509  0  1.972868  0  0  -0.675237  0  2.223286  0  0  -0.699999  0  2.211315  0  0  -0.376872  -0.657746  0  2.231171  0
O  O44  1  0.35137339  0.60914357  0.22495576  1  0  -0.672878  0  2.019458  0  0  -0.614731  0  2.264211  0  0  -0.640165  0  2.252752  0  0  -0.361998  -0.596888  0  2.271807  0
O  O45  1  0.14863299  0.39085459  0.72495049  1  0  -0.672936  0  2.018904  0  0  -0.614743  0  2.263612  0  0  -0.640197  0  2.252154  0  0  -0.361983  -0.596896  0  2.271195  0
O  O46  1  0.64862821  0.39085595  0.77504343  1  0  -0.672914  0  2.019453  0  0  -0.614777  0  2.264185  0  0  -0.640222  0  2.252716  0  0  -0.362003  -0.596937  0  2.271781  0
O  O47  1  0.85136425  0.60914501  0.27505017  1  0  -0.672955  0  2.018886  0  0  -0.614723  0  2.263582  0  0  -0.640171  0  2.252129  0  0  -0.361967  -0.596874  0  2.271164  0
O  O48  1  0.41496956  0.31536559  0.07172045  1  0  -0.774013  0  1.969067  0  0  -0.705513  0  2.224901  0  0  -0.731929  0  2.211898  0  0  -0.421199  -0.68681  0  2.233424  0
O  O49  1  0.08502877  0.68462614  0.57171812  1  0  -0.774164  0  1.96865  0  0  -0.70565  0  2.224424  0  0  -0.732085  0  2.211429  0  0  -0.421225  -0.68694  0  2.232943  0
O  O50  1  0.58503010  0.68463699  0.92828021  1  0  -0.77402  0  1.969047  0  0  -0.70553  0  2.22491  0  0  -0.731949  0  2.211901  0  0  -0.421191  -0.686828  0  2.233433  0
O  O51  1  0.91496896  0.31537043  0.42828180  1  0  -0.774123  0  1.96869  0  0  -0.705614  0  2.224458  0  0  -0.732052  0  2.211464  0  0  -0.421215  -0.686905  0  2.232977  0
O  O52  1  0.34913072  0.97983739  0.08712645  1  0  -0.669807  0  1.975981  0  0  -0.618472  0  2.2311  0  0  -0.642076  0  2.219964  0  0  -0.358914  -0.601918  0  2.238402  0
O  O53  1  0.15086807  0.02015528  0.58712910  1  0  -0.669681  0  1.976772  0  0  -0.618398  0  2.231941  0  0  -0.642008  0  2.220807  0  0  -0.358911  -0.601847  0  2.239246  0
O  O54  1  0.65086700  0.02016371  0.91287347  1  0  -0.669814  0  1.975956  0  0  -0.618474  0  2.231068  0  0  -0.642086  0  2.219925  0  0  -0.358913  -0.601922  0  2.238369  0
O  O55  1  0.84913160  0.97984276  0.41287156  1  0  -0.66972  0  1.976717  0  0  -0.618451  0  2.231882  0  0  -0.642056  0  2.220749  0  0  -0.358917  -0.6019  0  2.239185  0
