# generated using pymatgen
data_CuH5C5N2ClO3
_symmetry_space_group_name_H-M   'P 1'
_cell_length_a   6.07794516
_cell_length_b   9.72142516
_cell_length_c   13.37842041
_cell_angle_alpha   104.90315168
_cell_angle_beta   90.00067161
_cell_angle_gamma   108.20962649
_symmetry_Int_Tables_number   1
_chemical_formula_structural   CuH5C5N2ClO3
_chemical_formula_sum   'Cu4 H20 C20 N8 Cl4 O12'
_cell_volume   722.84771204
_cell_formula_units_Z   4
loop_
 _symmetry_equiv_pos_site_id
 _symmetry_equiv_pos_as_xyz
  1  'x, y, z'
loop_
 _atom_site_type_symbol
 _atom_site_label
 _atom_site_symmetry_multiplicity
 _atom_site_fract_x
 _atom_site_fract_y
 _atom_site_fract_z
 _atom_site_occupancy
 _atom_site_hle17_ddec_charge
 _atom_site_hle17_ddec_spin_density
 _atom_site_hle17_ddec_sum_bond_order
 _atom_site_hle17_magmom
 _atom_site_hse06_10hf_ddec_charge
 _atom_site_hse06_10hf_ddec_spin_density
 _atom_site_hse06_10hf_ddec_sum_bond_order
 _atom_site_hse06_10hf_magmom
 _atom_site_hse06_ddec_charge
 _atom_site_hse06_ddec_spin_density
 _atom_site_hse06_ddec_sum_bond_order
 _atom_site_hse06_magmom
 _atom_site_pbe_cm5_charge
 _atom_site_pbe_ddec_charge
 _atom_site_pbe_ddec_spin_density
 _atom_site_pbe_ddec_sum_bond_order
 _atom_site_pbe_magmom
Cu  Cu0  1  0.05636827  0.23310935  0.64611344  1  0.789927  -0.72881  1.938391  -0.487  0.76535  -0.811488  2.346757  -0.601  0.848961  -0.906862  2.279535  -0.689  0.684727  0.717846  -0.739236  2.391545  -0.542
Cu  Cu1  1  0.82411897  0.76665359  0.85389336  1  0.790622  0.679121  1.936971  0.489  0.766311  0.768778  2.34483  0.603  0.84949  0.842374  2.278115  0.69  0.685724  0.718705  0.716422  2.390646  0.547
Cu  Cu2  1  0.94353414  0.76697708  0.35394970  1  0.790842  0.679368  1.937934  0.489  0.766142  0.768588  2.34626  0.602  0.849462  0.842377  2.279233  0.69  0.685643  0.718974  0.71603  2.391045  0.546
Cu  Cu3  1  0.17606822  0.23344629  0.14617979  1  0.790741  0.678243  1.937215  0.488  0.766501  0.768665  2.345159  0.602  0.849911  0.842646  2.27819  0.69  0.685307  0.718178  0.713333  2.391599  0.544
H  H4  1  0.48695013  0.32809567  0.34222612  1  0.121555  0.000473  0.911568  0.001  0.124034  0.000265  0.977946  0.0  0.126984  0.000253  0.974607  0.0  0.133771  0.121763  0.000241  0.980558  0.0
H  H5  1  0.16011995  0.67259909  0.15830970  1  0.120748  0.001824  0.911199  0.002  0.12377  0.001634  0.977285  0.002  0.12672  0.001171  0.973963  0.002  0.133208  0.12122  0.002009  0.980175  0.003
H  H6  1  0.51308590  0.67252456  0.65808787  1  0.121553  0.001806  0.911951  0.002  0.124196  0.001621  0.978236  0.002  0.127162  0.001157  0.974923  0.002  0.133527  0.121703  0.001996  0.981016  0.002
H  H7  1  0.84048199  0.32797162  0.84198749  1  0.121266  -0.000523  0.910725  -0.001  0.124232  -0.000283  0.976742  0.0  0.127085  -0.000273  0.973524  0.0  0.133535  0.121919  -0.000261  0.979423  0.0
H  H8  1  0.76910234  0.14377659  0.26441668  1  0.105478  0.000903  0.949235  0.001  0.109745  0.000802  1.019279  0.001  0.113023  0.000588  1.016233  0.001  0.118732  0.107308  0.000955  1.021602  0.001
H  H9  1  0.62546546  0.85582905  0.23552554  1  0.10471  0.001665  0.949333  0.002  0.109102  0.001644  1.019477  0.002  0.112487  0.001196  1.016388  0.001  0.118413  0.106508  0.002001  1.021903  0.002
H  H10  1  0.23094970  0.85599378  0.73557119  1  0.105892  0.001343  0.948825  0.002  0.110169  0.001248  1.018788  0.002  0.113558  0.000885  1.01564  0.001  0.118677  0.10749  0.001544  1.021328  0.002
H  H11  1  0.37413482  0.14382425  0.76447016  1  0.105252  -0.000648  0.948982  -0.001  0.109348  -0.000453  1.019399  -0.001  0.112613  -0.000322  1.016416  -0.001  0.118691  0.106997  -0.000553  1.021633  -0.001
H  H12  1  0.71186264  0.11213277  0.44627535  1  0.105143  0.001606  0.976927  -0.001  0.111204  0.001346  1.042508  0.0  0.114487  0.000997  1.040497  0.0  0.108493  0.108809  0.00159  1.04434  0.0
H  H13  1  0.59995738  0.88730948  0.05340697  1  0.105262  0.003068  0.97646  0.002  0.11081  0.002758  1.042691  0.002  0.114195  0.002069  1.040623  0.002  0.108228  0.108227  0.003254  1.044655  0.003
H  H14  1  0.28812545  0.88776635  0.55359775  1  0.104961  -0.000816  0.976757  0.002  0.111215  -0.000516  1.042324  0.002  0.114626  -0.000444  1.040171  0.001  0.108206  0.108586  -0.000509  1.044357  0.002
H  H15  1  0.39992002  0.11246369  0.94643417  1  0.105673  0.002144  0.976404  0.001  0.110937  0.001832  1.042931  0.001  0.114209  0.001405  1.040957  0.001  0.108606  0.108593  0.002118  1.044706  0.001
H  H16  1  0.90009692  0.45501496  0.62989613  1  0.414267  7.4e-05  0.891534  0.0  0.385579  5.1e-05  0.952704  0.0  0.397702  4.9e-05  0.935217  0.0  0.27998  0.377241  3.5e-05  0.964714  0.0
H  H17  1  0.44577658  0.54479146  0.86995875  1  0.415204  -9.6e-05  0.890179  0.0  0.386542  -5.4e-05  0.951452  0.0  0.398669  -5.6e-05  0.933938  0.0  0.280451  0.378208  -3.1e-05  0.96347  0.0
H  H18  1  0.09972551  0.54497405  0.37002905  1  0.414151  -0.0001  0.891618  0.0  0.385541  -5.4e-05  0.952743  0.0  0.39768  -5.8e-05  0.935225  0.0  0.279778  0.377172  -3.3e-05  0.964807  0.0
H  H19  1  0.55435441  0.45514008  0.12997279  1  0.415263  -0.000101  0.890124  0.0  0.386426  -5.9e-05  0.951642  0.0  0.398553  -5.8e-05  0.934134  0.0  0.280253  0.37812  -4.1e-05  0.963613  0.0
H  H20  1  0.05401258  0.53625360  0.73981579  1  0.418227  -4.9e-05  0.885647  0.0  0.393228  4.6e-05  0.941215  0.0  0.404751  3e-06  0.924533  0.0  0.284801  0.385516  8.6e-05  0.952283  0.0
H  H21  1  0.51789144  0.46356138  0.75995127  1  0.418276  6.9e-05  0.88592  0.0  0.393392  -2e-05  0.941097  0.0  0.404889  1.2e-05  0.924466  0.0  0.284736  0.385601  -4.4e-05  0.952373  0.0
H  H22  1  0.94576147  0.46372747  0.26012284  1  0.418099  -0.000122  0.885713  0.0  0.393106  -9e-06  0.941264  0.0  0.404627  -4.6e-05  0.924578  0.0  0.284681  0.385394  2.9e-05  0.952346  0.0
H  H23  1  0.48234899  0.53639820  0.24000648  1  0.418275  -0.000118  0.885929  0.0  0.393379  6e-06  0.941171  0.0  0.404888  -3.6e-05  0.92453  0.0  0.284744  0.385566  5.5e-05  0.95246  0.0
C  C24  1  0.27831758  0.27464986  0.46690493  1  0.080447  0.016408  3.686567  0.018  0.08517  0.004622  3.928915  0.006  0.086142  0.00536  3.943928  0.007  0.128722  0.083666  0.004348  3.920341  0.006
C  C25  1  0.00464245  0.72531080  0.03320087  1  0.080893  0.002915  3.687821  0.003  0.08509  0.002942  3.930322  0.003  0.086283  0.001675  3.944988  0.001  0.128334  0.083118  0.003998  3.922484  0.004
C  C26  1  0.72150901  0.72533429  0.53311576  1  0.080902  0.001993  3.686055  0.002  0.085348  0.002441  3.928418  0.002  0.086435  0.00131  3.943212  0.001  0.128214  0.083645  0.003424  3.920178  0.003
C  C27  1  0.99546623  0.27460574  0.96683324  1  0.081324  -0.016868  3.68811  -0.017  0.085167  -0.00455  3.931213  -0.006  0.086237  -0.005536  3.946111  -0.007  0.128606  0.083377  -0.004006  3.923039  -0.005
C  C28  1  0.31293716  0.28158601  0.36508783  1  0.113795  -0.018903  3.598003  -0.018  0.078798  -0.00521  3.847693  -0.006  0.087496  -0.00652  3.860012  -0.007  0.076078  0.072714  -0.004323  3.841068  -0.005
C  C29  1  0.03255884  0.71879592  0.13508793  1  0.114084  -0.002486  3.59694  -0.003  0.078539  0.001128  3.846728  0.0  0.087311  3.8e-05  3.858891  -0.001  0.075627  0.072616  0.002137  3.840273  0.001
C  C30  1  0.68694550  0.71867153  0.63497691  1  0.113528  -0.002339  3.598314  -0.003  0.078405  0.001115  3.847963  0.0  0.087144  0.000126  3.860142  -0.001  0.076015  0.072329  0.002113  3.841657  0.001
C  C31  1  0.96778458  0.28142888  0.86499082  1  0.113913  0.0174  3.59683  0.018  0.078553  0.004821  3.846916  0.006  0.087232  0.00587  3.859271  0.007  0.075848  0.072673  0.004098  3.840148  0.005
C  C32  1  0.91636423  0.17679029  0.32210638  1  0.098197  -0.018057  3.593436  -0.018  0.066682  -0.004022  3.852571  -0.005  0.072586  -0.005567  3.866362  -0.007  0.065988  0.063019  -0.002835  3.843092  -0.004
C  C33  1  0.73974291  0.82300348  0.17778801  1  0.099693  0.000876  3.595858  0.001  0.068077  0.003319  3.853941  0.003  0.073911  0.001754  3.867906  0.002  0.066019  0.064071  0.004824  3.845788  0.005
C  C34  1  0.08381931  0.82313777  0.67785216  1  0.097257  0.001103  3.595477  0.002  0.065938  0.003247  3.85438  0.003  0.071893  0.00182  3.868001  0.002  0.065561  0.062199  0.004461  3.845178  0.005
C  C35  1  0.25996269  0.17686046  0.82217115  1  0.099011  0.016774  3.594849  0.018  0.067432  0.003827  3.853491  0.005  0.073167  0.005039  3.867592  0.006  0.065933  0.063512  0.002931  3.845088  0.004
C  C36  1  0.88318355  0.16325182  0.42265366  1  0.108299  0.019814  3.61612  0.021  0.078198  0.00652  3.874481  0.009  0.083489  0.007006  3.888238  0.009  0.065667  0.074324  0.00608  3.865641  0.008
C  C37  1  0.72025291  0.83643025  0.07725905  1  0.10807  0.003637  3.618144  0.004  0.07866  0.004042  3.875201  0.004  0.083884  0.002345  3.889108  0.002  0.065635  0.074493  0.005494  3.867734  0.006
C  C38  1  0.11686942  0.83672114  0.57734548  1  0.108753  -0.000531  3.617038  0.0  0.078425  0.000799  3.874858  0.0  0.083693  -2.8e-05  3.888538  -0.001  0.065437  0.074559  0.001623  3.866229  0.001
C  C39  1  0.27956120  0.16343353  0.92273970  1  0.108055  -0.017234  3.617801  -0.017  0.078709  -0.003716  3.875268  -0.005  0.083924  -0.005228  3.889255  -0.006  0.065778  0.074529  -0.002453  3.867609  -0.003
C  C40  1  0.47011706  0.33836343  0.55330992  1  0.62332  0.002713  3.898086  0.004  0.569589  -0.000401  4.202516  0.001  0.605428  -0.000447  4.196608  0.0  0.218867  0.545505  -0.000405  4.205757  0.001
C  C41  1  0.13257808  0.66150971  0.94679936  1  0.621295  -0.002065  3.902842  -0.003  0.568256  0.00135  4.206859  0.0  0.604114  0.000997  4.201001  0.0  0.218045  0.543924  0.001659  4.209773  0.0
C  C42  1  0.52985944  0.66163098  0.44667159  1  0.622829  -0.002462  3.897202  -0.004  0.569279  0.001074  4.201794  0.0  0.605169  0.000789  4.195891  0.0  0.218869  0.545085  0.001442  4.205028  0.0
C  C43  1  0.86741122  0.33841486  0.05319365  1  0.621796  -0.002965  3.90269  -0.004  0.568595  0.000369  4.206861  -0.001  0.604402  0.000354  4.200997  0.0  0.218366  0.544381  0.000357  4.209739  -0.001
N  N44  1  0.06448689  0.21401704  0.49408669  1  -0.238777  -0.085027  3.329606  -0.099  -0.20008  -0.057528  3.614301  -0.072  -0.22266  -0.050071  3.63299  -0.065  -0.322057  -0.187801  -0.06023  3.604521  -0.074
N  N45  1  0.85094354  0.78554559  0.00587816  1  -0.239777  0.064628  3.328791  0.081  -0.200016  0.050344  3.611906  0.067  -0.22251  0.041367  3.630619  0.058  -0.322292  -0.188109  0.055404  3.603137  0.071
N  N46  1  0.93545105  0.78583771  0.50591559  1  -0.239873  0.065751  3.328868  0.082  -0.200308  0.050783  3.612875  0.067  -0.222821  0.041835  3.631492  0.058  -0.321926  -0.188182  0.055485  3.603274  0.071
N  N47  1  0.14885723  0.21417635  0.99412151  1  -0.239648  0.078235  3.330183  0.099  -0.200209  0.054013  3.613786  0.072  -0.222773  0.045937  3.632582  0.065  -0.32218  -0.188099  0.057983  3.604867  0.074
N  N48  1  0.13113530  0.23408992  0.29388975  1  -0.235737  0.079548  3.333938  0.1  -0.186074  0.054314  3.622738  0.072  -0.210147  0.046038  3.640554  0.065  -0.329398  -0.172732  0.058486  3.61347  0.075
N  N49  1  0.89777943  0.76619708  0.20615981  1  -0.236671  0.066831  3.334804  0.084  -0.186187  0.05027  3.623146  0.067  -0.210249  0.041338  3.64098  0.058  -0.328981  -0.173384  0.055131  3.614083  0.071
N  N50  1  0.86898444  0.76600010  0.70610978  1  -0.236193  0.066842  3.33348  0.084  -0.186211  0.050278  3.621881  0.067  -0.210193  0.04132  3.639595  0.058  -0.329223  -0.173089  0.055068  3.612735  0.07
N  N51  1  0.10224516  0.23391653  0.79385762  1  -0.235425  -0.085843  3.335651  -0.1  -0.185419  -0.057714  3.624459  -0.072  -0.209432  -0.04991  3.642196  -0.065  -0.328692  -0.172531  -0.060845  3.615335  -0.075
Cl  Cl52  1  0.69183234  0.07370265  0.63366012  1  -0.509378  -0.14941  0.959172  -0.162  -0.525233  -0.088802  1.255448  -0.103  -0.559537  -0.069467  1.237378  -0.083  -0.308772  -0.504351  -0.097474  1.26858  -0.111
Cl  Cl53  1  0.61853452  0.92583810  0.86637698  1  -0.508495  0.138879  0.957847  0.163  -0.52484  0.083512  1.253542  0.103  -0.559214  0.06332  1.23565  0.082  -0.308389  -0.503444  0.094942  1.26727  0.113
Cl  Cl54  1  0.30808691  0.92627268  0.36631031  1  -0.508594  0.139305  0.959231  0.164  -0.524992  0.083843  1.255814  0.104  -0.559393  0.063548  1.237731  0.083  -0.308206  -0.503741  0.095188  1.268853  0.114
Cl  Cl55  1  0.38151852  0.07418106  0.13360695  1  -0.50903  0.138251  0.95758  0.163  -0.525152  0.08326  1.253188  0.103  -0.559368  0.063272  1.235157  0.082  -0.308955  -0.504013  0.093959  1.267084  0.112
O  O56  1  0.40429324  0.32336955  0.64272867  1  -0.601618  -0.072338  2.129388  -0.09  -0.555504  -0.052385  2.398386  -0.072  -0.596647  -0.041692  2.390035  -0.059  -0.312885  -0.528381  -0.058622  2.403936  -0.078
O  O57  1  0.08193958  0.67649978  0.85733826  1  -0.599286  0.070468  2.128587  0.094  -0.555016  0.050733  2.398586  0.073  -0.596401  0.039224  2.390373  0.06  -0.312196  -0.526958  0.058833  2.403685  0.082
O  O58  1  0.59568500  0.67672048  0.35727086  1  -0.600374  0.070808  2.128456  0.095  -0.555289  0.050897  2.398126  0.074  -0.596698  0.039337  2.389903  0.06  -0.31249  -0.527578  0.058778  2.403337  0.082
O  O59  1  0.91823023  0.32360483  0.14267448  1  -0.600493  0.067041  2.129235  0.09  -0.555396  0.049306  2.398826  0.072  -0.596571  0.03839  2.390543  0.059  -0.312761  -0.527795  0.056524  2.404238  0.079
O  O60  1  0.67240646  0.40254098  0.53514327  1  -0.552624  -0.014542  1.963459  -0.017  -0.5037  -0.00815  2.180723  -0.01  -0.531866  -0.003842  2.176121  -0.005  -0.282355  -0.483144  -0.012688  2.182913  -0.016
O  O61  1  0.27057716  0.59720208  0.96489892  1  -0.552942  0.014605  1.966134  0.019  -0.503696  0.00794  2.182642  0.011  -0.531825  0.00382  2.177998  0.005  -0.281956  -0.482585  0.012746  2.184525  0.017
O  O62  1  0.32752026  0.59740981  0.46476274  1  -0.552732  0.01448  1.963541  0.018  -0.503634  0.0079  2.180694  0.011  -0.531828  0.003766  2.176105  0.005  -0.282452  -0.483038  0.012548  2.182843  0.016
O  O63  1  0.72938883  0.40264626  0.03500796  1  -0.553196  0.013305  1.966102  0.017  -0.503792  0.007544  2.1825  0.01  -0.531981  0.003354  2.177953  0.005  -0.282194  -0.482674  0.012232  2.184347  0.016
O  O64  1  0.04309162  0.46478062  0.67107025  1  -0.840951  0.00143  1.883764  0.001  -0.797403  0.000503  2.073061  0.0  -0.820531  0.000524  2.036137  0.0  -0.610309  -0.781273  0.000524  2.097768  0.0
O  O65  1  0.57873246  0.53499205  0.82868381  1  -0.84216  -0.001238  1.882385  -0.001  -0.798951  -0.000437  2.071296  0.0  -0.821888  -0.000566  2.03441  0.0  -0.611017  -0.78278  -0.000188  2.096678  0.0
O  O66  1  0.95671166  0.53521615  0.32888479  1  -0.840961  -0.001135  1.883341  0.0  -0.797532  -0.000322  2.072372  0.0  -0.820578  -0.000566  2.035411  0.0  -0.610272  -0.781484  7.1e-05  2.097166  0.001
O  O67  1  0.42144920  0.46496189  0.17128035  1  -0.841914  -0.00092  1.882716  0.0  -0.798533  -0.000165  2.071685  0.0  -0.821557  -0.000463  2.034773  0.0  -0.610565  -0.782216  0.000186  2.09708  0.001
