# generated using pymatgen
data_Zn3H23C38BrO13
_symmetry_space_group_name_H-M   'P 1'
_cell_length_a   21.67643865
_cell_length_b   21.67615551
_cell_length_c   23.47818058
_cell_angle_alpha   62.06056518
_cell_angle_beta   62.05923054
_cell_angle_gamma   89.19522180
_symmetry_Int_Tables_number   1
_chemical_formula_structural   Zn3H23C38BrO13
_chemical_formula_sum   'Zn6 H46 C76 Br2 O26'
_cell_volume   8305.88431207
_cell_formula_units_Z   2
loop_
 _symmetry_equiv_pos_site_id
 _symmetry_equiv_pos_as_xyz
  1  'x, y, z'
loop_
 _atom_site_type_symbol
 _atom_site_label
 _atom_site_symmetry_multiplicity
 _atom_site_fract_x
 _atom_site_fract_y
 _atom_site_fract_z
 _atom_site_occupancy
 _atom_site_pbe_bader_charge
 _atom_site_pbe_bader_spin_density
 _atom_site_pbe_cm5_charge
 _atom_site_pbe_ddec_charge
 _atom_site_pbe_ddec_spin_density
 _atom_site_pbe_ddec_sum_bond_order
 _atom_site_pbe_magmom
Zn  Zn0  1  0.49896105  0.05951122  0.50037126  1  1.305797  0  0.717589  0.942295  0  2.181644  0
Zn  Zn1  1  0.03934810  0.03953188  0.42314744  1  1.309345  0  0.71922  0.954964  0  2.139638  0
Zn  Zn2  1  0.96049093  0.96070381  0.57678360  1  1.307477  0  0.719419  0.955231  0  2.139218  0
Zn  Zn3  1  0.94047985  0.50103288  0.49964919  1  1.306286  0  0.71763  0.942351  0  2.181223  0
Zn  Zn4  1  0.49850221  0.93376566  0.50386491  1  1.306512  0  0.719514  0.952314  0  2.146143  0
Zn  Zn5  1  0.06621043  0.50149159  0.49615182  1  1.306327  0  0.71947  0.952248  0  2.146221  0
H  H6  1  0.26105218  0.69362122  0.12755415  1  0.10694  0  0.10895  0.112933  0  0.984106  0
H  H7  1  0.75480080  0.27549198  0.11832026  1  0.083408  0  0.112618  0.131852  0  0.98336  0
H  H8  1  0.72449410  0.24520266  0.88169497  1  0.083128  0  0.112643  0.131858  0  0.983534  0
H  H9  1  0.95199490  0.43842784  0.72847475  1  0.105854  0  0.109544  0.115922  0  0.983859  0
H  H10  1  0.56154262  0.04799537  0.27154586  1  0.105229  0  0.10951  0.115953  0  0.983792  0
H  H11  1  0.88866291  0.37098723  0.86901033  1  0.072159  0  0.107017  0.112525  0  0.987725  0
H  H12  1  0.62899604  0.11132487  0.13100491  1  0.072136  0  0.107013  0.112498  0  0.987723  0
H  H13  1  0.30603338  0.73897349  0.87245836  1  0.107181  0  0.108899  0.113123  0  0.983921  0
H  H14  1  0.26158155  0.85206543  0.58738455  1  0.087042  0  0.110202  0.114407  0  0.985179  0
H  H15  1  0.14793481  0.73837573  0.41270204  1  0.086421  0  0.110396  0.114455  0  0.985039  0
H  H16  1  0.13984331  0.85632728  0.60496277  1  0.080934  0  0.110169  0.115471  0  0.984013  0
H  H17  1  0.14368902  0.86012383  0.39509367  1  0.081194  0  0.110095  0.115282  0  0.983925  0
H  H18  1  0.21161812  0.14361931  0.47292406  1  0.086537  0  0.107445  0.099386  0  0.960907  0
H  H19  1  0.85641672  0.78849327  0.52683438  1  0.089121  0  0.107498  0.099175  0  0.961245  0
H  H20  1  0.36520588  0.13612282  0.37876619  1  0.092692  0  0.099515  0.121206  0  0.981783  0
H  H21  1  0.86380695  0.63488746  0.62107940  1  0.079  0  0.099441  0.121247  0  0.981317  0
H  H22  1  0.18562425  0.61708604  0.26843987  1  0.09301  0  0.109473  0.116978  0  0.992584  0
H  H23  1  0.38257601  0.81436270  0.73157754  1  0.090503  0  0.109222  0.116934  0  0.991817  0
H  H24  1  0.33273007  0.13881789  0.46294376  1  0.062635  0  0.102925  0.12388  0  0.968721  0
H  H25  1  0.86120737  0.66735102  0.53685902  1  0.059482  0  0.102963  0.123628  0  0.969433  0
H  H26  1  0.99193872  0.62397376  0.25968060  1  0.068013  0  0.109648  0.114825  0  0.987772  0
H  H27  1  0.37635292  0.00805476  0.74031723  1  0.069755  0  0.109697  0.115242  0  0.987238  0
H  H28  1  0.06652935  0.70067400  0.11856969  1  0.067656  0  0.108625  0.112279  0  0.985538  0
H  H29  1  0.75432488  0.13237616  0.36534766  1  0.060482  0  0.099017  0.114302  0  0.981031  0
H  H30  1  0.29973705  0.93347622  0.88146011  1  0.067529  0  0.108663  0.112366  0  0.985501  0
H  H31  1  0.65264667  0.85416859  0.59093391  1  0.077716  0  0.105633  0.110765  0  0.989671  0
H  H32  1  0.14584217  0.34728189  0.40923444  1  0.083659  0  0.105665  0.110676  0  0.989804  0
H  H33  1  0.75938584  0.86222593  0.60341273  1  0.100456  0  0.091995  0.094995  0  1.04836  0
H  H34  1  0.13783369  0.24058717  0.39669158  1  0.100869  0  0.091947  0.09473  0  1.048214  0
H  H35  1  0.86748919  0.24576509  0.63444247  1  0.0606  0  0.09948  0.115038  0  0.980388  0
H  H36  1  0.82368005  0.15145163  0.44649282  1  0.032115  0  0.093992  0.098585  0  0.992786  0
H  H37  1  0.84860999  0.17647140  0.55315539  1  0.038876  0  0.094087  0.09837  0  0.992501  0
H  H38  1  0.86875434  0.13760767  0.36906674  1  0.077352  0  0.098727  0.10989  0  0.97915  0
H  H39  1  0.86231466  0.13134148  0.63067567  1  0.083222  0  0.098655  0.109952  0  0.979161  0
H  H40  1  0.70921247  0.14285220  0.44479747  1  0.040837  0  0.095963  0.104894  0  0.990394  0
H  H41  1  0.85714182  0.29090769  0.55489345  1  0.028832  0  0.09565  0.104534  0  0.990276  0
H  H42  1  0.74096023  0.39802059  0.70454897  1  0.064677  0  0.095745  0.057672  0  0.989297  0
H  H43  1  0.67514065  0.31560507  0.78686635  1  0.043484  0  0.09242  0.045532  0  0.973461  0
H  H44  1  0.69544997  0.26421515  0.70402016  1  0.02869  0  0.09255  0.125834  0  0.991074  0
H  H45  1  0.66622766  0.34477020  0.67460218  1  0.044382  0  0.093557  0.123877  0  0.995862  0
H  H46  1  0.75932233  0.34777955  0.62322444  1  0.039831  0  0.091434  0.125345  0  1.005168  0
H  H47  1  0.60199136  0.25903462  0.29544937  1  0.064529  0  0.095651  0.057519  0  0.989328  0
H  H48  1  0.68441381  0.32483274  0.21316094  1  0.043213  0  0.092221  0.0452  0  0.973626  0
H  H49  1  0.73575658  0.30448187  0.29605205  1  0.029383  0  0.092561  0.125924  0  0.991042  0
H  H50  1  0.65522056  0.33372691  0.32543575  1  0.045198  0  0.093605  0.124055  0  0.995852  0
H  H51  1  0.65217231  0.24062842  0.37682724  1  0.038676  0  0.091552  0.125532  0  1.005559  0
C  C52  1  0.61152989  0.96819284  0.50870701  1  1.524356  0  0.222022  0.616005  0  4.130949  0
C  C53  1  0.25179440  0.78805338  0.96586373  1  -0.283245  0  -0.041093  -0.105096  0  4.11108  0
C  C54  1  0.02764903  0.83303100  0.46612743  1  -0.038384  0  -0.001372  -0.031167  0  3.944726  0
C  C55  1  0.22332545  0.03483471  0.49007177  1  0.066653  0  -0.012466  0.001728  0  3.898648  0
C  C56  1  0.96516053  0.77671967  0.50982635  1  0.057845  0  -0.012778  0.001071  0  3.89964  0
C  C57  1  0.24389681  0.11663016  0.44428345  1  -0.02373  0  -0.061424  0.030705  0  3.733308  0
C  C58  1  0.88336614  0.75619266  0.55552428  1  -0.026837  0  -0.061041  0.031858  0  3.732239  0
C  C59  1  0.31980357  0.11424194  0.43690414  1  -0.031781  0  -0.150467  -0.236293  0  3.869071  0
C  C60  1  0.21198534  0.74827592  0.03415891  1  -0.030675  0  -0.040875  -0.104445  0  4.110382  0
C  C61  1  0.88574486  0.68027153  0.56293117  1  -0.0139  0  -0.150399  -0.236107  0  3.869031  0
C  C62  1  0.02396734  0.90284023  0.46373153  1  1.585794  0  0.221769  0.61147  0  4.143532  0
C  C63  1  0.09718320  0.97605511  0.53621198  1  1.582702  0  0.221936  0.611566  0  4.143701  0
C  C64  1  0.87053986  0.98252465  0.52603796  1  1.531962  0  0.223741  0.619704  0  4.127139  0
C  C65  1  0.01752695  0.12949636  0.47389415  1  1.544874  0  0.223685  0.619438  0  4.126847  0
C  C66  1  0.57234580  0.08745086  0.35820521  1  1.548668  0  0.224332  0.62621  0  4.116428  0
C  C67  1  0.91253316  0.42763916  0.64182386  1  1.548958  0  0.224347  0.626474  0  4.116388  0
C  C68  1  0.20217788  0.67838934  0.15662509  1  -0.051897  0  -0.081215  -0.129531  0  3.9527  0
C  C69  1  0.32141893  0.79784065  0.84339381  1  -0.047561  0  -0.081679  -0.130601  0  3.953287  0
C  C70  1  0.16041733  0.63587340  0.23479172  1  -0.034664  0  -0.079688  -0.081238  0  3.980753  0
C  C71  1  0.72781535  0.03444431  0.47467420  1  0.052579  0  -0.004306  0.063739  0  3.889151  0
C  C72  1  0.36392919  0.83957697  0.76522895  1  -0.036362  0  -0.079114  -0.080795  0  3.979957  0
C  C73  1  0.08452497  0.61664927  0.27227461  1  -0.02944  0  -0.018959  -0.037508  0  3.972346  0
C  C74  1  0.38334962  0.91546208  0.72774207  1  -0.02719  0  -0.018977  -0.037186  0  3.97247  0
C  C75  1  0.05082909  0.63962351  0.23016382  1  -0.023423  0  -0.07843  -0.085293  0  3.982234  0
C  C76  1  0.36055764  0.94916389  0.76985522  1  -0.040298  0  -0.078916  -0.087013  0  3.982708  0
C  C77  1  0.96553280  0.27225817  0.52518315  1  0.039283  0  -0.004171  0.063388  0  3.889074  0
C  C78  1  0.09237182  0.68232158  0.15166455  1  -0.050156  0  -0.081252  -0.129782  0  3.945265  0
C  C79  1  0.31789602  0.90763604  0.84835673  1  -0.037127  0  -0.080855  -0.128695  0  3.94542  0
C  C80  1  0.72389399  0.33924569  0.72977823  1  0.382827  0  -0.067938  0.093965  0  3.920341  0
C  C81  1  0.71050950  0.32285670  0.67997506  1  -0.05459  0  -0.242631  -0.393248  0  3.982  0
C  C82  1  0.66075643  0.27608017  0.27024781  1  0.383366  0  -0.067643  0.094566  0  3.919765  0
C  C83  1  0.67712352  0.28943746  0.32007288  1  -0.054929  0  -0.242732  -0.393736  0  3.982659  0
C  C84  1  0.67719639  0.96888852  0.51372890  1  -0.061759  0  -0.014109  -0.076031  0  3.984696  0
C  C85  1  0.03109207  0.32283673  0.48623489  1  -0.067251  0  -0.0144  -0.076118  0  3.983835  0
C  C86  1  0.03178693  0.38847097  0.49129730  1  1.528755  0  0.222132  0.616416  0  4.131411  0
C  C87  1  0.69102874  0.90657032  0.55906853  1  0.003824  0  -0.084204  -0.098794  0  3.979432  0
C  C88  1  0.09343311  0.30895149  0.44098943  1  -0.000908  0  -0.084055  -0.098722  0  3.979474  0
C  C89  1  0.75139691  0.91102238  0.56578644  1  -0.061793  0  -0.088866  -0.108944  0  3.978837  0
C  C90  1  0.08900447  0.24861127  0.43423992  1  -0.048741  0  -0.088992  -0.108888  0  3.979044  0
C  C91  1  0.80345556  0.97744325  0.52378382  1  -0.003775  0  -0.011056  -0.062538  0  3.969727  0
C  C92  1  0.02258050  0.19658429  0.47614406  1  -0.02883  0  -0.010817  -0.061734  0  3.968637  0
C  C93  1  0.79030219  0.03832503  0.47751859  1  -0.022526  0  -0.007581  0.052636  0  3.891974  0
C  C94  1  0.96166306  0.20979549  0.52230344  1  -0.008089  0  -0.007462  0.052547  0  3.892327  0
C  C95  1  0.81824953  0.11972721  0.42302758  1  -0.028285  0  -0.150494  -0.195045  0  3.876314  0
C  C96  1  0.88025580  0.18187859  0.57670912  1  -0.05456  0  -0.150239  -0.194461  0  3.876558  0
C  C97  1  0.74667598  0.11532787  0.42078160  1  -0.02258  0  -0.150632  -0.196787  0  3.866589  0
C  C98  1  0.88462904  0.25344052  0.57897380  1  0.001059  0  -0.151098  -0.197446  0  3.866705  0
C  C99  1  0.42683010  0.95738960  0.64371390  1  1.604389  0  0.216845  0.598193  0  4.141185  0
C  C100  1  0.04258920  0.57316036  0.35630567  1  1.603916  0  0.216729  0.598088  0  4.141443  0
C  C101  1  0.77330889  0.28875818  0.84887720  1  0.063816  0  -0.089481  -0.240994  0  3.912737  0
C  C102  1  0.16858573  0.70291407  0.11390909  1  0.09454  0  0.005785  0.147692  0  4.111798  0
C  C103  1  0.71123214  0.22667775  0.15113951  1  0.06321  0  -0.08945  -0.241054  0  3.91299  0
C  C104  1  0.80793686  0.32808501  0.77015881  1  0.454378  0  0.08972  0.243644  0  4.060822  0
C  C105  1  0.67190850  0.19205124  0.22985386  1  0.453689  0  0.089851  0.243717  0  4.060997  0
C  C106  1  0.87236875  0.38350586  0.72609555  1  -0.026098  0  -0.019412  -0.132202  0  3.935063  0
C  C107  1  0.61647754  0.12762091  0.27392318  1  -0.024873  0  -0.019397  -0.132227  0  3.934493  0
C  C108  1  0.29710917  0.83143787  0.88611597  1  0.093045  0  0.005902  0.148082  0  4.113004  0
C  C109  1  0.90122357  0.39690386  0.76301390  1  -0.015484  0  -0.080603  -0.070856  0  4.006125  0
C  C110  1  0.60307782  0.09876027  0.23700397  1  -0.015882  0  -0.080546  -0.070857  0  4.005406  0
C  C111  1  0.86623470  0.35909190  0.84121427  1  -0.023589  0  -0.088592  -0.144471  0  3.960606  0
C  C112  1  0.64089242  0.13376191  0.15879606  1  -0.023349  0  -0.088573  -0.144463  0  3.959804  0
C  C113  1  0.80113210  0.30425813  0.88563293  1  0.004652  0  0.005025  0.165205  0  4.122722  0
C  C114  1  0.69573786  0.19886114  0.11437530  1  0.00548  0  0.004917  0.165232  0  4.12216  0
C  C115  1  0.76486060  0.26596585  0.96559056  1  -0.377491  0  -0.043001  -0.104343  0  4.097784  0
C  C116  1  0.73402620  0.23513780  0.03441328  1  0.098243  0  -0.04305  -0.104456  0  4.097584  0
C  C117  1  0.28999644  0.03271093  0.48465657  1  -0.01879  0  0.000667  0.081234  0  3.891518  0
C  C118  1  0.96728331  0.71005241  0.51525361  1  -0.021058  0  0.000756  0.0816  0  3.891365  0
C  C119  1  0.30657022  0.96777656  0.51824116  1  0.003313  0  -0.011236  -0.069766  0  3.966557  0
C  C120  1  0.03222330  0.69344599  0.48173041  1  0.003393  0  -0.011052  -0.069865  0  3.96625  0
C  C121  1  0.25095165  0.90418078  0.56047995  1  -0.007173  0  -0.074818  -0.087378  0  3.963268  0
C  C122  1  0.09582705  0.74903172  0.43954730  1  -0.006611  0  -0.074926  -0.087262  0  3.963313  0
C  C123  1  0.37884377  0.96879108  0.51002475  1  1.544638  0  0.220395  0.610309  0  4.141985  0
C  C124  1  0.03119067  0.62115257  0.48998060  1  1.544901  0  0.220475  0.610364  0  4.141889  0
C  C125  1  0.18232599  0.90656356  0.56994442  1  -0.037021  0  -0.080135  -0.108927  0  3.96743  0
C  C126  1  0.09344880  0.81765742  0.43007022  1  -0.037367  0  -0.080215  -0.108555  0  3.96727  0
C  C127  1  0.16697668  0.97236217  0.53383360  1  -0.046214  0  -0.001573  -0.030932  0  3.944076  0
Br  Br128  1  0.24886394  0.16351769  0.34663757  1  -0.14046  0  -0.038239  -0.135378  0  1.256954  0
Br  Br129  1  0.83636692  0.75121598  0.65319149  1  -0.140257  0  -0.038411  -0.135811  0  1.256651  0
O  O130  1  0.58833020  0.02435706  0.49930227  1  -1.173164  0  -0.309953  -0.567101  0  2.338014  0
O  O131  1  0.05124240  0.13536393  0.40883537  1  -1.119739  0  -0.316033  -0.528959  0  2.253015  0
O  O132  1  0.86465498  0.94880212  0.59111056  1  -1.119157  0  -0.31583  -0.528734  0  2.252771  0
O  O133  1  0.92924395  0.02050207  0.46255712  1  -1.179017  0  -0.312952  -0.569938  0  2.294061  0
O  O134  1  0.97955856  0.07079494  0.53737969  1  -1.178773  0  -0.312769  -0.56969  0  2.293644  0
O  O135  1  0.58271134  0.91329814  0.51301455  1  -1.132455  0  -0.32  -0.531853  0  2.210677  0
O  O136  1  0.08666626  0.41726837  0.48701861  1  -1.131834  0  -0.320023  -0.53195  0  2.210726  0
O  O137  1  0.97562050  0.41167178  0.50071104  1  -1.173982  0  -0.310078  -0.567379  0  2.338532  0
O  O138  1  0.44454168  0.02737913  0.60778284  1  -1.152437  0  -0.32294  -0.535491  0  2.217487  0
O  O139  1  0.97260393  0.55546233  0.39222520  1  -1.153313  0  -0.322964  -0.535457  0  2.217891  0
O  O140  1  0.44387453  0.92122261  0.61140527  1  -1.188937  0  -0.314532  -0.57866  0  2.363678  0
O  O141  1  0.07875756  0.55610259  0.38861848  1  -1.188208  0  -0.314388  -0.578563  0  2.363486  0
O  O142  1  0.41025962  0.02552785  0.49943633  1  -1.173019  0  -0.308947  -0.564227  0  2.328009  0
O  O143  1  0.97444470  0.58972626  0.50058929  1  -1.17287  0  -0.309083  -0.564334  0  2.328299  0
O  O144  1  0.40506732  0.91429274  0.51329913  1  -1.135629  0  -0.319004  -0.531285  0  2.217284  0
O  O145  1  0.08569663  0.59493551  0.48669997  1  -1.135224  0  -0.319011  -0.531269  0  2.217129  0
O  O146  1  0.55460110  0.12433537  0.39079991  1  -1.124512  0  -0.309317  -0.528379  0  2.28721  0
O  O147  1  0.87563917  0.44536964  0.60924374  1  -1.124463  0  -0.309367  -0.528538  0  2.286822  0
O  O148  1  0.55365639  0.01868760  0.39227287  1  -1.133364  0  -0.314915  -0.572556  0  2.306121  0
O  O149  1  0.98129711  0.44632741  0.60775679  1  -1.133087  0  -0.314904  -0.572741  0  2.305966  0
O  O150  1  0.98551529  0.89674460  0.52750222  1  -1.171757  0  -0.306215  -0.570104  0  2.36945  0
O  O151  1  0.10326711  0.01449441  0.47245226  1  -1.171338  0  -0.306177  -0.570106  0  2.369916  0
O  O152  1  0.78162518  0.30819945  0.73629582  1  -1.069362  0  -0.20929  -0.25165  0  2.491315  0
O  O153  1  0.05836668  0.96310370  0.39966284  1  -1.137097  0  -0.316395  -0.524544  0  2.202627  0
O  O154  1  0.69179545  0.21834461  0.26372892  1  -1.06912  0  -0.209415  -0.251697  0  2.490981  0
O  O155  1  0.03691874  0.94165625  0.60027624  1  -1.136632  0  -0.316509  -0.524652  0  2.202726  0
