# generated using pymatgen
data_CaH18C16N2O11
_symmetry_space_group_name_H-M   'P 1'
_cell_length_a   6.90070659
_cell_length_b   12.16484206
_cell_length_c   12.03902237
_cell_angle_alpha   69.52519690
_cell_angle_beta   73.34316429
_cell_angle_gamma   73.55235597
_symmetry_Int_Tables_number   1
_chemical_formula_structural   CaH18C16N2O11
_chemical_formula_sum   'Ca2 H36 C32 N4 O22'
_cell_volume   888.02589355
_cell_formula_units_Z   2
loop_
 _symmetry_equiv_pos_site_id
 _symmetry_equiv_pos_as_xyz
  1  'x, y, z'
loop_
 _atom_site_type_symbol
 _atom_site_label
 _atom_site_symmetry_multiplicity
 _atom_site_fract_x
 _atom_site_fract_y
 _atom_site_fract_z
 _atom_site_occupancy
 _atom_site_hle17_bader_spin_density
 _atom_site_hle17_ddec_charge
 _atom_site_hle17_ddec_spin_density
 _atom_site_hle17_ddec_sum_bond_order
 _atom_site_hle17_magmom
 _atom_site_hse06_10hf_bader_spin_density
 _atom_site_hse06_10hf_ddec_charge
 _atom_site_hse06_10hf_ddec_spin_density
 _atom_site_hse06_10hf_ddec_sum_bond_order
 _atom_site_hse06_10hf_magmom
 _atom_site_hse06_bader_spin_density
 _atom_site_hse06_ddec_charge
 _atom_site_hse06_ddec_spin_density
 _atom_site_hse06_ddec_sum_bond_order
 _atom_site_hse06_magmom
 _atom_site_pbe_bader_spin_density
 _atom_site_pbe_cm5_charge
 _atom_site_pbe_ddec_charge
 _atom_site_pbe_ddec_spin_density
 _atom_site_pbe_ddec_sum_bond_order
 _atom_site_pbe_magmom
Ca  Ca0  1  0.85473981  0.75002381  0.24996038  1  0  1.588364  0  1.022859  0  0  1.466026  0  1.356743  0  0  1.507499  0  1.31158  0  0  0.839396  1.434571  0  1.389115  0
Ca  Ca1  1  0.14526043  0.24997616  0.75004129  1  0  1.588317  0  1.022951  0  0  1.466007  0  1.356777  0  0  1.507483  0  1.311612  0  0  0.839365  1.434549  0  1.389149  0
H  H2  1  0.31041213  0.67999236  0.27275944  1  0  0.425083  0  0.861557  0  0  0.391221  0  0.939459  0  0  0.402504  0  0.922653  0  0  0.30282  0.383116  0  0.951504  0
H  H3  1  0.26394431  0.81979651  0.22691712  1  0  0.424584  0  0.863948  0  0  0.390761  0  0.940477  0  0  0.402096  0  0.923605  0  0  0.302328  0.382627  0  0.952556  0
H  H4  1  0.68958540  0.32000846  0.72724042  1  0  0.425055  0  0.861548  0  0  0.391201  0  0.939481  0  0  0.402486  0  0.922674  0  0  0.302814  0.383096  0  0.951527  0
H  H5  1  0.73605606  0.18020508  0.77308183  1  0  0.424592  0  0.863945  0  0  0.390769  0  0.940468  0  0  0.402104  0  0.923597  0  0  0.302336  0.382634  0  0.952549  0
H  H6  1  0.62692057  0.26674850  0.58035585  1  0  0.111499  0  0.971353  0  0  0.114924  0  1.040398  0  0  0.119148  0  1.035994  0  0  0.140564  0.111675  0  1.043913  0
H  H7  1  0.47413776  0.23326478  0.91980766  1  0  0.110922  0  0.971531  0  0  0.11479  0  1.040002  0  0  0.119059  0  1.035493  0  0  0.140245  0.111527  0  1.043517  0
H  H8  1  0.37307585  0.73325664  0.41964130  1  0  0.111475  0  0.9714  0  0  0.114889  0  1.040461  0  0  0.119109  0  1.036067  0  0  0.140557  0.111643  0  1.043976  0
H  H9  1  0.52586592  0.76673272  0.08019491  1  0  0.110917  0  0.971456  0  0  0.114836  0  1.03987  0  0  0.119079  0  1.035394  0  0  0.140256  0.111574  0  1.043388  0
H  H10  1  0.63218400  0.05246020  0.60467841  1  0  0.12591  0  0.944579  0  0  0.132102  0  1.007821  0  0  0.13588  0  1.00639  0  0  0.120336  0.129311  0  1.009126  0
H  H11  1  0.28989106  0.44753556  0.89549284  1  0  0.126335  0  0.943118  0  0  0.132603  0  1.006235  0  0  0.136473  0  1.004671  0  0  0.12056  0.129753  0  1.007614  0
H  H12  1  0.36781274  0.94754521  0.39531784  1  0  0.125843  0  0.944587  0  0  0.132046  0  1.007822  0  0  0.135825  0  1.006389  0  0  0.120315  0.129254  0  1.009132  0
H  H13  1  0.71011200  0.55246222  0.10450791  1  0  0.126352  0  0.943072  0  0  0.132657  0  1.006136  0  0  0.136527  0  1.00457  0  0  0.120565  0.129805  0  1.007518  0
H  H14  1  0.94871123  0.10846507  0.23049216  1  0  0.139689  0  0.952588  0  0  0.146427  0  1.013139  0  0  0.15108  0  1.010158  0  0  0.122019  0.143021  0  1.015477  0
H  H15  1  0.28714792  0.39140078  0.26980923  1  0  0.139567  0  0.953423  0  0  0.146139  0  1.01413  0  0  0.15079  0  1.011165  0  0  0.122132  0.142723  0  1.01651  0
H  H16  1  0.05129207  0.89153512  0.76950679  1  0  0.139716  0  0.952564  0  0  0.146461  0  1.013104  0  0  0.151114  0  1.010123  0  0  0.122034  0.143053  0  1.015442  0
H  H17  1  0.71284860  0.60859333  0.73019333  1  0  0.13962  0  0.953335  0  0  0.146125  0  1.01411  0  0  0.150776  0  1.011145  0  0  0.122128  0.14271  0  1.016488  0
H  H18  1  0.92911093  0.32127652  0.21852952  1  0  0.108242  0  0.948718  0  0  0.115048  0  1.013136  0  0  0.117869  0  1.011011  0  0  0.1301  0.112913  0  1.014808  0
H  H19  1  0.46836153  0.17867908  0.28172828  1  0  0.108259  0  0.948289  0  0  0.114988  0  1.012784  0  0  0.117836  0  1.010618  0  0  0.129952  0.112829  0  1.014505  0
H  H20  1  0.07088985  0.67872318  0.78146943  1  0  0.108159  0  0.948756  0  0  0.115029  0  1.01314  0  0  0.117851  0  1.011015  0  0  0.130093  0.112894  0  1.014811  0
H  H21  1  0.53163605  0.82131663  0.71827247  1  0  0.10828  0  0.948278  0  0  0.114985  0  1.012821  0  0  0.117832  0  1.010654  0  0  0.129962  0.112825  0  1.014544  0
H  H22  1  0.91846824  0.44945693  0.32168773  1  0  0.127869  0  0.966684  0  0  0.136041  0  1.033326  0  0  0.139969  0  1.030026  0  0  0.12611  0.133265  0  1.035706  0
H  H23  1  0.68932476  0.05065525  0.17858169  1  0  0.128553  0  0.964727  0  0  0.13638  0  1.031334  0  0  0.140391  0  1.027995  0  0  0.126874  0.133543  0  1.033727  0
H  H24  1  0.08153112  0.55054682  0.67830942  1  0  0.127868  0  0.966654  0  0  0.136035  0  1.033308  0  0  0.139962  0  1.03001  0  0  0.126115  0.133256  0  1.035689  0
H  H25  1  0.31067642  0.94934256  0.82141725  1  0  0.128501  0  0.964787  0  0  0.136354  0  1.031355  0  0  0.140369  0  1.028016  0  0  0.126858  0.133516  0  1.03375  0
H  H26  1  0.79500804  0.42564261  0.47674617  1  0  0.142  0  0.92164  0  0  0.153357  0  0.981383  0  0  0.15657  0  0.979044  0  0  0.134434  0.151036  0  0.983215  0
H  H27  1  0.69740484  0.07442464  0.02350324  1  0  0.141944  0  0.921607  0  0  0.15348  0  0.981012  0  0  0.156668  0  0.978759  0  0  0.134244  0.151142  0  0.982787  0
H  H28  1  0.20499182  0.57436006  0.52325188  1  0  0.141937  0  0.92168  0  0  0.153294  0  0.981428  0  0  0.156506  0  0.97909  0  0  0.134412  0.150973  0  0.983261  0
H  H29  1  0.30259696  0.92557288  0.97649752  1  0  0.141927  0  0.921554  0  0  0.153467  0  0.980955  0  0  0.156659  0  0.978704  0  0  0.13425  0.15113  0  0.982733  0
H  H30  1  0.73373503  0.61221018  0.52252932  1  0  0.426036  0  0.879563  0  0  0.395265  0  0.944225  0  0  0.40566  0  0.928979  0  0  0.289596  0.387921  0  0.954974  0
H  H31  1  0.86873276  0.88787049  0.97748734  1  0  0.426085  0  0.878956  0  0  0.39525  0  0.94377  0  0  0.40565  0  0.928516  0  0  0.289228  0.387902  0  0.95452  0
H  H32  1  0.26626647  0.38779004  0.47747235  1  0  0.426082  0  0.879486  0  0  0.395346  0  0.944115  0  0  0.40574  0  0.928868  0  0  0.289626  0.388  0  0.954867  0
H  H33  1  0.13126831  0.11212866  0.02251433  1  0  0.426046  0  0.87901  0  0  0.395219  0  0.943812  0  0  0.405619  0  0.928557  0  0  0.28921  0.38787  0  0.954563  0
H  H34  1  0.80783410  0.73223411  0.49774458  1  0  0.406289  0  0.910857  0  0  0.373649  0  0.97954  0  0  0.385494  0  0.962272  0  0  0.282957  0.365293  0  0.991683  0
H  H35  1  0.03762422  0.76775209  0.00233101  1  0  0.406235  0  0.911106  0  0  0.373813  0  0.979603  0  0  0.385662  0  0.96233  0  0  0.282694  0.365455  0  0.991751  0
H  H36  1  0.19216700  0.26776799  0.50225710  1  0  0.406289  0  0.910882  0  0  0.37364  0  0.979574  0  0  0.385485  0  0.962305  0  0  0.282967  0.365284  0  0.991716  0
H  H37  1  0.96237275  0.23224605  0.99767157  1  0  0.406219  0  0.911136  0  0  0.373792  0  0.979639  0  0  0.385645  0  0.962359  0  0  0.282697  0.365435  0  0.991785  0
C  C38  1  0.69718375  0.22642765  0.50676929  1  0  0.108078  0  3.547091  0  0  0.065697  0  3.801024  0  0  0.075592  0  3.811787  0  0  0.079798  0.05897  0  3.794433  0
C  C39  1  0.43052640  0.27355616  0.99342508  1  0  0.110386  0  3.547765  0  0  0.068257  0  3.800656  0  0  0.078114  0  3.811512  0  0  0.081193  0.061567  0  3.794019  0
C  C40  1  0.30281316  0.77357345  0.49322876  1  0  0.10808  0  3.547119  0  0  0.065657  0  3.801094  0  0  0.075552  0  3.811855  0  0  0.079798  0.058929  0  3.794508  0
C  C41  1  0.56947553  0.72644298  0.00657296  1  0  0.110347  0  3.547646  0  0  0.06817  0  3.800578  0  0  0.078039  0  3.811453  0  0  0.081181  0.061474  0  3.793947  0
C  C42  1  0.70068610  0.10878869  0.51815867  1  0  -0.094579  0  3.673626  0  0  -0.11956  0  3.931341  0  0  -0.125269  0  3.948581  0  0  -0.059609  -0.116226  0  3.92051  0
C  C43  1  0.32797498  0.39117057  0.98202561  1  0  -0.095266  0  3.67343  0  0  -0.120171  0  3.931282  0  0  -0.126014  0  3.948537  0  0  -0.060043  -0.116747  0  3.920473  0
C  C44  1  0.29931104  0.89121482  0.48183757  1  0  -0.0945  0  3.673488  0  0  -0.119498  0  3.931218  0  0  -0.125207  0  3.948461  0  0  -0.059629  -0.116164  0  3.920389  0
C  C45  1  0.67202870  0.60882693  0.01797696  1  0  -0.095304  0  3.67342  0  0  -0.120231  0  3.931285  0  0  -0.126066  0  3.948538  0  0  -0.060093  -0.116807  0  3.920476  0
C  C46  1  0.79003577  0.06425111  0.41863891  1  0  0.01615  0  3.679043  0  0  0.027347  0  3.921472  0  0  0.029316  0  3.937505  0  0  0.018144  0.02594  0  3.910983  0
C  C47  1  0.27301476  0.43571585  0.08155227  1  0  0.015161  0  3.680249  0  0  0.025586  0  3.923275  0  0  0.027672  0  3.939164  0  0  0.017433  0.024073  0  3.912903  0
C  C48  1  0.20997108  0.93574742  0.58136185  1  0  0.016101  0  3.679083  0  0  0.02735  0  3.921467  0  0  0.029315  0  3.937499  0  0  0.018167  0.025948  0  3.910979  0
C  C49  1  0.72698462  0.56428198  0.91844940  1  0  0.015123  0  3.680207  0  0  0.025565  0  3.923204  0  0  0.027631  0  3.939119  0  0  0.017462  0.024052  0  3.912832  0
C  C50  1  0.87509854  0.14086308  0.30918418  1  0  -0.110655  0  3.681978  0  0  -0.136959  0  3.942243  0  0  -0.142544  0  3.958259  0  0  -0.06616  -0.133627  0  3.932048  0
C  C51  1  0.32476725  0.35907696  0.19106532  1  0  -0.109019  0  3.682393  0  0  -0.134804  0  3.942302  0  0  -0.140415  0  3.958223  0  0  -0.065929  -0.131475  0  3.932224  0
C  C52  1  0.12490570  0.85913709  0.69081568  1  0  -0.110661  0  3.681893  0  0  -0.136963  0  3.942178  0  0  -0.142549  0  3.958197  0  0  -0.066151  -0.133632  0  3.93198  0
C  C53  1  0.67523130  0.64092169  0.80893635  1  0  -0.109071  0  3.682184  0  0  -0.134792  0  3.942087  0  0  -0.140399  0  3.958015  0  0  -0.06592  -0.131463  0  3.932011  0
C  C54  1  0.87001917  0.25730475  0.30212144  1  0  0.108028  0  3.567027  0  0  0.066173  0  3.821249  0  0  0.075152  0  3.83449  0  0  0.071156  0.060278  0  3.812555  0
C  C55  1  0.42900157  0.24266091  0.19813906  1  0  0.107957  0  3.566517  0  0  0.066183  0  3.820695  0  0  0.075186  0  3.833937  0  0  0.071334  0.060241  0  3.81205  0
C  C56  1  0.12997439  0.74269667  0.69787661  1  0  0.10819  0  3.566844  0  0  0.066206  0  3.821111  0  0  0.075183  0  3.834354  0  0  0.071193  0.060312  0  3.812415  0
C  C57  1  0.57099794  0.75733854  0.80185989  1  0  0.107983  0  3.566449  0  0  0.066225  0  3.820605  0  0  0.075227  0  3.833847  0  0  0.071354  0.060282  0  3.811963  0
C  C58  1  0.78236873  0.42227090  0.38920852  1  0  -0.206577  0  3.573988  0  0  -0.267013  0  3.82058  0  0  -0.268681  0  3.825206  0  0  -0.054056  -0.265862  0  3.817767  0
C  C59  1  0.59374125  0.07780809  0.11100751  1  0  -0.207031  0  3.573059  0  0  -0.267578  0  3.820761  0  0  -0.269368  0  3.825438  0  0  -0.054916  -0.266222  0  3.817793  0
C  C60  1  0.21762936  0.57773260  0.61078863  1  0  -0.206428  0  3.573985  0  0  -0.266903  0  3.8206  0  0  -0.268569  0  3.825222  0  0  -0.054036  -0.265745  0  3.817777  0
C  C61  1  0.40626573  0.92219205  0.88899053  1  0  -0.207008  0  3.573046  0  0  -0.267558  0  3.820788  0  0  -0.269348  0  3.825429  0  0  -0.05491  -0.266173  0  3.817748  0
C  C62  1  0.58813742  0.51192535  0.35113094  1  0  0.685927  0  3.899438  0  0  0.635221  0  4.211641  0  0  0.667636  0  4.204962  0  0  0.214547  0.613261  0  4.215145  0
C  C63  1  0.45106707  0.98809119  0.14889153  1  0  0.6874  0  3.899818  0  0  0.636716  0  4.211452  0  0  0.669164  0  4.204809  0  0  0.214477  0.614679  0  4.214963  0
C  C64  1  0.41185981  0.48807816  0.64886984  1  0  0.68581  0  3.899462  0  0  0.635102  0  4.211666  0  0  0.667515  0  4.204993  0  0  0.214497  0.613142  0  4.21517  0
C  C65  1  0.54893526  0.01190820  0.85111014  1  0  0.687533  0  3.899599  0  0  0.636785  0  4.211319  0  0  0.669239  0  4.204675  0  0  0.214492  0.614746  0  4.214838  0
C  C66  1  0.79095249  0.93702852  0.42647026  1  0  0.637865  0  3.940642  0  0  0.590235  0  4.23702  0  0  0.622795  0  4.229873  0  0  0.212231  0.568191  0  4.240974  0
C  C67  1  0.15436772  0.56289472  0.07363865  1  0  0.638306  0  3.942897  0  0  0.590848  0  4.239322  0  0  0.62342  0  4.232076  0  0  0.212306  0.568821  0  4.243335  0
C  C68  1  0.20904587  0.06297148  0.57352960  1  0  0.637914  0  3.940509  0  0  0.590249  0  4.236927  0  0  0.622814  0  4.229774  0  0  0.212219  0.568195  0  4.240895  0
C  C69  1  0.84563113  0.43710339  0.92636574  1  0  0.638418  0  3.942891  0  0  0.590945  0  4.239313  0  0  0.623521  0  4.232068  0  0  0.21232  0.568918  0  4.243327  0
N  N70  1  0.78364301  0.29804265  0.40026459  1  0  0.037914  0  3.556621  0  0  0.129965  0  3.762733  0  0  0.11806  0  3.787664  0  0  -0.201027  0.13753  0  3.746137  0
N  N71  1  0.48176548  0.20193717  0.09997723  1  0  0.034465  0  3.558788  0  0  0.125916  0  3.765482  0  0  0.113995  0  3.790459  0  0  -0.20239  0.133449  0  3.748861  0
N  N72  1  0.21635413  0.70196087  0.59973165  1  0  0.037842  0  3.556697  0  0  0.130001  0  3.762756  0  0  0.118099  0  3.787677  0  0  -0.201027  0.137565  0  3.746161  0
N  N73  1  0.51823643  0.79806116  0.90002444  1  0  0.034507  0  3.558757  0  0  0.125942  0  3.765469  0  0  0.114031  0  3.790443  0  0  -0.202396  0.133476  0  3.748855  0
O  O74  1  0.60603602  0.62090981  0.30731201  1  0  -0.702088  0  1.985009  0  0  -0.637843  0  2.227423  0  0  -0.666711  0  2.21903  0  0  -0.351903  -0.61703  0  2.23234  0
O  O75  1  0.53379965  0.87912051  0.19285745  1  0  -0.701502  0  1.983501  0  0  -0.637028  0  2.225567  0  0  -0.666087  0  2.217271  0  0  -0.350232  -0.616052  0  2.230415  0
O  O76  1  0.39396320  0.37909232  0.69268785  1  0  -0.702028  0  1.984906  0  0  -0.637778  0  2.227312  0  0  -0.666651  0  2.218923  0  0  -0.351902  -0.616965  0  2.232229  0
O  O77  1  0.46619995  0.12087679  0.80714240  1  0  -0.701575  0  1.983444  0  0  -0.637064  0  2.225497  0  0  -0.666128  0  2.217201  0  0  -0.35024  -0.61609  0  2.23034  0
O  O78  1  0.83129399  0.66281484  0.46562940  1  0  -0.902159  0  1.792344  0  0  -0.849011  0  1.972497  0  0  -0.869743  0  1.940318  0  0  -0.639364  -0.833901  0  1.994888  0
O  O79  1  0.95993848  0.83725872  0.03434885  1  0  -0.901854  0  1.791982  0  0  -0.848762  0  1.971248  0  0  -0.869462  0  1.939066  0  0  -0.638562  -0.833688  0  1.993595  0
O  O80  1  0.16870910  0.33718590  0.53437137  1  0  -0.902188  0  1.792343  0  0  -0.849078  0  1.972452  0  0  -0.869808  0  1.940268  0  0  -0.639394  -0.833972  0  1.994845  0
O  O81  1  0.04006861  0.16274223  0.96565010  1  0  -0.90181  0  1.792045  0  0  -0.848723  0  1.97132  0  0  -0.869422  0  1.939123  0  0  -0.638557  -0.833653  0  1.993671  0
O  O82  1  0.42663574  0.47545753  0.36557760  1  0  -0.64096  0  1.961123  0  0  -0.585069  0  2.185656  0  0  -0.609696  0  2.17653  0  0  -0.316143  -0.567651  0  2.191341  0
O  O83  1  0.26775978  0.02456313  0.13422076  1  0  -0.641556  0  1.962008  0  0  -0.585684  0  2.186649  0  0  -0.610314  0  2.177432  0  0  -0.316157  -0.568274  0  2.1924  0
O  O84  1  0.57335929  0.52454574  0.63442227  1  0  -0.640961  0  1.961175  0  0  -0.585051  0  2.18572  0  0  -0.609677  0  2.176588  0  0  -0.316118  -0.567635  0  2.191406  0
O  O85  1  0.73224370  0.97543571  0.86578000  1  0  -0.641616  0  1.961851  0  0  -0.585701  0  2.186498  0  0  -0.610331  0  2.177279  0  0  -0.316171  -0.568296  0  2.192251  0
O  O86  1  0.20062839  0.74996935  0.24970341  1  0  -0.871883  0  1.844108  0  0  -0.819928  0  2.047669  0  0  -0.840555  0  2.013794  0  0  -0.620946  -0.804629  0  2.071444  0
O  O87  1  0.79936956  0.25003253  0.75029646  1  0  -0.871857  0  1.844113  0  0  -0.819926  0  2.047679  0  0  -0.840558  0  2.013806  0  0  -0.620953  -0.804624  0  2.071444  0
O  O88  1  0.77290049  0.86161914  0.53101065  1  0  -0.633191  0  1.951957  0  0  -0.584832  0  2.176576  0  0  -0.611248  0  2.171917  0  0  -0.318316  -0.566072  0  2.179145  0
O  O89  1  0.16450034  0.63820957  0.96908120  1  0  -0.633185  0  1.951452  0  0  -0.585214  0  2.176466  0  0  -0.611402  0  2.171574  0  0  -0.319375  -0.566666  0  2.179204  0
O  O90  1  0.22710113  0.13838188  0.46899193  1  0  -0.633205  0  1.951906  0  0  -0.584854  0  2.176558  0  0  -0.611272  0  2.171895  0  0  -0.31832  -0.566094  0  2.179132  0
O  O91  1  0.83549577  0.36178428  0.03091773  1  0  -0.633191  0  1.951615  0  0  -0.585204  0  2.176625  0  0  -0.611397  0  2.171738  0  0  -0.319359  -0.566647  0  2.179346  0
O  O92  1  0.80734707  0.91812418  0.32674180  1  0  -0.67465  0  1.980941  0  0  -0.615233  0  2.216325  0  0  -0.642173  0  2.208339  0  0  -0.347315  -0.596025  0  2.221127  0
O  O93  1  0.05248496  0.58179787  0.17344789  1  0  -0.674935  0  1.98249  0  0  -0.615714  0  2.218017  0  0  -0.642712  0  2.21008  0  0  -0.346752  -0.596477  0  2.22278  0
O  O94  1  0.19264939  0.08187504  0.67325987  1  0  -0.67465  0  1.980839  0  0  -0.615216  0  2.216221  0  0  -0.642161  0  2.208234  0  0  -0.347303  -0.596007  0  2.221027  0
O  O95  1  0.94752218  0.41820011  0.82655559  1  0  -0.675006  0  1.982359  0  0  -0.61581  0  2.217944  0  0  -0.642803  0  2.209993  0  0  -0.346779  -0.596572  0  2.222706  0
