# generated using pymatgen
data_Ni4H27C48(N4O)3
_symmetry_space_group_name_H-M   'P 1'
_cell_length_a   23.00352426
_cell_length_b   23.00279518
_cell_length_c   23.00325183
_cell_angle_alpha   59.99918861
_cell_angle_beta   60.00033226
_cell_angle_gamma   59.99912525
_symmetry_Int_Tables_number   1
_chemical_formula_structural   Ni4H27C48(N4O)3
_chemical_formula_sum   'Ni8 H54 C96 N24 O6'
_cell_volume   8606.86085447
_cell_formula_units_Z   2
loop_
 _symmetry_equiv_pos_site_id
 _symmetry_equiv_pos_as_xyz
  1  'x, y, z'
loop_
 _atom_site_type_symbol
 _atom_site_label
 _atom_site_symmetry_multiplicity
 _atom_site_fract_x
 _atom_site_fract_y
 _atom_site_fract_z
 _atom_site_occupancy
 _atom_site_pbe_bader_charge
 _atom_site_pbe_bader_spin_density
 _atom_site_pbe_cm5_charge
 _atom_site_pbe_ddec_charge
 _atom_site_pbe_ddec_spin_density
 _atom_site_pbe_ddec_sum_bond_order
 _atom_site_pbe_magmom
Ni  Ni0  1  0.04594708  0.86222055  0.04591516  1  1.129709  1.343397  0.689406  0.697581  1.520522  2.737456  1.328
Ni  Ni1  1  0.86216860  0.04593083  0.04595102  1  1.13004  1.342412  0.689196  0.696906  1.519386  2.740135  1.327
Ni  Ni2  1  0.04596558  0.04591452  0.04592724  1  1.12676  1.343103  0.689098  0.697384  1.520444  2.738095  1.328
Ni  Ni3  1  0.04596439  0.04591216  0.86219771  1  1.129972  1.343117  0.689411  0.697765  1.52021  2.737956  1.328
Ni  Ni4  1  0.13783370  0.95406734  0.95404579  1  1.129976  1.342606  0.689139  0.696908  1.519604  2.73999  1.328
Ni  Ni5  1  0.95405026  0.13778136  0.95408180  1  1.129619  1.343538  0.689391  0.697659  1.520694  2.737209  1.329
Ni  Ni6  1  0.95403625  0.95408666  0.95407235  1  1.126752  1.343006  0.689186  0.697502  1.520343  2.738148  1.328
Ni  Ni7  1  0.95403261  0.95408593  0.13780395  1  1.129962  1.343365  0.689374  0.697797  1.520483  2.737789  1.328
H  H8  1  0.09209168  0.90789991  0.90793598  1  0.580487  -0.001441  0.320533  0.388417  -0.001344  0.870264  -0.001
H  H9  1  0.90789309  0.09210420  0.09205804  1  0.580686  -0.001441  0.320558  0.388407  -0.001344  0.870132  -0.001
H  H10  1  0.09208897  0.90788273  0.09207018  1  0.580372  -0.001438  0.32061  0.388625  -0.001341  0.869873  -0.001
H  H11  1  0.90791051  0.09210480  0.90792518  1  0.580437  -0.001437  0.320534  0.388452  -0.00134  0.870065  -0.001
H  H12  1  0.90792869  0.90790699  0.09208194  1  0.583344  -0.00144  0.320614  0.388556  -0.001346  0.870324  -0.001
H  H13  1  0.09206957  0.09209497  0.90789969  1  0.580545  -0.001443  0.320652  0.38864  -0.001346  0.870107  -0.001
H  H14  1  0.62026262  0.51231406  0.93371270  1  0.104816  -1.4e-05  0.105393  0.10817  -2.5e-05  0.989459  0.0
H  H15  1  0.83085303  0.30228802  0.93342885  1  0.0906  0.001803  0.121126  0.108845  0.000628  1.010527  0.001
H  H16  1  0.51231292  0.62026625  0.93371188  1  0.104718  -1.4e-05  0.105391  0.108184  -2.5e-05  0.989421  0.0
H  H17  1  0.30226714  0.83085609  0.93343782  1  0.093202  0.001803  0.121069  0.108764  0.000628  1.010607  0.001
H  H18  1  0.93371475  0.93371392  0.62026410  1  0.070199  -1.3e-05  0.105391  0.108196  -2.5e-05  0.989482  0.0
H  H19  1  0.93344114  0.93343304  0.83084737  1  0.115128  0.001786  0.121098  0.108818  0.000628  1.010533  0.001
H  H20  1  0.93371508  0.93371441  0.51231258  1  0.071759  -1.3e-05  0.105371  0.108121  -2.5e-05  0.989536  0.0
H  H21  1  0.93343548  0.93342727  0.30230266  1  0.092416  0.001808  0.121075  0.108728  0.000628  1.010708  0.001
H  H22  1  0.93371171  0.51231158  0.62026635  1  0.104715  -1.4e-05  0.105429  0.108237  -2.5e-05  0.989482  0.0
H  H23  1  0.93342598  0.30230753  0.83084200  1  0.09472  0.0018  0.12095  0.108584  0.000627  1.010657  0.001
H  H24  1  0.93371078  0.62026692  0.51231386  1  0.104655  -1.4e-05  0.105435  0.108255  -2.5e-05  0.989457  0.0
H  H25  1  0.93344128  0.83084168  0.30227753  1  0.093459  0.001801  0.121044  0.108798  0.000627  1.010537  0.001
H  H26  1  0.51231177  0.93371438  0.93371647  1  0.07187  -1.2e-05  0.105329  0.108043  -2.4e-05  0.989587  0.0
H  H27  1  0.30229916  0.93342559  0.93343164  1  0.092306  0.001811  0.121019  0.108559  0.000629  1.010738  0.001
H  H28  1  0.62026251  0.93371325  0.93371407  1  0.06996  -1.3e-05  0.105425  0.108244  -2.4e-05  0.989441  0.0
H  H29  1  0.83085229  0.93343849  0.93344327  1  0.116474  0.001791  0.121079  0.108868  0.00063  1.010441  0.001
H  H30  1  0.93371348  0.51231203  0.93371431  1  0.071878  -1.3e-05  0.105409  0.108189  -2.5e-05  0.989497  0.0
H  H31  1  0.93341985  0.30232734  0.93341860  1  0.087743  0.001807  0.12095  0.108532  0.000628  1.010651  0.001
H  H32  1  0.93371114  0.62026841  0.93371129  1  0.070279  -1.3e-05  0.10542  0.10822  -2.5e-05  0.989491  0.0
H  H33  1  0.93344090  0.83084475  0.93343883  1  0.120054  0.001786  0.121072  0.108763  0.000627  1.010684  0.001
H  H34  1  0.62026212  0.93371259  0.51231478  1  0.104806  -1.4e-05  0.105383  0.108136  -2.4e-05  0.98949  0.0
H  H35  1  0.83084716  0.93343774  0.30227133  1  0.090778  0.001806  0.12112  0.108883  0.000629  1.010506  0.001
H  H36  1  0.51231089  0.93371221  0.62026509  1  0.104504  -1.4e-05  0.105368  0.108122  -2.4e-05  0.989508  0.0
H  H37  1  0.30228067  0.93343072  0.83084993  1  0.090409  0.001805  0.121125  0.108762  0.000629  1.010796  0.001
H  H38  1  0.48768741  0.37973256  0.06629105  1  0.065385  -1.3e-05  0.10542  0.108226  -2.5e-05  0.989434  0.0
H  H39  1  0.69772963  0.16913830  0.06656563  1  0.098686  0.001797  0.121083  0.108727  0.000628  1.010651  0.001
H  H40  1  0.37973840  0.48768457  0.06628972  1  0.065099  -1.3e-05  0.105399  0.108173  -2.5e-05  0.989475  0.0
H  H41  1  0.16914164  0.69770862  0.06657392  1  0.09626  0.001797  0.121045  0.108655  0.000628  1.010625  0.001
H  H42  1  0.06628771  0.06628702  0.37974096  1  0.069974  -1.3e-05  0.105405  0.108168  -2.5e-05  0.989559  0.0
H  H43  1  0.06656135  0.06656881  0.16915514  1  0.114692  0.001785  0.121075  0.108799  0.000628  1.01052  0.001
H  H44  1  0.06628559  0.06628561  0.48769413  1  0.071945  -1.2e-05  0.105419  0.108261  -2.5e-05  0.989382  0.0
H  H45  1  0.06656781  0.06657538  0.69770518  1  0.092365  0.001808  0.121032  0.108607  0.000628  1.010736  0.001
H  H46  1  0.48768900  0.06628790  0.37973751  1  0.065158  -1.3e-05  0.105384  0.10817  -2.4e-05  0.989522  0.0
H  H47  1  0.69771055  0.06657463  0.16914493  1  0.092784  0.001802  0.121073  0.108624  0.000629  1.01071  0.001
H  H48  1  0.37973820  0.06628795  0.48768750  1  0.065259  -1.3e-05  0.105415  0.108192  -2.4e-05  0.989464  0.0
H  H49  1  0.16914636  0.06656817  0.69772120  1  0.096157  0.0018  0.121101  0.108791  0.00063  1.0106  0.001
H  H50  1  0.06628728  0.48769155  0.06628821  1  0.072075  -1.3e-05  0.105382  0.108183  -2.5e-05  0.989372  0.0
H  H51  1  0.06658054  0.69768197  0.06658283  1  0.092429  0.001807  0.120958  0.10854  0.000628  1.0106  0.001
H  H52  1  0.06629023  0.37973492  0.06629140  1  0.07029  -1.3e-05  0.105435  0.108246  -2.5e-05  0.989515  0.0
H  H53  1  0.06655797  0.16915783  0.06656073  1  0.120031  0.001786  0.12106  0.108808  0.000627  1.010567  0.001
H  H54  1  0.48769301  0.06628540  0.06628690  1  0.071935  -1.2e-05  0.105388  0.108196  -2.4e-05  0.989452  0.0
H  H55  1  0.69771063  0.06657573  0.06657049  1  0.092319  0.001811  0.121072  0.108664  0.000629  1.010604  0.001
H  H56  1  0.37974096  0.06628783  0.06628930  1  0.070274  -1.3e-05  0.105407  0.108183  -2.4e-05  0.989509  0.0
H  H57  1  0.16915086  0.06656228  0.06655753  1  0.117097  0.001791  0.121099  0.108895  0.000629  1.010397  0.001
H  H58  1  0.06628998  0.37973146  0.48768907  1  0.065485  -1.3e-05  0.105445  0.108256  -2.5e-05  0.989464  0.0
H  H59  1  0.06656402  0.16915079  0.69771719  1  0.098979  0.001795  0.121062  0.10882  0.000627  1.010656  0.001
H  H60  1  0.06628923  0.48768697  0.37973675  1  0.065192  -1.3e-05  0.105389  0.108163  -2.5e-05  0.9895  0.0
H  H61  1  0.06657924  0.69768487  0.16915339  1  0.09857  0.001795  0.120959  0.108535  0.000627  1.0107  0.001
C  C62  1  0.56163334  0.43836556  0.00000175  1  0.158838  0.001333  -0.003466  0.137072  0.000708  4.122478  0.001
C  C63  1  0.62303254  0.37696609  0.00000214  1  -0.05588  0.006021  -0.050903  -0.117803  0.003417  4.148983  0.004
C  C64  1  0.67616522  0.32383284  0.00000135  1  -0.32483  0.002107  -0.054112  -0.100102  0.001006  4.183516  0.001
C  C65  1  0.73715542  0.26284253  0.00000106  1  0.066903  0.010637  -0.026551  0.047104  0.006018  4.198676  0.008
C  C66  1  0.43836563  0.56163420  0.00000114  1  0.158979  0.001333  -0.003457  0.13707  0.000708  4.122529  0.001
C  C67  1  0.37696588  0.62303051  0.00000340  1  -0.055947  0.006022  -0.050942  -0.117843  0.003418  4.149084  0.004
C  C68  1  0.32382775  0.67616093  0.00000607  1  -0.324517  0.002106  -0.054084  -0.100109  0.001006  4.183469  0.001
C  C69  1  0.26283864  0.73715232  0.00000368  1  0.067686  0.010636  -0.026562  0.047108  0.006018  4.198832  0.008
C  C70  1  0.00000044  0.99999935  0.56163551  1  0.080985  0.001355  -0.003536  0.137031  0.000712  4.122362  0.001
C  C71  1  0.00000008  0.00000006  0.62303484  1  -0.064534  0.006048  -0.050955  -0.117945  0.003423  4.14868  0.004
C  C72  1  0.00000276  0.00000265  0.67616635  1  -0.304878  0.002097  -0.054093  -0.100019  0.00101  4.183151  0.001
C  C73  1  0.00000337  0.00000405  0.73715489  1  0.119071  0.010571  -0.026502  0.04705  0.006022  4.198644  0.008
C  C74  1  0.00000154  0.00000091  0.43836193  1  0.080904  0.001353  -0.00344  0.13702  0.000711  4.122877  0.001
C  C75  1  0.00000264  0.00000123  0.37696852  1  -0.065296  0.006055  -0.050853  -0.117629  0.003426  4.148682  0.004
C  C76  1  0.00000195  0.00000061  0.32383145  1  -0.304426  0.002094  -0.054263  -0.100462  0.001008  4.18307  0.001
C  C77  1  0.99999963  0.99999830  0.26284663  1  0.119031  0.010572  -0.026573  0.047179  0.006022  4.198758  0.008
C  C78  1  0.00000043  0.43836779  0.56163140  1  0.159356  0.001336  -0.00346  0.136998  0.00071  4.123294  0.001
C  C79  1  0.00000071  0.37697800  0.62302096  1  -0.056879  0.006028  -0.050811  -0.117768  0.003421  4.149309  0.004
C  C80  1  0.99999977  0.32384123  0.67616012  1  -0.324321  0.002104  -0.054239  -0.100351  0.001004  4.183298  0.001
C  C81  1  0.99999627  0.26286067  0.73714476  1  0.068508  0.010631  -0.026696  0.047422  0.006015  4.198518  0.008
C  C82  1  0.99999990  0.56163102  0.43837152  1  0.159419  0.001336  -0.003447  0.136987  0.00071  4.123342  0.001
C  C83  1  0.00000265  0.62301929  0.37698021  1  -0.057697  0.00603  -0.050785  -0.11767  0.003422  4.14903  0.004
C  C84  1  0.00000679  0.67615425  0.32383672  1  -0.324119  0.002104  -0.054169  -0.100393  0.001004  4.183281  0.001
C  C85  1  0.00000946  0.73713223  0.26284963  1  0.067979  0.010632  -0.02676  0.047356  0.006015  4.198875  0.008
C  C86  1  0.43836156  0.00000119  0.00000255  1  0.081036  0.001346  -0.003505  0.136914  0.000707  4.122565  0.001
C  C87  1  0.37696350  0.00000051  0.00000338  1  -0.064682  0.006045  -0.050938  -0.117928  0.003421  4.148852  0.004
C  C88  1  0.32383404  0.99999583  0.99999921  1  -0.3008  0.002092  -0.05403  -0.099987  0.00101  4.183089  0.001
C  C89  1  0.26284656  0.99999189  0.99999364  1  0.115101  0.010578  -0.026548  0.047232  0.006025  4.198723  0.008
C  C90  1  0.56163672  0.99999963  0.00000052  1  0.080953  0.001348  -0.003607  0.137075  0.000708  4.121791  0.001
C  C91  1  0.62304117  0.00000001  0.00000022  1  -0.064189  0.006038  -0.050898  -0.118047  0.003417  4.148226  0.004
C  C92  1  0.67616667  0.00000509  0.00000495  1  -0.301271  0.002096  -0.053984  -0.09984  0.001012  4.182876  0.001
C  C93  1  0.73715835  0.00000976  0.00000773  1  0.114952  0.010576  -0.026555  0.047253  0.006024  4.198566  0.008
C  C94  1  0.00000168  0.43836724  0.00000316  1  0.080761  0.001349  -0.003507  0.136854  0.000709  4.123355  0.001
C  C95  1  0.00000114  0.37697846  0.00000320  1  -0.065293  0.006048  -0.050779  -0.117627  0.003422  4.148938  0.004
C  C96  1  0.99999593  0.32384388  0.99999797  1  -0.300319  0.002087  -0.054177  -0.100394  0.001006  4.183235  0.001
C  C97  1  0.99999055  0.26286762  0.99999178  1  0.114777  0.010565  -0.026778  0.047296  0.006016  4.198904  0.008
C  C98  1  0.99999960  0.56163340  0.99999965  1  0.081048  0.001351  -0.003385  0.137153  0.00071  4.122855  0.001
C  C99  1  0.99999919  0.62302470  0.99999964  1  -0.065034  0.006041  -0.050909  -0.117746  0.003418  4.149153  0.004
C  C100  1  0.00000379  0.67615605  0.00000445  1  -0.300581  0.00209  -0.054206  -0.100477  0.001008  4.183454  0.001
C  C101  1  0.00000904  0.73713480  0.00000881  1  0.11477  0.010562  -0.026751  0.047231  0.006015  4.198915  0.008
C  C102  1  0.56163558  0.00000074  0.43836623  1  0.158909  0.001329  -0.00354  0.136824  0.000706  4.12261  0.001
C  C103  1  0.62303643  0.00000081  0.37696483  1  -0.055613  0.006021  -0.050896  -0.117804  0.003417  4.148726  0.004
C  C104  1  0.67616705  0.00000327  0.32382762  1  -0.324799  0.002108  -0.054071  -0.100084  0.001008  4.183134  0.001
C  C105  1  0.73715304  0.00000755  0.26283155  1  0.028112  0.010711  -0.02653  0.04725  0.006023  4.198552  0.008
C  C106  1  0.43836415  0.00000036  0.56163578  1  0.158619  0.001329  -0.003575  0.136911  0.000706  4.122502  0.001
C  C107  1  0.37696276  0.00000061  0.62303632  1  -0.055793  0.006021  -0.050922  -0.117874  0.003417  4.148772  0.004
C  C108  1  0.32383025  0.99999946  0.67617123  1  -0.324921  0.002108  -0.054093  -0.100108  0.001008  4.183202  0.001
C  C109  1  0.26284033  0.99999735  0.73716266  1  0.067929  0.010645  -0.026537  0.047049  0.006023  4.198638  0.008
C  C110  1  0.56746322  0.50719643  0.96267112  1  -0.101474  0.000876  -0.085188  -0.125504  0.000491  3.969705  0.001
C  C111  1  0.80921416  0.25910623  0.96583974  1  0.452018  -0.001752  0.018512  -0.047272  -0.002758  3.936414  0.001
C  C112  1  0.50719492  0.56746533  0.96267092  1  -0.015278  0.000877  -0.08522  -0.125534  0.000492  3.96964  0.001
C  C113  1  0.25909767  0.80921054  0.96584554  1  0.451315  -0.001741  0.01848  -0.047331  -0.002746  3.936758  0.001
C  C114  1  0.96267213  0.96267148  0.56746361  1  -0.033528  0.000878  -0.08517  -0.125462  0.000492  3.969811  0.001
C  C115  1  0.96584199  0.96584641  0.80921525  1  0.396472  -0.001684  0.018475  -0.047256  -0.002749  3.936371  0.001
C  C116  1  0.96267242  0.96267273  0.50719669  1  -0.024516  0.000879  -0.085174  -0.125463  0.000494  3.969834  0.001
C  C117  1  0.96583594  0.96584027  0.25911140  1  0.464237  -0.001777  0.018602  -0.047033  -0.002742  3.93615  0.001
C  C118  1  0.96266877  0.50719806  0.56746572  1  -0.100838  0.000878  -0.085264  -0.12556  0.000492  3.969793  0.001
C  C119  1  0.96583289  0.25912874  0.80920316  1  0.448653  -0.001738  0.01871  -0.047055  -0.002744  3.93543  0.001
C  C120  1  0.96266914  0.56746598  0.50719843  1  -0.01501  0.000879  -0.085249  -0.125535  0.000492  3.969885  0.001
C  C121  1  0.96584806  0.80919297  0.25910732  1  0.451267  -0.001741  0.018631  -0.047418  -0.002742  3.936322  0.001
C  C122  1  0.50719516  0.96267252  0.96267390  1  -0.024843  0.000876  -0.085152  -0.125305  0.000491  3.969828  0.001
C  C123  1  0.25911185  0.96583459  0.96583006  1  0.464132  -0.001762  0.018643  -0.046974  -0.00273  3.936173  0.001
C  C124  1  0.56746386  0.96267148  0.96267224  1  -0.033092  0.000875  -0.085213  -0.12562  0.00049  3.969797  0.001
C  C125  1  0.80921811  0.96585180  0.96584665  1  0.397232  -0.001685  0.018455  -0.047653  -0.002749  3.936891  0.001
C  C126  1  0.96266998  0.50719783  0.96267099  1  -0.024695  0.000877  -0.085275  -0.125542  0.000492  3.969775  0.001
C  C127  1  0.96582597  0.25913897  0.96582884  1  0.468184  -0.001761  0.018651  -0.04712  -0.002728  3.935424  0.001
C  C128  1  0.96266889  0.56746681  0.96266895  1  -0.033967  0.000877  -0.085252  -0.125545  0.000491  3.969687  0.001
C  C129  1  0.96584821  0.80919732  0.96584944  1  0.396844  -0.001674  0.018703  -0.047107  -0.002735  3.936223  0.001
C  C130  1  0.56746247  0.96267074  0.50719794  1  -0.100576  0.000874  -0.085195  -0.1254  0.00049  3.969682  0.001
C  C131  1  0.80921292  0.96584937  0.25909168  1  0.492628  -0.001823  0.018402  -0.047591  -0.002751  3.936674  0.001
C  C132  1  0.50719474  0.96267092  0.56746435  1  -0.01496  0.000874  -0.085167  -0.125418  0.00049  3.969678  0.001
C  C133  1  0.25910337  0.96583851  0.80922107  1  0.45181  -0.001742  0.018467  -0.047165  -0.002739  3.936572  0.001
C  C134  1  0.49280567  0.43253373  0.03733150  1  -0.045254  0.000892  -0.085272  -0.125644  0.000491  3.969717  0.001
C  C135  1  0.74089959  0.19078259  0.03415602  1  0.487232  -0.001812  0.01855  -0.047191  -0.002745  3.93666  0.001
C  C136  1  0.43253675  0.49280289  0.03733113  1  -0.130537  0.000892  -0.085182  -0.125467  0.000492  3.969675  0.001
C  C137  1  0.19078074  0.74089062  0.03416099  1  0.48659  -0.001821  0.018671  -0.046922  -0.002757  3.936116  0.001
C  C138  1  0.03732926  0.03732926  0.43254005  1  -0.033385  0.000881  -0.085202  -0.125489  0.000494  3.96984  0.001
C  C139  1  0.03415969  0.03415463  0.19078569  1  0.396556  -0.001683  0.018501  -0.047246  -0.002749  3.936338  0.001
C  C140  1  0.03732957  0.03732862  0.49280683  1  -0.024113  0.000877  -0.085236  -0.125598  0.000492  3.969721  0.001
C  C141  1  0.03416698  0.03416287  0.74089047  1  0.463795  -0.001778  0.018632  -0.046877  -0.002745  3.936182  0.001
C  C142  1  0.49280540  0.03732944  0.43253775  1  -0.072133  0.00089  -0.085222  -0.125479  0.00049  3.969795  0.001
C  C143  1  0.74088810  0.03416536  0.19077393  1  0.489277  -0.001801  0.018589  -0.047078  -0.002736  3.936046  0.001
C  C144  1  0.43253742  0.03732937  0.49280466  1  -0.104218  0.000889  -0.085178  -0.125438  0.00049  3.96971  0.001
C  C145  1  0.19077982  0.03415576  0.74090082  1  0.486962  -0.001812  0.018525  -0.047124  -0.002749  3.93653  0.001
C  C146  1  0.03733086  0.49280411  0.03733150  1  -0.024063  0.000876  -0.085209  -0.125483  0.000491  3.969664  0.001
C  C147  1  0.03417239  0.74086569  0.03417075  1  0.463608  -0.001766  0.018679  -0.046979  -0.002732  3.935451  0.001
C  C148  1  0.03733177  0.43253581  0.03733304  1  -0.033874  0.000878  -0.085202  -0.125506  0.000492  3.969874  0.001
C  C149  1  0.03415106  0.19080478  0.03414858  1  0.396825  -0.001674  0.018624  -0.047385  -0.002735  3.936345  0.001
C  C150  1  0.49280795  0.03732821  0.03732911  1  -0.023831  0.000874  -0.085215  -0.125569  0.00049  3.969774  0.001
C  C151  1  0.74089346  0.03416746  0.03416944  1  0.464582  -0.001766  0.018541  -0.047161  -0.002734  3.93627  0.001
C  C152  1  0.43253994  0.03732906  0.03733028  1  -0.033939  0.000877  -0.085203  -0.125459  0.000491  3.969825  0.001
C  C153  1  0.19078459  0.03414851  0.03415294  1  0.396728  -0.001684  0.018491  -0.047608  -0.002749  3.936664  0.001
C  C154  1  0.03733263  0.43253340  0.49280249  1  -0.045549  0.000894  -0.085254  -0.125544  0.000492  3.969828  0.001
C  C155  1  0.03415455  0.19079943  0.74088751  1  0.486917  -0.001809  0.018597  -0.047475  -0.002741  3.93637  0.001
C  C156  1  0.03733224  0.49280057  0.43253671  1  -0.131027  0.000893  -0.085254  -0.125509  0.000492  3.969852  0.001
C  C157  1  0.03417085  0.74086479  0.19079205  1  0.486769  -0.001808  0.018681  -0.047094  -0.002741  3.9355  0.001
N  N158  1  0.85107597  0.19052090  0.97919861  1  -0.792725  0.086081  -0.273295  -0.175908  0.049739  3.670193  0.074
N  N159  1  0.19052249  0.85107992  0.97919531  1  -0.792971  0.085934  -0.273312  -0.175749  0.049662  3.670202  0.074
N  N160  1  0.97919938  0.97920372  0.85108344  1  -0.79256  0.08599  -0.273218  -0.175873  0.049711  3.669462  0.074
N  N161  1  0.97919083  0.97919611  0.19052887  1  -0.679817  0.085366  -0.273196  -0.175858  0.049719  3.669053  0.074
N  N162  1  0.97919147  0.19053828  0.85107327  1  -0.690139  0.085279  -0.273068  -0.175817  0.049696  3.668743  0.074
N  N163  1  0.97919977  0.85106299  0.19052627  1  -0.793149  0.085906  -0.27318  -0.17592  0.049645  3.669187  0.074
N  N164  1  0.19053467  0.97918981  0.97918405  1  -0.680659  0.085447  -0.273471  -0.175663  0.049765  3.669432  0.074
N  N165  1  0.85107856  0.97920969  0.97920726  1  -0.792553  0.086126  -0.273439  -0.175763  0.049782  3.670347  0.074
N  N166  1  0.97918603  0.19054744  0.97918681  1  -0.679241  0.085371  -0.273042  -0.175649  0.04972  3.668382  0.074
N  N167  1  0.97920329  0.85106972  0.97920614  1  -0.792508  0.085908  -0.273314  -0.176157  0.049664  3.669112  0.074
N  N168  1  0.85107313  0.97920627  0.19051002  1  -0.794844  0.086154  -0.273497  -0.17604  0.049773  3.670319  0.074
N  N169  1  0.19052536  0.97919374  0.85108549  1  -0.68961  0.085374  -0.273352  -0.17564  0.049749  3.670125  0.074
N  N170  1  0.80947378  0.14891658  0.02080067  1  -0.690843  0.085219  -0.273235  -0.175546  0.049664  3.669949  0.074
N  N171  1  0.14891926  0.80947630  0.02079719  1  -0.690246  0.08537  -0.273238  -0.175773  0.049744  3.66982  0.074
N  N172  1  0.02080144  0.02079732  0.14891783  1  -0.792548  0.086  -0.273244  -0.175856  0.049717  3.669536  0.074
N  N173  1  0.02080852  0.02080433  0.80947288  1  -0.679586  0.085355  -0.273266  -0.175845  0.049716  3.669288  0.074
N  N174  1  0.80946679  0.02080733  0.14890845  1  -0.690026  0.085387  -0.273397  -0.175522  0.049754  3.669628  0.074
N  N175  1  0.14892107  0.02079511  0.80948209  1  -0.794833  0.086161  -0.273465  -0.176055  0.049778  3.670402  0.074
N  N176  1  0.02081219  0.80945795  0.02081006  1  -0.679524  0.085359  -0.273045  -0.175677  0.049711  3.668417  0.074
N  N177  1  0.02079580  0.14893394  0.02079106  1  -0.792433  0.085926  -0.273217  -0.175914  0.04967  3.669134  0.074
N  N178  1  0.80947153  0.02081052  0.02081203  1  -0.680846  0.085434  -0.273495  -0.175744  0.049759  3.669827  0.074
N  N179  1  0.14892461  0.02079109  0.02078979  1  -0.792069  0.086135  -0.273453  -0.175839  0.049787  3.670079  0.074
N  N180  1  0.02079875  0.14893141  0.80946903  1  -0.792713  0.085917  -0.273021  -0.175686  0.049648  3.669046  0.074
N  N181  1  0.02080749  0.80945568  0.14892203  1  -0.690161  0.0853  -0.272922  -0.175484  0.049703  3.668346  0.074
O  O182  1  0.06206442  0.93798515  0.93793104  1  -1.112619  0.157468  -0.515597  -0.724381  0.093147  2.248101  0.135
O  O183  1  0.93793312  0.06201522  0.06206674  1  -1.112919  0.157466  -0.515591  -0.724306  0.093143  2.247893  0.135
O  O184  1  0.06206496  0.93798869  0.06200906  1  -1.112261  0.15747  -0.515727  -0.724791  0.093144  2.247836  0.135
O  O185  1  0.93793324  0.06200887  0.93798766  1  -1.111677  0.157485  -0.51562  -0.724527  0.093144  2.247944  0.135
O  O186  1  0.93790113  0.93801180  0.06203808  1  -1.114228  0.15739  -0.515493  -0.724311  0.093098  2.248425  0.135
O  O187  1  0.06209776  0.06198906  0.93795837  1  -1.11219  0.157392  -0.515551  -0.724443  0.093093  2.248236  0.135
