# generated using pymatgen
data_SmH20C18N7O12
_symmetry_space_group_name_H-M   'P 1'
_cell_length_a   11.04593789
_cell_length_b   10.82218929
_cell_length_c   14.02337010
_cell_angle_alpha   82.32029377
_cell_angle_beta   66.93010024
_cell_angle_gamma   64.86751305
_symmetry_Int_Tables_number   1
_chemical_formula_structural   SmH20C18N7O12
_chemical_formula_sum   'Sm2 H40 C36 N14 O24'
_cell_volume   1395.21180185
_cell_formula_units_Z   2
loop_
 _symmetry_equiv_pos_site_id
 _symmetry_equiv_pos_as_xyz
  1  'x, y, z'
loop_
 _atom_site_type_symbol
 _atom_site_label
 _atom_site_symmetry_multiplicity
 _atom_site_fract_x
 _atom_site_fract_y
 _atom_site_fract_z
 _atom_site_occupancy
 _atom_site_hle17_bader_spin_density
 _atom_site_hle17_ddec_charge
 _atom_site_hle17_ddec_spin_density
 _atom_site_hle17_ddec_sum_bond_order
 _atom_site_hle17_magmom
 _atom_site_hse06_10hf_bader_spin_density
 _atom_site_hse06_10hf_ddec_charge
 _atom_site_hse06_10hf_ddec_spin_density
 _atom_site_hse06_10hf_ddec_sum_bond_order
 _atom_site_hse06_10hf_magmom
 _atom_site_hse06_bader_spin_density
 _atom_site_hse06_ddec_charge
 _atom_site_hse06_ddec_spin_density
 _atom_site_hse06_ddec_sum_bond_order
 _atom_site_hse06_magmom
 _atom_site_pbe_bader_spin_density
 _atom_site_pbe_cm5_charge
 _atom_site_pbe_ddec_charge
 _atom_site_pbe_ddec_spin_density
 _atom_site_pbe_ddec_sum_bond_order
 _atom_site_pbe_magmom
Sm  Sm0  1  0.28057016  0.38704018  0.36711141  1  0  2.262287  0  1.666531  0  0  2.169748  0  2.020757  0  0  2.215295  0  1.977571  0  0  1.514393  2.067384  0  2.181157  0
Sm  Sm1  1  0.71942638  0.61296078  0.63288922  1  0  2.262243  0  1.666604  0  0  2.169704  0  2.020833  0  0  2.215248  0  1.977648  0  0  1.514378  2.067338  0  2.181242  0
H  H2  1  0.07093459  0.04230081  0.08508661  1  0  0.287292  0  0.910315  0  0  0.267916  0  0.971412  0  0  0.27761  0  0.963545  0  0  0.325036  0.261055  0  0.977065  0
H  H3  1  0.92907171  0.95770030  0.91491248  1  0  0.28725  0  0.910365  0  0  0.26789  0  0.971446  0  0  0.277582  0  0.963582  0  0  0.325032  0.261031  0  0.977098  0
H  H4  1  0.68271792  0.75371032  0.96776329  1  0  0.3456  0  0.814754  0  0  0.334973  0  0.856128  0  0  0.342872  0  0.850607  0  0  0.35028  0.329331  0  0.860382  0
H  H5  1  0.31728854  0.24629694  0.03223804  1  0  0.345519  0  0.814912  0  0  0.334924  0  0.856246  0  0  0.342826  0  0.850723  0  0  0.350257  0.329281  0  0.860498  0
H  H6  1  0.04994797  0.33986006  0.63866131  1  0  0.063289  0  0.947056  0  0  0.07058  0  1.018646  0  0  0.072645  0  1.013181  0  0  0.136767  0.069051  0  1.02229  0
H  H7  1  0.95004409  0.66013580  0.36133258  1  0  0.063166  0  0.947257  0  0  0.070502  0  1.018783  0  0  0.072539  0  1.013357  0  0  0.136744  0.069064  0  1.022323  0
H  H8  1  0.99424831  0.24222773  0.78434630  1  0  0.118416  0  0.969221  0  0  0.131907  0  1.040138  0  0  0.134295  0  1.037891  0  0  0.107519  0.129817  0  1.042186  0
H  H9  1  0.00574678  0.75777226  0.21564915  1  0  0.118464  0  0.969136  0  0  0.131914  0  1.040095  0  0  0.134303  0  1.037846  0  0  0.107515  0.129822  0  1.042149  0
H  H10  1  0.11926214  0.18297555  0.84906732  1  0  0.100055  0  0.921159  0  0  0.119421  0  0.981271  0  0  0.12014  0  0.98128  0  0  0.101981  0.118796  0  0.981401  0
H  H11  1  0.88073112  0.81702853  0.15092830  1  0  0.100048  0  0.921135  0  0  0.119446  0  0.981215  0  0  0.120166  0  0.981222  0  0  0.101977  0.11882  0  0.981348  0
H  H12  1  0.11833804  0.06583078  0.77228762  1  0  0.085316  0  0.96422  0  0  0.102658  0  1.036065  0  0  0.102788  0  1.036834  0  0  0.094587  0.102506  0  1.035538  0
H  H13  1  0.88165508  0.93416913  0.22771128  1  0  0.085299  0  0.96426  0  0  0.102638  0  1.036104  0  0  0.102767  0  1.036875  0  0  0.094611  0.102487  0  1.035578  0
H  H14  1  0.42407745  0.16154508  0.60188229  1  0  0.120457  0  0.933076  0  0  0.141111  0  0.98914  0  0  0.143433  0  0.987481  0  0  0.116102  0.139234  0  0.990621  0
H  H15  1  0.57591910  0.83845588  0.39811833  1  0  0.120516  0  0.932989  0  0  0.141145  0  0.989099  0  0  0.143469  0  0.987441  0  0  0.1161  0.13927  0  0.990578  0
H  H16  1  0.39156399  0.01703230  0.66581074  1  0  0.109363  0  0.939535  0  0  0.127857  0  1.005238  0  0  0.128806  0  1.004998  0  0  0.105242  0.126963  0  1.005672  0
H  H17  1  0.60842928  0.98297374  0.33419111  1  0  0.109334  0  0.939543  0  0  0.127936  0  1.005097  0  0  0.128881  0  1.004867  0  0  0.105299  0.127044  0  1.005526  0
H  H18  1  0.37867958  0.14779856  0.73948289  1  0  0.10611  0  0.939084  0  0  0.126998  0  1.001878  0  0  0.127281  0  1.001839  0  0  0.10407  0.126617  0  1.002156  0
H  H19  1  0.62131021  0.85220437  0.26051745  1  0  0.106123  0  0.939084  0  0  0.127021  0  1.001879  0  0  0.127321  0  1.001823  0  0  0.104069  0.126641  0  1.002158  0
H  H20  1  0.67188788  0.41180786  0.45290901  1  0  0.13793  0  0.937893  0  0  0.142641  0  1.006488  0  0  0.147474  0  1.00208  0  0  0.121478  0.138938  0  1.009964  0
H  H21  1  0.32811087  0.58818588  0.54709518  1  0  0.137868  0  0.937957  0  0  0.142631  0  1.006509  0  0  0.147464  0  1.002103  0  0  0.121472  0.138925  0  1.009987  0
H  H22  1  0.81544531  0.14939295  0.18909459  1  0  0.116802  0  0.967934  0  0  0.120256  0  1.041514  0  0  0.125015  0  1.036874  0  0  0.108101  0.116666  0  1.045283  0
H  H23  1  0.18455359  0.85060498  0.81090418  1  0  0.116847  0  0.967926  0  0  0.120315  0  1.041478  0  0  0.125068  0  1.036847  0  0  0.108126  0.116726  0  1.045245  0
H  H24  1  0.41129843  0.80217975  0.82222641  1  0  0.355904  0  0.900096  0  0  0.330005  0  0.970391  0  0  0.341063  0  0.960683  0  0  0.319755  0.322412  0  0.976498  0
H  H25  1  0.58871128  0.19782237  0.17777728  1  0  0.356039  0  0.900027  0  0  0.330131  0  0.97033  0  0  0.341191  0  0.960619  0  0  0.31982  0.322538  0  0.97644  0
H  H26  1  0.12561480  0.21183890  0.26952870  1  0  0.119493  0  0.978025  0  0  0.119864  0  1.057747  0  0  0.123856  0  1.053911  0  0  0.113318  0.117116  0  1.060161  0
H  H27  1  0.87438218  0.78816099  0.73047475  1  0  0.119515  0  0.977992  0  0  0.119877  0  1.057718  0  0  0.123885  0  1.053866  0  0  0.113311  0.117109  0  1.06016  0
H  H28  1  0.37064283  0.01792436  0.27024361  1  0  0.049389  0  0.97211  0  0  0.053237  0  1.050138  0  0  0.055106  0  1.045178  0  0  0.123628  0.051601  0  1.054189  0
H  H29  1  0.62935523  0.98207771  0.72975288  1  0  0.049455  0  0.972076  0  0  0.053334  0  1.050055  0  0  0.055207  0  1.04509  0  0  0.123654  0.0517  0  1.054104  0
H  H30  1  0.35051219  0.82687766  0.28179928  1  0  0.112601  0  0.956788  0  0  0.128962  0  1.025567  0  0  0.129246  0  1.026243  0  0  0.108693  0.128591  0  1.025276  0
H  H31  1  0.64948970  0.17312237  0.71819911  1  0  0.112603  0  0.956838  0  0  0.128973  0  1.025615  0  0  0.129255  0  1.026292  0  0  0.108695  0.128605  0  1.02532  0
H  H32  1  0.18987910  0.81847701  0.37847508  1  0  0.106253  0  0.933717  0  0  0.125124  0  0.997142  0  0  0.126066  0  0.997083  0  0  0.103566  0.124219  0  0.997539  0
H  H33  1  0.81012419  0.18152001  0.62152031  1  0  0.106259  0  0.933786  0  0  0.12516  0  0.997175  0  0  0.126103  0  0.997115  0  0  0.103617  0.124257  0  0.997574  0
H  H34  1  0.35309830  0.74595924  0.40112198  1  0  0.11264  0  0.921583  0  0  0.135343  0  0.978396  0  0  0.136167  0  0.978199  0  0  0.111453  0.134562  0  0.978804  0
H  H35  1  0.64690164  0.25404076  0.59887699  1  0  0.112656  0  0.921569  0  0  0.135361  0  0.978391  0  0  0.136184  0  0.978194  0  0  0.111449  0.134579  0  0.978801  0
H  H36  1  0.10086787  0.93498336  0.54678794  1  0  0.095046  0  0.961076  0  0  0.11604  0  1.025588  0  0  0.115485  0  1.028226  0  0  0.10393  0.116298  0  1.023918  0
H  H37  1  0.89913553  0.06501776  0.45320846  1  0  0.095033  0  0.961074  0  0  0.11603  0  1.025594  0  0  0.115475  0  1.028232  0  0  0.103915  0.116288  0  1.023924  0
H  H38  1  0.09686645  0.10402006  0.53127163  1  0  0.108109  0  0.935545  0  0  0.128113  0  0.997722  0  0  0.128985  0  0.996898  0  0  0.110965  0.127216  0  0.998741  0
H  H39  1  0.90313435  0.89597585  0.46872675  1  0  0.108086  0  0.935488  0  0  0.128092  0  0.997681  0  0  0.128966  0  0.996856  0  0  0.110969  0.127194  0  0.998701  0
H  H40  1  0.23433967  0.96926247  0.56554525  1  0  0.098512  0  0.93349  0  0  0.121009  0  0.99288  0  0  0.120712  0  0.994156  0  0  0.104766  0.121021  0  0.992269  0
H  H41  1  0.76566267  0.03073653  0.43445380  1  0  0.098472  0  0.933549  0  0  0.120976  0  0.992943  0  0  0.120679  0  0.994219  0  0  0.104745  0.120987  0  0.99233  0
C  C42  1  0.57457494  0.31336208  0.34465096  1  0  0.649898  0  3.915729  0  0  0.603381  0  4.210027  0  0  0.637426  0  4.200928  0  0  0.200391  0.581506  0  4.208205  0
C  C43  1  0.42542193  0.68663372  0.65535075  1  0  0.649918  0  3.915516  0  0  0.603444  0  4.209761  0  0  0.637475  0  4.200657  0  0  0.200426  0.581569  0  4.207939  0
C  C44  1  0.32799476  0.93521040  0.05614300  1  0  -0.160365  0  3.750227  0  0  -0.155743  0  4.022914  0  0  -0.17265  0  4.039775  0  0  0.086206  -0.145261  0  4.011953  0
C  C45  1  0.67201104  0.06479165  0.94386115  1  0  -0.16031  0  3.749977  0  0  -0.155732  0  4.022633  0  0  -0.172642  0  4.039504  0  0  0.086165  -0.145248  0  4.011671  0
C  C46  1  0.16693577  0.29269606  0.62047454  1  0  0.419433  0  3.774329  0  0  0.345124  0  4.063109  0  0  0.374407  0  4.06078  0  0  0.190813  0.325322  0  4.061522  0
C  C47  1  0.83306163  0.70729885  0.37951854  1  0  0.41955  0  3.774415  0  0  0.345297  0  4.063046  0  0  0.374597  0  4.060717  0  0  0.19088  0.325431  0  4.061436  0
C  C48  1  0.10352596  0.17191235  0.77849243  1  0  -0.175622  0  3.667156  0  0  -0.274204  0  3.914254  0  0  -0.271442  0  3.925388  0  0  -0.134952  -0.275729  0  3.906927  0
C  C49  1  0.89646774  0.82809066  0.22150601  1  0  -0.175576  0  3.667005  0  0  -0.274158  0  3.914161  0  0  -0.271398  0  3.925292  0  0  -0.134958  -0.275681  0  3.90682  0
C  C50  1  0.35997744  0.12752657  0.67284059  1  0  -0.178008  0  3.63409  0  0  -0.276788  0  3.87573  0  0  -0.273707  0  3.885696  0  0  -0.134044  -0.27874  0  3.86975  0
C  C51  1  0.64001677  0.87247747  0.32715831  1  0  -0.178106  0  3.633962  0  0  -0.276963  0  3.875634  0  0  -0.273894  0  3.885585  0  0  -0.134144  -0.278919  0  3.869655  0
C  C52  1  0.72814514  0.28447084  0.32280474  1  0  -0.043214  0  3.759726  0  0  -0.01565  0  3.992013  0  0  -0.023485  0  4.015259  0  0  -0.01192  -0.011581  0  3.977619  0
C  C53  1  0.27185218  0.71552392  0.67719836  1  0  -0.043243  0  3.759734  0  0  -0.015705  0  3.99207  0  0  -0.023496  0  4.015257  0  0  -0.011904  -0.011636  0  3.977676  0
C  C54  1  0.93772842  0.37742513  0.43964448  1  0  0.725912  0  3.875185  0  0  0.67807  0  4.1707  0  0  0.713852  0  4.158331  0  0  0.237871  0.653642  0  4.17367  0
C  C55  1  0.06226994  0.62257170  0.56035811  1  0  0.725927  0  3.875005  0  0  0.67808  0  4.170541  0  0  0.713871  0  4.158154  0  0  0.237879  0.653651  0  4.173511  0
C  C56  1  0.90296641  0.31508154  0.36948128  1  0  -0.048094  0  3.733853  0  0  -0.019829  0  3.963842  0  0  -0.027529  0  3.985973  0  0  -0.006664  -0.0158  0  3.950806  0
C  C57  1  0.09702947  0.68491419  0.63052431  1  0  -0.048052  0  3.733645  0  0  -0.019789  0  3.963663  0  0  -0.02749  0  3.985796  0  0  -0.006666  -0.015754  0  3.950619  0
C  C58  1  0.75939067  0.34327587  0.38826665  1  0  -0.05898  0  3.637376  0  0  -0.101717  0  3.887165  0  0  -0.099786  0  3.904945  0  0  -0.06212  -0.102187  0  3.875691  0
C  C59  1  0.24060568  0.65671886  0.61173746  1  0  -0.058926  0  3.637348  0  0  -0.101733  0  3.887188  0  0  -0.099818  0  3.904958  0  0  -0.062157  -0.102198  0  3.875706  0
C  C60  1  0.83957476  0.19570001  0.24008738  1  0  -0.147624  0  3.679571  0  0  -0.183838  0  3.936158  0  0  -0.184579  0  3.954184  0  0  -0.079806  -0.183646  0  3.925152  0
C  C61  1  0.16042543  0.80429274  0.75991504  1  0  -0.14765  0  3.679635  0  0  -0.183868  0  3.936196  0  0  -0.18462  0  3.954214  0  0  -0.079804  -0.183676  0  3.925191  0
C  C62  1  0.98281331  0.16667259  0.22315733  1  0  0.187733  0  3.813195  0  0  0.180637  0  4.071914  0  0  0.183496  0  4.09637  0  0  0.093467  0.178673  0  4.055649  0
C  C63  1  0.01718844  0.83332328  0.77684434  1  0  0.187707  0  3.813429  0  0  0.180658  0  4.072064  0  0  0.183516  0  4.096526  0  0  0.093417  0.178696  0  4.055795  0
C  C64  1  0.47389995  0.87744787  0.05734003  1  0  0.562794  0  3.86146  0  0  0.509195  0  4.164999  0  0  0.540145  0  4.164366  0  0  0.24113  0.488372  0  4.165155  0
C  C65  1  0.52610256  0.12255730  0.94265983  1  0  0.56268  0  3.861661  0  0  0.509289  0  4.164893  0  0  0.540237  0  4.164267  0  0  0.241227  0.488465  0  4.165047  0
C  C66  1  0.56115239  0.76991710  0.88488380  1  0  0.797271  0  3.803647  0  0  0.729973  0  4.105121  0  0  0.76655  0  4.098237  0  0  0.367813  0.704803  0  4.107593  0
C  C67  1  0.43885399  0.23008806  0.11511989  1  0  0.797289  0  3.803676  0  0  0.730062  0  4.105054  0  0  0.766654  0  4.098149  0  0  0.367878  0.704894  0  4.107522  0
C  C68  1  0.30251872  0.90047696  0.97064281  1  0  0.578264  0  3.803478  0  0  0.526489  0  4.094321  0  0  0.558668  0  4.092223  0  0  0.249164  0.504871  0  4.095494  0
C  C69  1  0.69749392  0.09952523  0.02935927  1  0  0.57832  0  3.803238  0  0  0.526493  0  4.09417  0  0  0.558671  0  4.092074  0  0  0.249193  0.504873  0  4.095349  0
C  C70  1  0.01491548  0.22893912  0.28589970  1  0  -0.135497  0  3.67523  0  0  -0.172833  0  3.929869  0  0  -0.173107  0  3.948082  0  0  -0.076275  -0.172972  0  3.918573  0
C  C71  1  0.98508111  0.77106388  0.71410215  1  0  -0.135582  0  3.675335  0  0  -0.172905  0  3.929933  0  0  -0.173196  0  3.948139  0  0  -0.076279  -0.173034  0  3.918662  0
C  C72  1  0.30893931  0.04870678  0.35309030  1  0  0.405816  0  3.804245  0  0  0.334589  0  4.096191  0  0  0.362081  0  4.096163  0  0  0.179085  0.315718  0  4.09349  0
C  C73  1  0.69105823  0.95129423  0.64690788  1  0  0.405587  0  3.804316  0  0  0.334343  0  4.096247  0  0  0.361831  0  4.096226  0  0  0.178963  0.315472  0  4.09354  0
C  C74  1  0.28867753  0.83109948  0.36524587  1  0  -0.176965  0  3.640742  0  0  -0.280283  0  3.892143  0  0  -0.277121  0  3.903368  0  0  -0.130964  -0.282191  0  3.88484  0
C  C75  1  0.71132384  0.16889951  0.63475349  1  0  -0.176986  0  3.640848  0  0  -0.280359  0  3.892262  0  0  -0.277194  0  3.903486  0  0  -0.131026  -0.28227  0  3.884957  0
C  C76  1  0.16643852  0.99442547  0.51965415  1  0  -0.164743  0  3.646872  0  0  -0.265863  0  3.892542  0  0  -0.261602  0  3.903365  0  0  -0.133162  -0.268535  0  3.885643  0
C  C77  1  0.83356480  0.00557357  0.48034318  1  0  -0.164664  0  3.646885  0  0  -0.265822  0  3.892567  0  0  -0.261562  0  3.903391  0  0  -0.133175  -0.268493  0  3.885663  0
N  N78  1  0.09258286  0.07311829  0.14175941  1  0  -0.166792  0  3.423505  0  0  -0.108162  0  3.660569  0  0  -0.124549  0  3.674094  0  0  -0.233638  -0.097596  0  3.651462  0
N  N79  1  0.90742389  0.92688180  0.85824035  1  0  -0.166735  0  3.423652  0  0  -0.108154  0  3.660735  0  0  -0.124534  0  3.674251  0  0  -0.233668  -0.097585  0  3.651625  0
N  N80  1  0.22570537  0.02067515  0.13505461  1  0  -0.043165  0  3.090202  0  0  -0.044916  0  3.372815  0  0  -0.03113  0  3.382648  0  0  -0.152368  -0.053241  0  3.36595  0
N  N81  1  0.77430046  0.97932697  0.86494524  1  0  -0.043214  0  3.090307  0  0  -0.044971  0  3.372954  0  0  -0.031187  0  3.38279  0  0  -0.152333  -0.053297  0  3.366086  0
N  N82  1  0.57934640  0.79269190  0.97150803  1  0  -0.520802  0  3.243725  0  0  -0.465408  0  3.487419  0  0  -0.489767  0  3.486486  0  0  -0.383364  -0.449227  0  3.48847  0
N  N83  1  0.42066155  0.20731639  0.02849347  1  0  -0.520706  0  3.243755  0  0  -0.465443  0  3.487372  0  0  -0.489809  0  3.486436  0  0  -0.383379  -0.44926  0  3.488417  0
N  N84  1  0.20846119  0.20178954  0.68807491  1  0  -0.082315  0  3.503534  0  0  0.0237  0  3.733728  0  0  0.003232  0  3.759369  0  0  -0.278357  0.037084  0  3.716797  0
N  N85  1  0.79153383  0.79820836  0.31192218  1  0  -0.082398  0  3.503511  0  0  0.023574  0  3.733764  0  0  0.003108  0  3.759398  0  0  -0.27838  0.036956  0  3.716863  0
N  N86  1  0.30043132  0.59192950  0.20334851  1  0  0.731692  0  4.12271  0  0  0.756293  0  4.428906  0  0  0.785652  0  4.432901  0  0  0.084479  0.736823  0  4.420783  0
N  N87  1  0.69956615  0.40806945  0.79664988  1  0  0.731737  0  4.122388  0  0  0.756356  0  4.428554  0  0  0.785718  0  4.432546  0  0  0.084592  0.736887  0  4.420435  0
N  N88  1  0.42242129  0.82074853  0.88956205  1  0  -0.522933  0  3.22369  0  0  -0.460666  0  3.460048  0  0  -0.487687  0  3.460351  0  0  -0.373603  -0.442244  0  3.45928  0
N  N89  1  0.57758849  0.17925568  0.11043928  1  0  -0.52318  0  3.223639  0  0  -0.460916  0  3.460039  0  0  -0.487945  0  3.460339  0  0  -0.373721  -0.442496  0  3.459278  0
N  N90  1  0.25378848  0.96201784  0.40967128  1  0  -0.090527  0  3.484748  0  0  0.014173  0  3.717324  0  0  -0.006416  0  3.742898  0  0  -0.280982  0.02787  0  3.700226  0
N  N91  1  0.74621387  0.03798119  0.59032635  1  0  -0.090514  0  3.484755  0  0  0.014209  0  3.717328  0  0  -0.00638  0  3.742903  0  0  -0.280906  0.027906  0  3.700228  0
O  O92  1  0.47362864  0.40878041  0.40802602  1  0  -0.638324  0  1.963619  0  0  -0.601535  0  2.196752  0  0  -0.623658  0  2.186229  0  0  -0.348604  -0.579359  0  2.203295  0
O  O93  1  0.52637310  0.59121544  0.59197707  1  0  -0.638329  0  1.963609  0  0  -0.601557  0  2.19674  0  0  -0.623679  0  2.186221  0  0  -0.348618  -0.579379  0  2.203283  0
O  O94  1  0.54799299  0.23738635  0.29852926  1  0  -0.736584  0  2.042446  0  0  -0.690828  0  2.284569  0  0  -0.71569  0  2.273305  0  0  -0.378592  -0.665675  0  2.290495  0
O  O95  1  0.45200342  0.76261047  0.70147321  1  0  -0.73658  0  2.042349  0  0  -0.690816  0  2.284426  0  0  -0.715679  0  2.273165  0  0  -0.3786  -0.665662  0  2.290352  0
O  O96  1  0.85138332  0.40282934  0.53378213  1  0  -0.74123  0  2.037693  0  0  -0.705276  0  2.298478  0  0  -0.730128  0  2.286904  0  0  -0.400495  -0.678397  0  2.307837  0
O  O97  1  0.14861321  0.59717158  0.46622064  1  0  -0.741266  0  2.037648  0  0  -0.705324  0  2.298456  0  0  -0.730171  0  2.286856  0  0  -0.400499  -0.678447  0  2.307823  0
O  O98  1  0.25312694  0.32382843  0.54249160  1  0  -0.630005  0  2.140461  0  0  -0.586073  0  2.402713  0  0  -0.608899  0  2.393581  0  0  -0.381783  -0.561262  0  2.410181  0
O  O99  1  0.74686761  0.67617047  0.45750768  1  0  -0.629978  0  2.140216  0  0  -0.586088  0  2.402444  0  0  -0.608913  0  2.393301  0  0  -0.381791  -0.561281  0  2.40995  0
O  O100  1  0.50937024  0.89987751  0.12453517  1  0  -0.53244  0  1.938374  0  0  -0.503138  0  2.169489  0  0  -0.521936  0  2.161953  0  0  -0.288002  -0.490341  0  2.174518  0
O  O101  1  0.49063225  0.10012761  0.87546756  1  0  -0.532353  0  1.938617  0  0  -0.503134  0  2.169631  0  0  -0.521929  0  2.162095  0  0  -0.28805  -0.490338  0  2.174661  0
O  O102  1  0.17989626  0.94319812  0.96703459  1  0  -0.52263  0  1.887198  0  0  -0.4822  0  2.096718  0  0  -0.501351  0  2.088037  0  0  -0.279119  -0.469135  0  2.102543  0
O  O103  1  0.82011697  0.05680720  0.03296488  1  0  -0.522593  0  1.887165  0  0  -0.482116  0  2.096668  0  0  -0.501265  0  2.08799  0  0  -0.279092  -0.46905  0  2.102493  0
O  O104  1  0.18398714  0.57328438  0.25153654  1  0  -0.551865  0  1.808339  0  0  -0.541241  0  2.039346  0  0  -0.557584  0  2.0301  0  0  -0.23777  -0.523136  0  2.045712  0
O  O105  1  0.81601363  0.42670954  0.74845704  1  0  -0.551899  0  1.808101  0  0  -0.541304  0  2.039127  0  0  -0.557651  0  2.029883  0  0  -0.237842  -0.523184  0  2.045479  0
O  O106  1  0.66729749  0.70629058  0.80746130  1  0  -0.657577  0  2.00203  0  0  -0.626119  0  2.253391  0  0  -0.646959  0  2.241763  0  0  -0.325666  -0.603427  0  2.262465  0
O  O107  1  0.33271164  0.29370846  0.19254141  1  0  -0.657591  0  2.002261  0  0  -0.626141  0  2.253575  0  0  -0.64699  0  2.241947  0  0  -0.325706  -0.603446  0  2.26265  0
O  O108  1  0.05093316  0.39935623  0.40010060  1  0  -0.738003  0  2.076797  0  0  -0.699139  0  2.342713  0  0  -0.723194  0  2.328263  0  0  -0.403495  -0.671714  0  2.353752  0
O  O109  1  0.94906000  0.60064570  0.59990096  1  0  -0.738012  0  2.076809  0  0  -0.699089  0  2.342627  0  0  -0.723147  0  2.328176  0  0  -0.403464  -0.671661  0  2.353656  0
O  O110  1  0.29078639  0.15633748  0.39155707  1  0  -0.634697  0  2.145242  0  0  -0.592094  0  2.408474  0  0  -0.614802  0  2.402395  0  0  -0.376219  -0.567299  0  2.413945  0
O  O111  1  0.70921024  0.84366560  0.60843904  1  0  -0.63455  0  2.145236  0  0  -0.591944  0  2.408459  0  0  -0.614654  0  2.402391  0  0  -0.376137  -0.56715  0  2.413924  0
O  O112  1  0.40857297  0.51581990  0.22835487  1  0  -0.547163  0  1.750582  0  0  -0.541463  0  1.966165  0  0  -0.55703  0  1.958577  0  0  -0.244632  -0.52398  0  1.972213  0
O  O113  1  0.59142219  0.48418409  0.77164803  1  0  -0.54721  0  1.75056  0  0  -0.541509  0  1.966136  0  0  -0.557076  0  1.958547  0  0  -0.244671  -0.524026  0  1.972187  0
O  O114  1  0.30681380  0.67923755  0.13683423  1  0  -0.423431  0  1.721463  0  0  -0.420338  0  1.920968  0  0  -0.434017  0  1.915494  0  0  -0.179433  -0.411389  0  1.924839  0
O  O115  1  0.69318269  0.32076137  0.86316517  1  0  -0.423391  0  1.721447  0  0  -0.420301  0  1.920952  0  0  -0.43398  0  1.915477  0  0  -0.179425  -0.41135  0  1.924825  0
