# generated using pymatgen
data_Cu3H14C12N4(ClO3)2
_symmetry_space_group_name_H-M   'P 1'
_cell_length_a   4.95418588
_cell_length_b   8.63847244
_cell_length_c   12.13631323
_cell_angle_alpha   109.92702077
_cell_angle_beta   93.17432719
_cell_angle_gamma   115.83242022
_symmetry_Int_Tables_number   1
_chemical_formula_structural   Cu3H14C12N4(ClO3)2
_chemical_formula_sum   'Cu3 H14 C12 N4 Cl2 O6'
_cell_volume   426.55296802
_cell_formula_units_Z   1
loop_
 _symmetry_equiv_pos_site_id
 _symmetry_equiv_pos_as_xyz
  1  'x, y, z'
loop_
 _atom_site_type_symbol
 _atom_site_label
 _atom_site_symmetry_multiplicity
 _atom_site_fract_x
 _atom_site_fract_y
 _atom_site_fract_z
 _atom_site_occupancy
 _atom_site_hle17_ddec_charge
 _atom_site_hle17_ddec_spin_density
 _atom_site_hle17_ddec_sum_bond_order
 _atom_site_hle17_magmom
 _atom_site_hse06_10hf_ddec_charge
 _atom_site_hse06_10hf_ddec_spin_density
 _atom_site_hse06_10hf_ddec_sum_bond_order
 _atom_site_hse06_10hf_magmom
 _atom_site_hse06_ddec_charge
 _atom_site_hse06_ddec_spin_density
 _atom_site_hse06_ddec_sum_bond_order
 _atom_site_hse06_magmom
 _atom_site_pbe_cm5_charge
 _atom_site_pbe_ddec_charge
 _atom_site_pbe_ddec_spin_density
 _atom_site_pbe_ddec_sum_bond_order
 _atom_site_pbe_magmom
Cu  Cu0  1  0.49957902  0.49994453  0.00003845  1  0.679406  0.314461  1.656763  0.264  0.57702  0.345984  2.073496  0.298  0.623001  0.388043  2.011512  0.337  0.638151  0.559547  0.337137  2.110975  0.288
Cu  Cu1  1  0.19609345  0.39905760  0.38974517  1  0.645755  0.244923  1.761568  0.208  0.567496  0.247517  2.201773  0.215  0.567664  0.234789  2.161405  0.206  0.447055  0.566511  0.244652  2.229704  0.21
Cu  Cu2  1  0.80465200  0.60071680  0.61032870  1  0.64635  0.245903  1.761099  0.209  0.568719  0.249947  2.200942  0.217  0.571642  0.241487  2.159173  0.212  0.447252  0.567258  0.246481  2.229111  0.213
H  H3  1  0.62595737  0.13742388  0.19508273  1  0.105741  0.000317  0.934063  0.0  0.110341  0.00024  1.000255  0.0  0.114434  0.000144  0.996664  0.0  0.122344  0.107305  0.000358  1.003046  0.001
H  H4  1  0.37438141  0.86278125  0.80501596  1  0.105944  0.000316  0.933562  0.0  0.11044  0.000238  0.999785  0.0  0.114508  0.000141  0.996268  0.0  0.122338  0.107398  0.000355  1.002566  0.001
H  H5  1  0.95144173  0.70636082  0.24785349  1  0.114189  0.000402  0.929084  0.001  0.123411  0.000418  0.988133  0.001  0.12647  0.00039  0.986981  0.001  0.123168  0.12109  0.000454  0.989373  0.001
H  H6  1  0.04838997  0.29348411  0.75197291  1  0.114123  0.000399  0.929088  0.001  0.123777  0.000416  0.98762  0.001  0.126856  0.000386  0.986472  0.001  0.123141  0.121439  0.000451  0.988844  0.001
H  H7  1  0.50189317  0.12837664  0.40944016  1  0.1268  -0.000155  0.974865  0.0  0.1429  -0.000222  1.046547  0.0  0.144883  -0.000256  1.045707  0.0  0.092585  0.141379  -0.000209  1.047284  0.0
H  H8  1  0.49833800  0.87156510  0.59034127  1  0.126584  -0.000155  0.97453  0.0  0.142862  -0.000222  1.046138  0.0  0.144856  -0.000253  1.045285  0.0  0.092391  0.141338  -0.00021  1.046877  0.0
H  H9  1  0.24930566  0.94435087  0.44897056  1  0.128386  -1.4e-05  0.94757  0.0  0.153157  -3e-06  0.999838  0.0  0.153983  2e-06  1.001109  0.0  0.097992  0.152439  -1.3e-05  0.999054  0.0
H  H10  1  0.75116294  0.05542788  0.55073049  1  0.128101  -1.2e-05  0.947698  0.0  0.152702  -2e-06  1.000412  0.0  0.153577  3e-06  1.001634  0.0  0.097905  0.151998  -1.3e-05  0.999606  0.0
H  H11  1  0.26459615  0.17014584  0.50444971  1  0.128445  -0.000159  0.969743  0.0  0.145078  -0.000236  1.039218  0.0  0.148359  -0.000337  1.036424  0.0  0.091028  0.142664  -0.000136  1.041294  0.0
H  H12  1  0.73576346  0.82958299  0.49541853  1  0.128323  -0.000151  0.96967  0.0  0.145121  -0.000233  1.039016  0.0  0.148425  -0.000332  1.036236  0.0  0.090908  0.142709  -0.000135  1.0411  0.0
H  H13  1  0.31047931  0.40701691  0.18862996  1  0.413558  -0.000558  0.84038  0.0  0.385574  -0.000364  0.91868  0.0  0.393577  -0.000583  0.908778  0.0  0.297976  0.379005  -0.00024  0.926999  0.0
H  H14  1  0.68924102  0.59312917  0.81134359  1  0.413689  -0.000558  0.840692  0.0  0.385876  -0.000366  0.918721  0.0  0.393956  -0.000592  0.908753  0.0  0.298417  0.379278  -0.000243  0.927065  0.0
H  H15  1  0.01465139  0.43054305  0.18312550  1  0.415013  -2.6e-05  0.89526  0.0  0.383282  0.000182  0.963173  0.0  0.39337  -3e-05  0.948543  0.0  0.280132  0.375946  0.000329  0.973778  0.0
H  H16  1  0.98503497  0.56950669  0.81714150  1  0.415016  -2.7e-05  0.895408  0.0  0.383144  0.000182  0.963408  0.0  0.393324  -3e-05  0.948664  0.0  0.27996  0.375788  0.000327  0.97403  0.0
C  C17  1  0.57164625  0.85781971  0.12180335  1  0.073984  -0.002347  3.682131  -0.001  0.07482  -0.001344  3.924531  -0.001  0.073458  -0.002209  3.941443  -0.001  0.11792  0.074409  -0.000888  3.915599  0.0
C  C18  1  0.42812204  0.14223137  0.87825756  1  0.074077  -0.002289  3.681491  -0.001  0.075177  -0.001352  3.923305  -0.001  0.073864  -0.002228  3.940164  -0.001  0.117918  0.074748  -0.00089  3.914396  0.0
C  C19  1  0.70518057  0.04293208  0.20609123  1  0.112561  0.000355  3.630955  0.001  0.077406  -0.000354  3.883598  0.0  0.083522  -2.6e-05  3.894128  0.0  0.063072  0.0729  -0.00047  3.877549  0.0
C  C20  1  0.29491900  0.95714698  0.79395183  1  0.112183  0.000302  3.631022  0.001  0.07709  -0.000351  3.883519  0.0  0.083225  -2.3e-05  3.894147  0.0  0.063042  0.072586  -0.000478  3.877442  0.0
C  C21  1  0.02539909  0.99236530  0.31912766  1  0.285013  0.000834  3.676766  0.001  0.294951  -5.5e-05  3.922654  0.001  0.30157  -7.8e-05  3.938654  0.001  0.131153  0.290135  -0.000159  3.912213  0.001
C  C22  1  0.97478331  0.00756874  0.68075610  1  0.284864  0.000799  3.676506  0.001  0.295651  -5.6e-05  3.921416  0.001  0.302357  -7.2e-05  3.937429  0.001  0.131372  0.290828  -0.000173  3.91095  0.001
C  C23  1  0.88594050  0.80530480  0.23505879  1  0.047877  -0.00283  3.595842  -0.002  0.013326  -0.00165  3.843029  -0.001  0.016374  -0.002414  3.857347  -0.001  0.057008  0.010839  -0.001148  3.835086  0.0
C  C24  1  0.11397567  0.19461415  0.76482143  1  0.047306  -0.002772  3.596066  -0.002  0.012054  -0.001662  3.843143  -0.001  0.01507  -0.002439  3.85741  -0.001  0.056632  0.009595  -0.00115  3.835182  0.0
C  C25  1  0.32076163  0.77967601  0.01114818  1  0.601747  -0.002358  3.954488  -0.002  0.551468  -0.001486  4.256331  -0.001  0.584143  -0.002596  4.251041  -0.002  0.20039  0.529161  -0.000691  4.259376  -0.001
C  C26  1  0.67876926  0.22048217  0.98901235  1  0.600789  -0.002381  3.952492  -0.002  0.550457  -0.001502  4.25429  -0.001  0.583084  -0.002622  4.249025  -0.002  0.199945  0.528165  -0.000699  4.257337  -0.001
C  C27  1  0.27237861  0.06161187  0.42680902  1  -0.393241  3.4e-05  3.712016  0.0  -0.477773  -0.000215  3.944384  0.0  -0.481438  -0.000345  3.951259  0.0  -0.246153  -0.474767  -6.7e-05  3.939804  0.0
C  C28  1  0.72793758  0.93821047  0.57298359  1  -0.392089  1.7e-05  3.710496  0.0  -0.477255  -0.000208  3.943031  0.0  -0.480957  -0.000338  3.949849  0.0  -0.24574  -0.474277  -6.5e-05  3.938434  0.0
N  N29  1  0.66765568  0.74059279  0.13628816  1  -0.250642  0.016565  3.403529  0.023  -0.192333  0.012336  3.695842  0.018  -0.202593  0.013151  3.703608  0.02  -0.349763  -0.188854  0.01255  3.693652  0.017
N  N30  1  0.33201282  0.25936810  0.86369140  1  -0.249848  0.016506  3.402159  0.023  -0.191417  0.012307  3.69429  0.017  -0.201603  0.013109  3.701979  0.02  -0.349447  -0.187958  0.012516  3.692105  0.017
N  N31  1  0.93662338  0.11248322  0.30235596  1  -0.325074  -0.001425  3.25599  0.0  -0.268819  -0.001751  3.543633  -0.001  -0.272997  -0.00261  3.544826  -0.001  -0.336439  -0.266196  -0.001247  3.54299  0.0
N  N32  1  0.06374460  0.88755837  0.69759141  1  -0.325055  -0.001391  3.255135  0.0  -0.268991  -0.001782  3.542239  -0.001  -0.27356  -0.002642  3.543605  -0.001  -0.336204  -0.266298  -0.001264  3.541548  0.0
Cl  Cl33  1  0.26164208  0.51018847  0.59699948  1  -0.543249  0.04789  1.293869  0.069  -0.49728  0.036261  1.66707  0.057  -0.509659  0.034581  1.633714  0.06  -0.277111  -0.490079  0.035714  1.690337  0.052
Cl  Cl34  1  0.73861533  0.48996658  0.40310575  1  -0.543158  0.04781  1.294703  0.069  -0.497217  0.036132  1.668088  0.056  -0.509377  0.034395  1.634627  0.059  -0.277146  -0.490048  0.035575  1.691392  0.052
O  O35  1  0.28347716  0.62674568  0.92499749  1  -0.652897  0.022415  2.027937  0.035  -0.590552  0.021655  2.286464  0.035  -0.619639  0.019714  2.271065  0.035  -0.332766  -0.570444  0.023853  2.296114  0.036
O  O36  1  0.71551635  0.37315053  0.07523893  1  -0.651959  0.022419  2.026191  0.035  -0.589505  0.021666  2.284374  0.035  -0.618467  0.019737  2.268964  0.035  -0.332067  -0.569429  0.023858  2.294021  0.036
O  O37  1  0.16683040  0.86067916  0.00931649  1  -0.564254  0.005775  1.924143  0.008  -0.526392  0.003902  2.15012  0.006  -0.550482  0.002501  2.14522  0.004  -0.305445  -0.508269  0.005776  2.15252  0.008
O  O38  1  0.83312860  0.13968421  0.99083272  1  -0.564486  0.005813  1.923037  0.009  -0.526749  0.003917  2.149227  0.006  -0.550841  0.002508  2.14431  0.004  -0.30574  -0.508621  0.005796  2.151648  0.008
O  O39  1  0.21136214  0.46988264  0.23965592  1  -0.809878  0.012633  1.98366  0.019  -0.759405  0.010991  2.212299  0.017  -0.778808  0.008847  2.184123  0.015  -0.593473  -0.745514  0.01215  2.233143  0.018
O  O40  1  0.78860385  0.53029772  0.76046343  1  -0.809993  0.01272  1.985066  0.019  -0.759613  0.011123  2.213811  0.017  -0.77913  0.009125  2.185359  0.015  -0.593703  -0.745701  0.012259  2.234711  0.018
