# generated using pymatgen
data_AlCuP2H36(C12Cl)2
_symmetry_space_group_name_H-M   'P 1'
_cell_length_a   12.35105816
_cell_length_b   13.19624309
_cell_length_c   20.07249077
_cell_angle_alpha   90.00002256
_cell_angle_beta   90.00011503
_cell_angle_gamma   113.94800031
_symmetry_Int_Tables_number   1
_chemical_formula_structural   AlCuP2H36(C12Cl)2
_chemical_formula_sum   'Al4 Cu4 P8 H144 C96 Cl8'
_cell_volume   2989.93107177
_cell_formula_units_Z   4
loop_
 _symmetry_equiv_pos_site_id
 _symmetry_equiv_pos_as_xyz
  1  'x, y, z'
loop_
 _atom_site_type_symbol
 _atom_site_label
 _atom_site_symmetry_multiplicity
 _atom_site_fract_x
 _atom_site_fract_y
 _atom_site_fract_z
 _atom_site_occupancy
 _atom_site_pbe_bader_charge
 _atom_site_pbe_bader_spin_density
 _atom_site_pbe_cm5_charge
 _atom_site_pbe_ddec_charge
 _atom_site_pbe_ddec_spin_density
 _atom_site_pbe_ddec_sum_bond_order
 _atom_site_pbe_magmom
Al  Al0  1  0.64118598  0.88121980  0.82241962  1  2.256757  0  0.122172  0.841072  0  3.181267  0
Al  Al1  1  0.35881509  0.61878017  0.32242068  1  2.256776  0  0.122184  0.84101  0  3.181363  0
Al  Al2  1  0.35881299  0.11877957  0.17757860  1  2.256769  0  0.122158  0.840733  0  3.181706  0
Al  Al3  1  0.64118712  0.38121921  0.67758003  1  2.256719  0  0.122197  0.840803  0  3.181597  0
Cu  Cu4  1  0.65583309  0.60651236  0.70711452  1  0.313123  0  0.388491  0.008217  0  2.676907  0
Cu  Cu5  1  0.34416669  0.89348736  0.20711314  1  0.313125  0  0.388514  0.008249  0  2.676865  0
Cu  Cu6  1  0.34416508  0.39348701  0.29288668  1  0.313131  0  0.388488  0.00815  0  2.676976  0
Cu  Cu7  1  0.65583345  0.10651285  0.79288508  1  0.313127  0  0.388498  0.008194  0  2.676924  0
P  P8  1  0.46391829  0.53231111  0.68160834  1  1.186907  0  -0.033524  0.258805  0  4.044231  0
P  P9  1  0.53608210  0.96769021  0.18160771  1  1.186858  0  -0.03353  0.258831  0  4.044275  0
P  P10  1  0.53608078  0.46768661  0.31839187  1  1.186855  0  -0.033531  0.258817  0  4.044247  0
P  P11  1  0.46391831  0.03231249  0.81839250  1  1.186886  0  -0.033556  0.258794  0  4.044286  0
P  P12  1  0.83210303  0.66103184  0.65782479  1  1.172553  0  -0.036041  0.24907  0  4.025567  0
P  P13  1  0.16789654  0.83896777  0.15782367  1  1.172577  0  -0.03605  0.249011  0  4.025545  0
P  P14  1  0.16789523  0.33896588  0.34217542  1  1.172555  0  -0.036048  0.249088  0  4.025551  0
P  P15  1  0.83210396  0.16103326  0.84217504  1  1.172579  0  -0.03604  0.249044  0  4.025453  0
H  H16  1  0.41801477  0.62015964  0.77265133  1  0.097715  0  0.095137  0.077643  0  1.027286  0
H  H17  1  0.58198619  0.87983857  0.27265024  1  0.097705  0  0.09514  0.07766  0  1.027258  0
H  H18  1  0.58198592  0.37983808  0.22734788  1  0.097663  0  0.095141  0.077657  0  1.027255  0
H  H19  1  0.41801360  0.12016081  0.72734947  1  0.0977  0  0.095143  0.077659  0  1.02726  0
H  H20  1  0.19146331  0.42302763  0.72965551  1  0.010039  0  0.08409  0.110458  0  1.039684  0
H  H21  1  0.80853702  0.07697127  0.22965561  1  0.010046  0  0.084084  0.110457  0  1.039706  0
H  H22  1  0.80853647  0.57697175  0.27034470  1  0.010057  0  0.084099  0.110472  0  1.039662  0
H  H23  1  0.19146357  0.92302811  0.77034459  1  0.010044  0  0.084099  0.110468  0  1.039665  0
H  H24  1  0.23206344  0.56138088  0.70117080  1  0.022247  0  0.085453  0.112712  0  1.03706  0
H  H25  1  0.76793875  0.93861883  0.20117045  1  0.022458  0  0.085446  0.112702  0  1.037059  0
H  H26  1  0.76793833  0.43861933  0.29882991  1  0.022395  0  0.085442  0.112698  0  1.037059  0
H  H27  1  0.23206068  0.06137972  0.79883026  1  0.022386  0  0.085441  0.112689  0  1.037072  0
H  H28  1  0.20509569  0.53007733  0.78704502  1  0.034443  0  0.085259  0.114618  0  1.024492  0
H  H29  1  0.79490523  0.96992257  0.28704571  1  0.034411  0  0.085253  0.114603  0  1.024506  0
H  H30  1  0.79490364  0.46992288  0.21295419  1  0.034389  0  0.085265  0.114625  0  1.024452  0
H  H31  1  0.20509374  0.03007681  0.71295500  1  0.034421  0  0.085266  0.114611  0  1.024514  0
H  H32  1  0.33737918  0.46374722  0.85444131  1  0.017559  0  0.083415  0.112542  0  1.00843  0
H  H33  1  0.66262006  0.03625196  0.35444123  1  0.017562  0  0.083388  0.112487  0  1.008403  0
H  H34  1  0.66262060  0.53625216  0.14555890  1  0.01756  0  0.083434  0.112565  0  1.008452  0
H  H35  1  0.33737928  0.96374825  0.64555898  1  0.01757  0  0.083401  0.112492  0  1.008417  0
H  H36  1  0.47716555  0.47778312  0.82174740  1  0.070197  0  0.078983  0.116557  0  1.047081  0
H  H37  1  0.52283400  0.02221515  0.32174714  1  0.070194  0  0.078968  0.116529  0  1.047045  0
H  H38  1  0.52283306  0.52221543  0.17825281  1  0.070185  0  0.078983  0.116556  0  1.047058  0
H  H39  1  0.47716614  0.97778505  0.67825307  1  0.070195  0  0.078969  0.116537  0  1.047046  0
H  H40  1  0.34422431  0.37058737  0.79236132  1  0.036011  0  0.084018  0.113711  0  1.02589  0
H  H41  1  0.65577467  0.12941167  0.29236175  1  0.036017  0  0.084012  0.113692  0  1.025915  0
H  H42  1  0.65577512  0.62941118  0.20763889  1  0.036044  0  0.084021  0.113723  0  1.025914  0
H  H43  1  0.34422511  0.87058771  0.70763846  1  0.036007  0  0.084013  0.113699  0  1.025913  0
H  H44  1  0.32681414  0.57007480  0.61008600  1  0.022545  0  0.092294  0.06553  0  1.024685  0
H  H45  1  0.67318649  0.92992388  0.11008503  1  0.022539  0  0.092272  0.065538  0  1.024654  0
H  H46  1  0.67318691  0.42992376  0.38991471  1  0.022535  0  0.092279  0.065545  0  1.024666  0
H  H47  1  0.32681446  0.07007633  0.88991418  1  0.022545  0  0.092293  0.065568  0  1.024667  0
H  H48  1  0.55473811  0.77186843  0.64675376  1  0.070885  0  0.07638  0.106059  0  1.067529  0
H  H49  1  0.44526232  0.72812950  0.14675346  1  0.070853  0  0.076376  0.106063  0  1.067561  0
H  H50  1  0.44526294  0.22813012  0.35324595  1  0.070865  0  0.076378  0.106077  0  1.067559  0
H  H51  1  0.55473701  0.27187071  0.85324625  1  0.070844  0  0.076384  0.106079  0  1.067548  0
H  H52  1  0.41529583  0.73612689  0.68504438  1  0.02713  0  0.086114  0.116593  0  1.024983  0
H  H53  1  0.58470430  0.76387195  0.18504426  1  0.027131  0  0.086105  0.11657  0  1.025006  0
H  H54  1  0.58470440  0.26387166  0.31495533  1  0.027119  0  0.086113  0.116592  0  1.024994  0
H  H55  1  0.41529584  0.23612825  0.81495545  1  0.027455  0  0.086126  0.116628  0  1.024965  0
H  H56  1  0.43465945  0.77577218  0.59970173  1  0.017047  0  0.088351  0.125774  0  0.985809  0
H  H57  1  0.56534194  0.72422648  0.09970157  1  0.017007  0  0.088357  0.125789  0  0.985767  0
H  H58  1  0.56534159  0.22422638  0.40029798  1  0.017015  0  0.088343  0.125762  0  0.98579  0
H  H59  1  0.43465784  0.27577290  0.90029814  1  0.017013  0  0.088354  0.125794  0  0.985776  0
H  H60  1  0.57710922  0.62594177  0.55670115  1  0.047456  0  0.082578  0.107847  0  1.041707  0
H  H61  1  0.42289073  0.87405762  0.05670086  1  0.047455  0  0.08258  0.107865  0  1.041688  0
H  H62  1  0.42289218  0.37405761  0.44329906  1  0.047486  0  0.082573  0.107843  0  1.041722  0
H  H63  1  0.57710896  0.12594342  0.94329885  1  0.047468  0  0.082566  0.107832  0  1.041733  0
H  H64  1  0.46795743  0.65545759  0.51285252  1  0.022383  0  0.085576  0.123406  0  1.01283  0
H  H65  1  0.53204198  0.84454088  0.01285235  1  0.022375  0  0.085552  0.123377  0  1.01287  0
H  H66  1  0.53204316  0.34454179  0.48714769  1  0.022353  0  0.085549  0.123371  0  1.012867  0
H  H67  1  0.46795816  0.15545933  0.98714736  1  0.022354  0  0.085549  0.123383  0  1.012873  0
H  H68  1  0.44223320  0.51634116  0.53172807  1  0.06656  0  0.088835  0.124994  0  1.025549  0
H  H69  1  0.55776709  0.98365735  0.03172797  1  0.066583  0  0.088835  0.12501  0  1.025553  0
H  H70  1  0.55776784  0.48365740  0.46827264  1  0.067063  0  0.088822  0.12499  0  1.025541  0
H  H71  1  0.44223224  0.01634286  0.96827224  1  0.067064  0  0.088815  0.12499  0  1.025573  0
H  H72  1  0.23250374  0.39392668  0.62556431  1  0.03915  0  0.097458  0.086765  0  1.046784  0
H  H73  1  0.76749785  0.10607780  0.12556587  1  0.039206  0  0.097468  0.086781  0  1.046789  0
H  H74  1  0.76749730  0.60607187  0.37443590  1  0.039332  0  0.097462  0.086769  0  1.046743  0
H  H75  1  0.23250354  0.89392904  0.87443633  1  0.039295  0  0.097459  0.086739  0  1.046767  0
H  H76  1  0.91759749  0.55696759  0.71547886  1  0.046436  0  0.101135  0.085336  0  0.978492  0
H  H77  1  0.08240152  0.94303215  0.21547767  1  0.046431  0  0.101129  0.085314  0  0.978502  0
H  H78  1  0.08240113  0.44303096  0.28452185  1  0.046439  0  0.101146  0.085339  0  0.978509  0
H  H79  1  0.91759979  0.05696889  0.78452155  1  0.046446  0  0.101131  0.085321  0  0.978494  0
H  H80  1  0.10846910  0.78040263  0.66839156  1  0.015728  0  0.085459  0.115428  0  1.02411  0
H  H81  1  0.89153213  0.71959701  0.16839280  1  0.015704  0  0.085463  0.11544  0  1.024061  0
H  H82  1  0.89153149  0.21959675  0.33160815  1  0.015685  0  0.085454  0.115426  0  1.02411  0
H  H83  1  0.10846918  0.28040403  0.83160791  1  0.015711  0  0.085469  0.11545  0  1.024095  0
H  H84  1  0.06515790  0.65063740  0.62683165  1  0.029421  0  0.084554  0.112358  0  1.04296  0
H  H85  1  0.93484118  0.84936131  0.12683298  1  0.029341  0  0.084526  0.112343  0  1.043057  0
H  H86  1  0.93484189  0.34936198  0.37316756  1  0.029328  0  0.084557  0.112358  0  1.042984  0
H  H87  1  0.06515896  0.15063890  0.87316823  1  0.029333  0  0.084536  0.112342  0  1.042944  0
H  H88  1  0.13455659  0.67153151  0.70644912  1  0.028234  0  0.088036  0.123059  0  1.013551  0
H  H89  1  0.86544273  0.82846904  0.20644986  1  0.028223  0  0.088017  0.123025  0  1.01356  0
H  H90  1  0.86544193  0.32846870  0.29355109  1  0.028219  0  0.088022  0.123041  0  1.013568  0
H  H91  1  0.13455894  0.17153283  0.79355085  1  0.028228  0  0.088028  0.123036  0  1.013559  0
H  H92  1  0.01934028  0.67299831  0.81107134  1  0.021089  0  0.081574  0.110369  0  1.026906  0
H  H93  1  0.98066227  0.82700330  0.31107322  1  0.021091  0  0.081564  0.110363  0  1.026872  0
H  H94  1  0.98065924  0.32699858  0.18892737  1  0.021064  0  0.08157  0.110362  0  1.026904  0
H  H95  1  0.01934092  0.17300023  0.68892749  1  0.021056  0  0.081568  0.110369  0  1.026914  0
H  H96  1  0.87154638  0.66398278  0.80510649  1  0.051765  0  0.07562  0.118823  0  1.051448  0
H  H97  1  0.12845489  0.83601964  0.30510582  1  0.051738  0  0.075618  0.118814  0  1.051437  0
H  H98  1  0.12845386  0.33601577  0.19489372  1  0.051772  0  0.075601  0.11877  0  1.051431  0
H  H99  1  0.87154705  0.16398471  0.69489389  1  0.051773  0  0.07562  0.118808  0  1.051469  0
H  H100  1  0.99266831  0.78662800  0.78036724  1  -0.006412  0  0.082607  0.114891  0  1.028349  0
H  H101  1  0.00733412  0.71337354  0.28036789  1  -0.006408  0  0.08263  0.114889  0  1.028363  0
H  H102  1  0.00733184  0.21337220  0.21963396  1  -0.006422  0  0.082606  0.114883  0  1.028352  0
H  H103  1  0.99266872  0.28662916  0.71963331  1  -0.006419  0  0.082597  0.114884  0  1.028358  0
H  H104  1  0.97562918  0.80720156  0.59141510  1  0.026646  0  0.094761  0.069364  0  0.989121  0
H  H105  1  0.02436975  0.69279707  0.09141427  1  0.026289  0  0.094772  0.069381  0  0.989095  0
H  H106  1  0.02436980  0.19279782  0.40858610  1  0.026619  0  0.094789  0.069394  0  0.989107  0
H  H107  1  0.97563120  0.30720313  0.90858594  1  0.026276  0  0.094783  0.069391  0  0.98911  0
H  H108  1  0.73059509  0.81544984  0.60009648  1  0.046359  0  0.085658  0.122251  0  1.027609  0
H  H109  1  0.26940540  0.68455048  0.10009645  1  0.046373  0  0.085663  0.122233  0  1.027617  0
H  H110  1  0.26940424  0.18455037  0.39990372  1  0.046378  0  0.085662  0.122242  0  1.027616  0
H  H111  1  0.73059672  0.31545056  0.89990426  1  0.046403  0  0.085644  0.122232  0  1.02758  0
H  H112  1  0.77244531  0.74619137  0.53565358  1  0.045463  0  0.084164  0.111859  0  1.055657  0
H  H113  1  0.22755374  0.75380797  0.03565351  1  0.045468  0  0.084114  0.111749  0  1.055684  0
H  H114  1  0.22755330  0.25380718  0.46434663  1  0.045473  0  0.084141  0.111812  0  1.055662  0
H  H115  1  0.77244757  0.24619307  0.96434620  1  0.045485  0  0.084155  0.111814  0  1.055656  0
H  H116  1  0.84719474  0.89231875  0.54465801  1  0.019391  0  0.084452  0.115042  0  0.998166  0
H  H117  1  0.15280588  0.60768227  0.04465781  1  0.019389  0  0.084459  0.115026  0  0.998169  0
H  H118  1  0.15280621  0.10768146  0.45534220  1  0.019382  0  0.084451  0.115026  0  0.998173  0
H  H119  1  0.84719498  0.39231960  0.95534290  1  0.019417  0  0.084456  0.115034  0  0.998209  0
H  H120  1  0.94110362  0.68688469  0.52149350  1  0.028694  0  0.096308  0.087594  0  1.028047  0
H  H121  1  0.05889421  0.81311379  0.02149174  1  0.028626  0  0.096283  0.08755  0  1.028151  0
H  H122  1  0.05889374  0.31311469  0.47850970  1  0.028744  0  0.096292  0.087533  0  1.028106  0
H  H123  1  0.94110513  0.18688642  0.97850597  1  0.028654  0  0.096286  0.087572  0  1.028132  0
H  H124  1  0.96032629  0.97342998  0.64830740  1  0.006987  0  0.085727  0.11976  0  0.998746  0
H  H125  1  0.03967405  0.52656961  0.14830804  1  0.007019  0  0.085727  0.119755  0  0.998744  0
H  H126  1  0.03967268  0.02656940  0.35169280  1  0.00703  0  0.08574  0.119763  0  0.998727  0
H  H127  1  0.96032807  0.47343143  0.85169316  1  0.006972  0  0.085738  0.119757  0  0.998735  0
H  H128  1  0.01076808  0.89467183  0.70189458  1  0.029307  0  0.083654  0.110711  0  1.051889  0
H  H129  1  0.98923284  0.60532870  0.20189491  1  0.02933  0  0.08366  0.110708  0  1.051882  0
H  H130  1  0.98923206  0.10532837  0.29810563  1  0.029294  0  0.083636  0.110692  0  1.051905  0
H  H131  1  0.01076928  0.39467234  0.79810579  1  0.029292  0  0.083658  0.110724  0  1.05195  0
H  H132  1  0.86174042  0.88181530  0.70706038  1  0.060041  0  0.080468  0.114576  0  1.055655  0
H  H133  1  0.13826088  0.61818608  0.20705967  1  0.060383  0  0.080478  0.114584  0  1.055648  0
H  H134  1  0.13825891  0.11818491  0.29294033  1  0.060061  0  0.08047  0.114584  0  1.05569  0
H  H135  1  0.86174115  0.38181662  0.79294004  1  0.060042  0  0.080479  0.114587  0  1.055631  0
H  H136  1  0.92974250  0.55042865  0.43492724  1  0.092149  0  0.100751  0.098202  0  0.991568  0
H  H137  1  0.07026103  0.94957241  0.93492549  1  0.092103  0  0.100727  0.098149  0  0.991595  0
H  H138  1  0.07026267  0.44957571  0.56507397  1  0.092065  0  0.100743  0.098201  0  0.991568  0
H  H139  1  0.92974028  0.05042863  0.06507272  1  0.092121  0  0.100745  0.098184  0  0.991562  0
H  H140  1  0.80643416  0.34893295  0.45424960  1  0.036846  0  0.096648  0.088693  0  1.015247  0
H  H141  1  0.19357001  0.15106562  0.95424843  1  0.036845  0  0.096665  0.088699  0  1.015254  0
H  H142  1  0.19357066  0.65107058  0.54574961  1  0.036767  0  0.096677  0.088743  0  1.01517  0
H  H143  1  0.80643211  0.84893542  0.04574979  1  0.036884  0  0.096676  0.08872  0  1.015228  0
H  H144  1  0.69847215  0.28702169  0.55997930  1  0.047087  0  0.091477  0.078746  0  1.022963  0
H  H145  1  0.30152792  0.21297601  0.05997932  1  0.047139  0  0.091488  0.078727  0  1.022986  0
H  H146  1  0.30152630  0.71297272  0.44001841  1  0.047111  0  0.091483  0.078723  0  1.022971  0
H  H147  1  0.69847141  0.78702420  0.94001990  1  0.047134  0  0.091486  0.07873  0  1.023008  0
H  H148  1  0.47194914  0.17039588  0.61872422  1  0.070561  0  0.091969  0.080417  0  1.038112  0
H  H149  1  0.52804811  0.32960609  0.11872156  1  0.070484  0  0.091935  0.080354  0  1.038116  0
H  H150  1  0.52805227  0.82960350  0.38127698  1  0.070602  0  0.091966  0.080386  0  1.038106  0
H  H151  1  0.47194555  0.67039412  0.88127716  1  0.070581  0  0.09196  0.080381  0  1.03814  0
H  H152  1  0.26762625  0.09252132  0.57527308  1  0.064761  0  0.096768  0.086715  0  1.002048  0
H  H153  1  0.73237370  0.40747972  0.07527019  1  0.06471  0  0.096774  0.086722  0  1.002023  0
H  H154  1  0.73237938  0.90748221  0.42472962  1  0.064709  0  0.096745  0.086719  0  1.001985  0
H  H155  1  0.26762230  0.59252214  0.92472753  1  0.064799  0  0.096754  0.086711  0  1.002058  0
H  H156  1  0.14535810  0.20405196  0.58082938  1  0.037358  0  0.09801  0.089498  0  1.009667  0
H  H157  1  0.85463863  0.29594909  0.08082910  1  0.037408  0  0.097984  0.089466  0  1.009714  0
H  H158  1  0.85464349  0.79594411  0.41917133  1  0.037351  0  0.09801  0.089452  0  1.009694  0
H  H159  1  0.14535916  0.70405691  0.91917111  1  0.037425  0  0.098021  0.089449  0  1.009715  0
C  C160  1  0.37274114  0.53405113  0.75508297  1  -0.396524  0  -0.098221  -0.019807  0  3.873668  0
C  C161  1  0.62725929  0.96594787  0.25508246  1  -0.396331  0  -0.098224  -0.019837  0  3.87362  0
C  C162  1  0.62725874  0.46594659  0.24491724  1  -0.396231  0  -0.098265  -0.019875  0  3.873736  0
C  C163  1  0.37274085  0.03405234  0.74491775  1  -0.39634  0  -0.098231  -0.019836  0  3.873649  0
C  C164  1  0.24325491  0.51073366  0.74178160  1  -0.072198  0  -0.24452  -0.376616  0  3.944966  0
C  C165  1  0.75674627  0.98926531  0.24178225  1  -0.072359  0  -0.244497  -0.376577  0  3.944888  0
C  C166  1  0.75674451  0.48926489  0.25821811  1  -0.072314  0  -0.244498  -0.376599  0  3.944876  0
C  C167  1  0.24325351  0.01073407  0.75821796  1  -0.072289  0  -0.244525  -0.376593  0  3.944879  0
C  C168  1  0.38423489  0.45735404  0.80903293  1  -0.102045  0  -0.246395  -0.377246  0  3.947376  0
C  C169  1  0.61576425  0.04264338  0.30903229  1  -0.102282  0  -0.246368  -0.377146  0  3.947351  0
C  C170  1  0.61576418  0.54264369  0.19096728  1  -0.102264  0  -0.246404  -0.377257  0  3.94746  0
C  C171  1  0.38423553  0.95735600  0.69096792  1  -0.102261  0  -0.246359  -0.377146  0  3.947367  0
C  C172  1  0.42357982  0.61004671  0.61641811  1  -0.376758  0  -0.096015  -0.017943  0  3.900105  0
C  C173  1  0.57642039  0.88995281  0.11641801  1  -0.376727  0  -0.096016  -0.017985  0  3.900045  0
C  C174  1  0.57642042  0.38995184  0.38358210  1  -0.376747  0  -0.095974  -0.017899  0  3.900128  0
C  C175  1  0.42358011  0.11004823  0.88358220  1  -0.37676  0  -0.096008  -0.017988  0  3.900197  0
C  C176  1  0.45879872  0.72977102  0.63848616  1  -0.093035  0  -0.244405  -0.376492  0  3.942706  0
C  C177  1  0.54120202  0.77022773  0.13848549  1  -0.092977  0  -0.244397  -0.376487  0  3.94275  0
C  C178  1  0.54120232  0.27022754  0.36151405  1  -0.093009  0  -0.244426  -0.376531  0  3.942779  0
C  C179  1  0.45879848  0.22977331  0.86151422  1  -0.093334  0  -0.244433  -0.376559  0  3.942707  0
C  C180  1  0.48127414  0.60140691  0.55066497  1  -0.093205  0  -0.245005  -0.372031  0  3.91758  0
C  C181  1  0.51872543  0.89859163  0.05066430  1  -0.093228  0  -0.244968  -0.372007  0  3.917577  0
C  C182  1  0.51872691  0.39859164  0.44933524  1  -0.09322  0  -0.244947  -0.371982  0  3.917627  0
C  C183  1  0.48127390  0.10140857  0.94933541  1  -0.093216  0  -0.244948  -0.371991  0  3.917691  0
C  C184  1  0.40174987  0.38953815  0.65073867  1  -0.576209  0  -0.019007  0.007742  0  3.946816  0
C  C185  1  0.59824634  0.11046305  0.15074052  1  -0.575945  0  -0.01904  0.007596  0  3.946925  0
C  C186  1  0.59824910  0.61046123  0.34926054  1  -0.575932  0  -0.019005  0.007738  0  3.946824  0
C  C187  1  0.40175235  0.88954130  0.84926168  1  -0.576039  0  -0.018983  0.007698  0  3.946801  0
C  C188  1  0.28509021  0.34463896  0.62598183  1  0.062451  0  -0.087662  -0.095098  0  3.963327  0
C  C189  1  0.71490681  0.15536054  0.12598233  1  0.062291  0  -0.08765  -0.095035  0  3.963244  0
C  C190  1  0.71490688  0.65535793  0.37401838  1  0.062083  0  -0.087635  -0.095048  0  3.9633  0
C  C191  1  0.28509432  0.84464382  0.87401837  1  0.062112  0  -0.087611  -0.094932  0  3.963248  0
C  C192  1  0.95095418  0.64786720  0.71054677  1  -0.339644  0  -0.090284  -0.003567  0  3.847325  0
C  C193  1  0.04904678  0.85213336  0.21054700  1  -0.339631  0  -0.090276  -0.003514  0  3.847254  0
C  C194  1  0.04904551  0.35213383  0.28945195  1  -0.339626  0  -0.090248  -0.003498  0  3.847301  0
C  C195  1  0.95095615  0.14786768  0.78945271  1  -0.339637  0  -0.090308  -0.003519  0  3.847294  0
C  C196  1  0.07120252  0.69008495  0.67569405  1  -0.058045  0  -0.243799  -0.377996  0  3.932946  0
C  C197  1  0.92879784  0.80991636  0.17569437  1  -0.057908  0  -0.243747  -0.377956  0  3.932998  0
C  C198  1  0.92879681  0.30991526  0.32430615  1  -0.057904  0  -0.243803  -0.378009  0  3.932957  0
C  C199  1  0.07120301  0.19008550  0.82430584  1  -0.05795  0  -0.243771  -0.377986  0  3.932935  0
C  C200  1  0.95841996  0.69578779  0.78069951  1  -0.043268  0  -0.250207  -0.381345  0  3.936356  0
C  C201  1  0.04158139  0.80421127  0.28070022  1  -0.043267  0  -0.250227  -0.381348  0  3.936296  0
C  C202  1  0.04157865  0.30421076  0.21930020  1  -0.04327  0  -0.250186  -0.381283  0  3.9363  0
C  C203  1  0.95842083  0.19578811  0.71930049  1  -0.04325  0  -0.250181  -0.381337  0  3.936391  0
C  C204  1  0.89680251  0.80112276  0.61980963  1  -0.357935  0  -0.09358  -0.008614  0  3.877286  0
C  C205  1  0.10319654  0.69887594  0.11980940  1  -0.35764  0  -0.093561  -0.008586  0  3.877206  0
C  C206  1  0.10319610  0.19887579  0.38019057  1  -0.357943  0  -0.093584  -0.00865  0  3.877293  0
C  C207  1  0.89680396  0.30112510  0.88019081  1  -0.357738  0  -0.093566  -0.008645  0  3.877268  0
C  C208  1  0.80630747  0.81364110  0.57218819  1  -0.090062  0  -0.244979  -0.385939  0  3.94637  0
C  C209  1  0.19369174  0.68635832  0.07218806  1  -0.090077  0  -0.244934  -0.38578  0  3.946306  0
C  C210  1  0.19369231  0.18635827  0.42781202  1  -0.090082  0  -0.244968  -0.385865  0  3.946356  0
C  C211  1  0.80630957  0.31364272  0.92781265  1  -0.089944  0  -0.244974  -0.38586  0  3.946331  0
C  C212  1  0.82303377  0.56468415  0.59026265  1  -0.463102  0  -0.02381  -0.003175  0  3.982306  0
C  C213  1  0.17696596  0.93531448  0.09026207  1  -0.463077  0  -0.02382  -0.00311  0  3.982354  0
C  C214  1  0.17696322  0.43531439  0.40973656  1  -0.462827  0  -0.023809  -0.003187  0  3.982447  0
C  C215  1  0.82303337  0.06468573  0.90973764  1  -0.463107  0  -0.023836  -0.003141  0  3.982424  0
C  C216  1  0.88581845  0.59939399  0.53028010  1  -0.088002  0  -0.092641  -0.106972  0  3.992127  0
C  C217  1  0.11418032  0.90060285  0.03027794  1  -0.088153  0  -0.092674  -0.107021  0  3.992195  0
C  C218  1  0.11417981  0.40060373  0.46972060  1  -0.088434  0  -0.092688  -0.10694  0  3.992126  0
C  C219  1  0.88581866  0.09939652  0.96972027  1  -0.087991  0  -0.092643  -0.107033  0  3.992267  0
C  C220  1  0.93483393  0.89234560  0.67276922  1  -0.095834  0  -0.245191  -0.372574  0  3.916168  0
C  C221  1  0.06516651  0.60765405  0.17276891  1  -0.096176  0  -0.245218  -0.372596  0  3.916158  0
C  C222  1  0.06516468  0.10765295  0.32723099  1  -0.095891  0  -0.245206  -0.372567  0  3.91616  0
C  C223  1  0.93483525  0.39234616  0.82723130  1  -0.095858  0  -0.245219  -0.372595  0  3.916208  0
C  C224  1  0.87960666  0.52254155  0.48106398  1  -0.070119  0  -0.093907  -0.082729  0  4.032283  0
C  C225  1  0.12039356  0.97745711  0.98106081  1  -0.070001  0  -0.093805  -0.082531  0  4.032172  0
C  C226  1  0.12039546  0.47745949  0.51893773  1  -0.069944  0  -0.093878  -0.082714  0  4.032198  0
C  C227  1  0.87960461  0.02254226  0.01893791  1  -0.070119  0  -0.093858  -0.082617  0  4.032302  0
C  C228  1  0.81173984  0.41006244  0.49216219  1  -0.112681  0  -0.093926  -0.083737  0  4.007887  0
C  C229  1  0.18826124  0.08993621  0.99216150  1  -0.112714  0  -0.094027  -0.083885  0  4.008  0
C  C230  1  0.18826192  0.58993777  0.50783652  1  -0.112637  0  -0.093918  -0.083748  0  4.007929  0
C  C231  1  0.81173971  0.91006400  0.00783721  1  -0.112682  0  -0.093968  -0.083783  0  4.008111  0
C  C232  1  0.75285064  0.45105772  0.60248679  1  -0.572996  0  -0.108019  -0.377566  0  3.944741  0
C  C233  1  0.24714754  0.04894090  0.10248619  1  -0.572768  0  -0.107995  -0.37759  0  3.944737  0
C  C234  1  0.24714690  0.54893834  0.39751292  1  -0.572709  0  -0.10794  -0.377517  0  3.944672  0
C  C235  1  0.75285134  0.95106014  0.89751302  1  -0.572712  0  -0.107955  -0.377594  0  3.944713  0
C  C236  1  0.75051360  0.37566116  0.55216915  1  -0.02698  0  -0.088715  -0.031591  0  4.028988  0
C  C237  1  0.24948401  0.12433652  0.05216709  1  -0.02718  0  -0.088689  -0.031509  0  4.029064  0
C  C238  1  0.24948115  0.62433407  0.44783006  1  -0.027209  0  -0.08878  -0.031648  0  4.029156  0
C  C239  1  0.75051451  0.87566369  0.94783063  1  -0.027272  0  -0.088749  -0.03161  0  4.029126  0
C  C240  1  0.47186338  0.32727340  0.64982004  1  -0.52585  0  -0.105154  -0.371104  0  3.926963  0
C  C241  1  0.52813481  0.17272864  0.14981932  1  -0.525986  0  -0.105144  -0.371026  0  3.927118  0
C  C242  1  0.52814062  0.67273013  0.35017967  1  -0.526052  0  -0.105219  -0.371293  0  3.927224  0
C  C243  1  0.47186281  0.82727322  0.85018039  1  -0.525884  0  -0.105184  -0.371213  0  3.926969  0
C  C244  1  0.41988564  0.22026187  0.62153999  1  -0.136101  0  -0.089214  -0.037931  0  4.034215  0
C  C245  1  0.58011009  0.27973844  0.12153937  1  -0.136121  0  -0.089171  -0.037848  0  4.034217  0
C  C246  1  0.58011810  0.77973917  0.37845872  1  -0.135981  0  -0.089224  -0.037847  0  4.034067  0
C  C247  1  0.41988240  0.72026093  0.87845835  1  -0.136109  0  -0.08922  -0.037912  0  4.034202  0
C  C248  1  0.30408555  0.17542009  0.59713687  1  -0.003828  0  -0.09203  -0.077705  0  4.000813  0
C  C249  1  0.69591439  0.32458266  0.09713739  1  -0.003814  0  -0.092043  -0.077726  0  4.000765  0
C  C250  1  0.69591828  0.82457929  0.40286384  1  -0.003809  0  -0.091982  -0.077752  0  4.000673  0
C  C251  1  0.30408547  0.67542252  0.90286182  1  -0.003853  0  -0.091989  -0.077698  0  4.000874  0
C  C252  1  0.23582237  0.23762746  0.59994715  1  -0.151959  0  -0.09426  -0.087667  0  4.039258  0
C  C253  1  0.76417561  0.26237447  0.09994774  1  -0.151848  0  -0.094201  -0.087631  0  4.039245  0
C  C254  1  0.76417634  0.76236943  0.40005356  1  -0.151937  0  -0.094233  -0.087571  0  4.03932  0
C  C255  1  0.23582470  0.73762988  0.90005247  1  -0.151938  0  -0.09428  -0.087644  0  4.039286  0
Cl  Cl256  1  0.68049410  0.45672931  0.77812663  1  -0.776804  0  -0.119271  -0.340383  0  1.523535  0
Cl  Cl257  1  0.31950761  0.04327053  0.27812563  1  -0.776818  0  -0.119277  -0.340391  0  1.52354  0
Cl  Cl258  1  0.31950730  0.54327007  0.22187358  1  -0.776822  0  -0.119283  -0.340455  0  1.523519  0
Cl  Cl259  1  0.68049218  0.95672885  0.72187359  1  -0.776839  0  -0.119288  -0.34048  0  1.523519  0
Cl  Cl260  1  0.67267137  0.72594809  0.80472027  1  -0.76809  0  -0.154653  -0.367776  0  1.560229  0
Cl  Cl261  1  0.32733080  0.77405267  0.30472033  1  -0.768068  0  -0.154652  -0.367766  0  1.560227  0
Cl  Cl262  1  0.32732653  0.27404880  0.19528044  1  -0.768073  0  -0.154635  -0.367694  0  1.560293  0
Cl  Cl263  1  0.67266827  0.22594505  0.69527838  1  -0.768088  0  -0.154645  -0.367697  0  1.56028  0
