# generated using pymatgen
data_MoH11C14N3O5
_symmetry_space_group_name_H-M   'P 1'
_cell_length_a   7.46282872
_cell_length_b   10.52177537
_cell_length_c   18.49001985
_cell_angle_alpha   106.80419358
_cell_angle_beta   89.99976456
_cell_angle_gamma   90.00034089
_symmetry_Int_Tables_number   1
_chemical_formula_structural   MoH11C14N3O5
_chemical_formula_sum   'Mo4 H44 C56 N12 O20'
_cell_volume   1389.87960810
_cell_formula_units_Z   4
loop_
 _symmetry_equiv_pos_site_id
 _symmetry_equiv_pos_as_xyz
  1  'x, y, z'
loop_
 _atom_site_type_symbol
 _atom_site_label
 _atom_site_symmetry_multiplicity
 _atom_site_fract_x
 _atom_site_fract_y
 _atom_site_fract_z
 _atom_site_occupancy
 _atom_site_hle17_bader_spin_density
 _atom_site_hle17_ddec_charge
 _atom_site_hle17_ddec_spin_density
 _atom_site_hle17_ddec_sum_bond_order
 _atom_site_hle17_magmom
 _atom_site_hse06_10hf_bader_spin_density
 _atom_site_hse06_10hf_ddec_charge
 _atom_site_hse06_10hf_ddec_spin_density
 _atom_site_hse06_10hf_ddec_sum_bond_order
 _atom_site_hse06_10hf_magmom
 _atom_site_hse06_bader_spin_density
 _atom_site_hse06_ddec_charge
 _atom_site_hse06_ddec_spin_density
 _atom_site_hse06_ddec_sum_bond_order
 _atom_site_hse06_magmom
 _atom_site_pbe_bader_spin_density
 _atom_site_pbe_cm5_charge
 _atom_site_pbe_ddec_charge
 _atom_site_pbe_ddec_spin_density
 _atom_site_pbe_ddec_sum_bond_order
 _atom_site_pbe_magmom
Mo  Mo0  1  0.47483310  0.72755246  0.65660448  1  0  1.932185  0  4.182247  0  0  1.895124  0  4.747418  0  0  1.99509  0  4.715993  0  0  1.560229  1.827038  0  4.770609  0
Mo  Mo1  1  0.97483371  0.27244747  0.84339396  1  0  1.93214  0  4.182323  0  0  1.895035  0  4.747614  0  0  1.995005  0  4.71619  0  0  1.560166  1.826948  0  4.770801  0
Mo  Mo2  1  0.52516489  0.27244998  0.34339602  1  0  1.932178  0  4.182229  0  0  1.895116  0  4.747388  0  0  1.995078  0  4.715969  0  0  1.560219  1.827027  0  4.770578  0
Mo  Mo3  1  0.02516965  0.72755300  0.15660677  1  0  1.932076  0  4.182405  0  0  1.89498  0  4.747672  0  0  1.994956  0  4.716231  0  0  1.560162  1.826893  0  4.770856  0
H  H4  1  0.19093501  0.43690330  0.49015145  1  0  0.104124  0  0.927806  0  0  0.116824  0  0.987172  0  0  0.120223  0  0.981652  0  0  0.127842  0.114389  0  0.990896  0
H  H5  1  0.69094003  0.56309334  0.00985006  1  0  0.10407  0  0.927845  0  0  0.116801  0  0.987175  0  0  0.120204  0  0.981653  0  0  0.12782  0.114371  0  0.990883  0
H  H6  1  0.80906031  0.56309318  0.50984811  1  0  0.104058  0  0.927826  0  0  0.116802  0  0.987152  0  0  0.120194  0  0.98165  0  0  0.127821  0.114376  0  0.990852  0
H  H7  1  0.30906600  0.43690617  0.99015268  1  0  0.104103  0  0.927783  0  0  0.116815  0  0.987132  0  0  0.120218  0  0.98161  0  0  0.127818  0.114382  0  0.990851  0
H  H8  1  0.61575351  0.08824392  0.79816538  1  0  0.087723  0  0.940751  0  0  0.097186  0  1.001546  0  0  0.100814  0  0.997195  0  0  0.117745  0.094573  0  1.00459  0
H  H9  1  0.11574862  0.91175059  0.70182685  1  0  0.087679  0  0.940745  0  0  0.097149  0  1.001525  0  0  0.10078  0  0.997172  0  0  0.117687  0.094535  0  1.00457  0
H  H10  1  0.38425253  0.91175351  0.20183216  1  0  0.087693  0  0.940821  0  0  0.097164  0  1.001601  0  0  0.100788  0  0.997251  0  0  0.117715  0.09455  0  1.004646  0
H  H11  1  0.88424133  0.08824679  0.29816798  1  0  0.087708  0  0.940735  0  0  0.097164  0  1.001537  0  0  0.100792  0  0.997184  0  0  0.117729  0.094546  0  1.004583  0
H  H12  1  0.70368836  0.45503702  0.76262766  1  0  0.079327  0  0.977998  0  0  0.086737  0  1.043665  0  0  0.089635  0  1.040831  0  0  0.116277  0.084674  0  1.045608  0
H  H13  1  0.20368810  0.54496291  0.73737177  1  0  0.079261  0  0.978029  0  0  0.086703  0  1.043715  0  0  0.089603  0  1.040873  0  0  0.116241  0.084639  0  1.045659  0
H  H14  1  0.29630830  0.54496442  0.23737268  1  0  0.079258  0  0.978054  0  0  0.086722  0  1.0437  0  0  0.089621  0  1.040861  0  0  0.116279  0.084658  0  1.045643  0
H  H15  1  0.79631257  0.45504056  0.26263052  1  0  0.079285  0  0.978056  0  0  0.086687  0  1.043751  0  0  0.089585  0  1.040915  0  0  0.116245  0.084624  0  1.045693  0
H  H16  1  0.08170510  0.50866811  0.39166203  1  0  0.103138  0  0.942696  0  0  0.113579  0  1.003764  0  0  0.116218  0  1.00298  0  0  0.101724  0.111635  0  1.004519  0
H  H17  1  0.58170452  0.49132416  0.10833896  1  0  0.103167  0  0.942658  0  0  0.113595  0  1.003747  0  0  0.11623  0  1.002964  0  0  0.101758  0.111635  0  1.004506  0
H  H18  1  0.91829289  0.49133333  0.60833777  1  0  0.103069  0  0.942787  0  0  0.113505  0  1.003854  0  0  0.116143  0  1.003069  0  0  0.101713  0.111561  0  1.004609  0
H  H19  1  0.41829213  0.50867034  0.89166028  1  0  0.103137  0  0.942681  0  0  0.113576  0  1.00375  0  0  0.116215  0  1.002964  0  0  0.10175  0.111632  0  1.004509  0
H  H20  1  0.11847705  0.91493475  0.38936281  1  0  0.118412  0  0.946312  0  0  0.130676  0  1.003663  0  0  0.134202  0  1.001008  0  0  0.109568  0.128171  0  1.005493  0
H  H21  1  0.61847440  0.08505659  0.11063473  1  0  0.118415  0  0.946285  0  0  0.130671  0  1.003651  0  0  0.134206  0  1.000982  0  0  0.109549  0.128155  0  1.005495  0
H  H22  1  0.88153033  0.08506373  0.61063760  1  0  0.118463  0  0.94629  0  0  0.130724  0  1.003644  0  0  0.134254  0  1.000985  0  0  0.109567  0.128209  0  1.005488  0
H  H23  1  0.38152360  0.91493889  0.88936413  1  0  0.118374  0  0.946283  0  0  0.130633  0  1.003647  0  0  0.13416  0  1.00099  0  0  0.10954  0.128126  0  1.005479  0
H  H24  1  0.35944758  0.05954704  0.43194257  1  0  0.085651  0  0.953443  0  0  0.096584  0  1.0277  0  0  0.097422  0  1.027182  0  0  0.095963  0.095779  0  1.028251  0
H  H25  1  0.85944578  0.94045010  0.06805224  1  0  0.08567  0  0.953175  0  0  0.096569  0  1.027488  0  0  0.097407  0  1.026971  0  0  0.095939  0.095763  0  1.028043  0
H  H26  1  0.64055578  0.94045536  0.56805576  1  0  0.085704  0  0.953305  0  0  0.096636  0  1.027578  0  0  0.097475  0  1.027051  0  0  0.095975  0.095831  0  1.02813  0
H  H27  1  0.14055221  0.05954532  0.93194335  1  0  0.085676  0  0.95333  0  0  0.096618  0  1.027589  0  0  0.097457  0  1.027065  0  0  0.095955  0.095808  0  1.02814  0
H  H28  1  0.33846233  0.18617488  0.52046697  1  0  0.097343  0  0.962778  0  0  0.107121  0  1.040147  0  0  0.108419  0  1.03893  0  0  0.09877  0.106195  0  1.040701  0
H  H29  1  0.83846072  0.81381857  0.97952958  1  0  0.097279  0  0.962786  0  0  0.107055  0  1.04011  0  0  0.108354  0  1.038895  0  0  0.098754  0.106126  0  1.040664  0
H  H30  1  0.66153969  0.81382452  0.47952980  1  0  0.097332  0  0.962868  0  0  0.107162  0  1.040155  0  0  0.108418  0  1.038974  0  0  0.098771  0.106234  0  1.040709  0
H  H31  1  0.16153862  0.18617691  0.02046927  1  0  0.097335  0  0.962805  0  0  0.10715  0  1.040102  0  0  0.108422  0  1.038907  0  0  0.098772  0.106219  0  1.040657  0
H  H32  1  0.14146460  0.11551520  0.47012393  1  0  0.07756  0  0.953093  0  0  0.094425  0  1.018569  0  0  0.093974  0  1.019692  0  0  0.092121  0.094618  0  1.017792  0
H  H33  1  0.64146405  0.88447624  0.02987413  1  0  0.07761  0  0.953168  0  0  0.094422  0  1.018678  0  0  0.093975  0  1.019799  0  0  0.09213  0.094616  0  1.017902  0
H  H34  1  0.85853474  0.88448523  0.52987517  1  0  0.077593  0  0.953105  0  0  0.094456  0  1.018584  0  0  0.094006  0  1.019702  0  0  0.092125  0.09465  0  1.017808  0
H  H35  1  0.35853528  0.11551627  0.97012425  1  0  0.077568  0  0.953128  0  0  0.094428  0  1.01861  0  0  0.093981  0  1.019726  0  0  0.092106  0.094619  0  1.017836  0
H  H36  1  0.02166860  0.68557985  0.32920452  1  0  0.102131  0  0.976295  0  0  0.107129  0  1.045982  0  0  0.110591  0  1.043967  0  0  0.099099  0.104687  0  1.04752  0
H  H37  1  0.52166190  0.31440918  0.17079390  1  0  0.102161  0  0.976183  0  0  0.107183  0  1.045858  0  0  0.110645  0  1.04384  0  0  0.099113  0.104738  0  1.047397  0
H  H38  1  0.97834012  0.31442059  0.67079458  1  0  0.102153  0  0.97624  0  0  0.107168  0  1.045912  0  0  0.110623  0  1.043895  0  0  0.099119  0.104726  0  1.047449  0
H  H39  1  0.47833342  0.68558533  0.82920588  1  0  0.102145  0  0.976277  0  0  0.107153  0  1.045963  0  0  0.11061  0  1.043945  0  0  0.099107  0.104706  0  1.047505  0
H  H40  1  0.26986853  0.21404687  0.64531279  1  0  0.110383  0  0.943718  0  0  0.121732  0  1.005088  0  0  0.124831  0  1.002237  0  0  0.117142  0.119529  0  1.007121  0
H  H41  1  0.76987330  0.78595726  0.85468666  1  0  0.110455  0  0.943674  0  0  0.121786  0  1.005045  0  0  0.124884  0  1.002194  0  0  0.117143  0.119591  0  1.007069  0
H  H42  1  0.73013483  0.78595553  0.35468554  1  0  0.110375  0  0.943747  0  0  0.121733  0  1.005107  0  0  0.124831  0  1.002254  0  0  0.117149  0.119544  0  1.007123  0
H  H43  1  0.23013006  0.21404915  0.14531447  1  0  0.110392  0  0.943621  0  0  0.121737  0  1.005  0  0  0.124836  0  1.002145  0  0  0.117133  0.119538  0  1.007031  0
H  H44  1  0.35451502  0.04519137  0.71140527  1  0  0.113375  0  0.962751  0  0  0.11969  0  1.028027  0  0  0.123495  0  1.025898  0  0  0.109844  0.117068  0  1.029617  0
H  H45  1  0.85451382  0.95480308  0.78858872  1  0  0.11331  0  0.962875  0  0  0.119687  0  1.028042  0  0  0.123502  0  1.025918  0  0  0.109866  0.117066  0  1.029633  0
H  H46  1  0.64548834  0.95480705  0.28859189  1  0  0.113306  0  0.962771  0  0  0.11965  0  1.028006  0  0  0.12346  0  1.02588  0  0  0.109849  0.117029  0  1.029597  0
H  H47  1  0.14548016  0.04519533  0.21140790  1  0  0.113271  0  0.962791  0  0  0.119653  0  1.027994  0  0  0.12346  0  1.025866  0  0  0.109863  0.11703  0  1.029587  0
C  C48  1  0.44770012  0.45372769  0.66438111  1  0  0.443105  0  3.856753  0  0  0.410168  0  4.145371  0  0  0.435271  0  4.149855  0  0  0.219375  0.393233  0  4.141906  0
C  C49  1  0.94770041  0.54627313  0.83561751  1  0  0.443175  0  3.856636  0  0  0.410282  0  4.145199  0  0  0.435384  0  4.149682  0  0  0.21944  0.39335  0  4.141735  0
C  C50  1  0.55230592  0.54627370  0.33561652  1  0  0.443212  0  3.85656  0  0  0.41023  0  4.145211  0  0  0.43533  0  4.149698  0  0  0.219456  0.393291  0  4.141746  0
C  C51  1  0.05230027  0.45373232  0.16438509  1  0  0.443238  0  3.856515  0  0  0.41025  0  4.14519  0  0  0.435356  0  4.14967  0  0  0.219428  0.393312  0  4.14173  0
C  C52  1  0.26035764  0.77522505  0.52547372  1  0  0.225134  0  3.76663  0  0  0.214579  0  4.027957  0  0  0.228294  0  4.042564  0  0  0.086604  0.205117  0  4.01813  0
C  C53  1  0.76035922  0.22477113  0.97452557  1  0  0.224889  0  3.76687  0  0  0.214326  0  4.02816  0  0  0.228041  0  4.042763  0  0  0.086489  0.204873  0  4.018318  0
C  C54  1  0.73963098  0.22478045  0.47453106  1  0  0.225135  0  3.766605  0  0  0.214553  0  4.027933  0  0  0.228266  0  4.042534  0  0  0.086556  0.205096  0  4.01809  0
C  C55  1  0.23964414  0.77522735  0.02547485  1  0  0.225009  0  3.766643  0  0  0.214458  0  4.027986  0  0  0.228169  0  4.042598  0  0  0.086565  0.204995  0  4.018153  0
C  C56  1  0.20818000  0.64256874  0.48925591  1  0  -0.07815  0  3.84221  0  0  -0.068046  0  4.092867  0  0  -0.078225  0  4.118462  0  0  -0.029321  -0.061457  0  4.075685  0
C  C57  1  0.70819000  0.35742799  0.01074667  1  0  -0.07823  0  3.842252  0  0  -0.068086  0  4.092834  0  0  -0.078268  0  4.118428  0  0  -0.029343  -0.061498  0  4.075635  0
C  C58  1  0.79180727  0.35743574  0.51074762  1  0  -0.078228  0  3.842127  0  0  -0.068161  0  4.092843  0  0  -0.078341  0  4.118433  0  0  -0.029286  -0.06157  0  4.075658  0
C  C59  1  0.29181871  0.64257052  0.98925537  1  0  -0.078208  0  3.842141  0  0  -0.068104  0  4.092798  0  0  -0.078287  0  4.118399  0  0  -0.029342  -0.061512  0  4.075613  0
C  C60  1  0.48282292  0.34783253  0.69958851  1  0  -0.078135  0  3.764794  0  0  -0.052001  0  3.991503  0  0  -0.063059  0  4.014638  0  0  -0.003521  -0.045081  0  3.976238  0
C  C61  1  0.98282577  0.65216844  0.80041116  1  0  -0.078154  0  3.764766  0  0  -0.051999  0  3.991487  0  0  -0.063057  0  4.014619  0  0  -0.003581  -0.045079  0  3.976219  0
C  C62  1  0.51718446  0.65216587  0.30040811  1  0  -0.07799  0  3.764616  0  0  -0.051816  0  3.991342  0  0  -0.062873  0  4.014477  0  0  -0.003489  -0.044889  0  3.976079  0
C  C63  1  0.01717490  0.34783602  0.19959128  1  0  -0.078189  0  3.76493  0  0  -0.052009  0  3.991605  0  0  -0.063078  0  4.014751  0  0  -0.003492  -0.045081  0  3.976337  0
C  C64  1  0.24290216  0.53500194  0.52041837  1  0  0.157021  0  3.630782  0  0  0.113792  0  3.89899  0  0  0.132812  0  3.90399  0  0  0.080902  0.101248  0  3.895427  0
C  C65  1  0.74290837  0.46499618  0.97958233  1  0  0.157094  0  3.630841  0  0  0.113841  0  3.899007  0  0  0.132861  0  3.904008  0  0  0.080928  0.101298  0  3.895443  0
C  C66  1  0.75709316  0.46499851  0.47958181  1  0  0.15711  0  3.630781  0  0  0.113864  0  3.898993  0  0  0.132882  0  3.903989  0  0  0.080921  0.101318  0  3.895436  0
C  C67  1  0.25709499  0.53500431  0.02041948  1  0  0.157059  0  3.630823  0  0  0.113837  0  3.898994  0  0  0.132855  0  3.903996  0  0  0.080896  0.101291  0  3.895432  0
C  C68  1  0.22868928  0.87458125  0.48878200  1  0  0.167379  0  3.777239  0  0  0.155785  0  4.034859  0  0  0.162156  0  4.050978  0  0  0.080954  0.151114  0  4.024138  0
C  C69  1  0.72868931  0.12541347  0.01121535  1  0  0.167574  0  3.777167  0  0  0.156005  0  4.034638  0  0  0.162379  0  4.050754  0  0  0.081126  0.151328  0  4.023911  0
C  C70  1  0.77130202  0.12541920  0.51121819  1  0  0.167387  0  3.777355  0  0  0.155874  0  4.034804  0  0  0.16225  0  4.05092  0  0  0.081081  0.151201  0  4.024078  0
C  C71  1  0.27130869  0.87458397  0.98878219  1  0  0.167383  0  3.77713  0  0  0.155781  0  4.034716  0  0  0.162156  0  4.050836  0  0  0.081027  0.151111  0  4.02399  0
C  C72  1  0.57525591  0.16107857  0.76973871  1  0  0.150301  0  3.66351  0  0  0.122176  0  3.915419  0  0  0.131901  0  3.929645  0  0  0.054745  0.116107  0  3.905497  0
C  C73  1  0.07525147  0.83892080  0.73025652  1  0  0.150328  0  3.663487  0  0  0.122194  0  3.91538  0  0  0.131914  0  3.929616  0  0  0.054782  0.116124  0  3.90546  0
C  C74  1  0.42475013  0.83892183  0.23025822  1  0  0.150329  0  3.663365  0  0  0.122195  0  3.915273  0  0  0.131925  0  3.929499  0  0  0.054821  0.116123  0  3.905354  0
C  C75  1  0.92474251  0.16108057  0.26974002  1  0  0.150364  0  3.663454  0  0  0.122247  0  3.915371  0  0  0.131973  0  3.929597  0  0  0.054787  0.116177  0  3.905451  0
C  C76  1  0.62510256  0.36467407  0.75059412  1  0  0.130257  0  3.681315  0  0  0.096486  0  3.929818  0  0  0.106034  0  3.945778  0  0  0.052057  0.090662  0  3.918641  0
C  C77  1  0.12510160  0.63532652  0.74940338  1  0  0.130406  0  3.681408  0  0  0.096508  0  3.930043  0  0  0.106061  0  3.945998  0  0  0.052163  0.090684  0  3.918865  0
C  C78  1  0.37490348  0.63532533  0.24940265  1  0  0.130268  0  3.681405  0  0  0.096401  0  3.92997  0  0  0.105952  0  3.945928  0  0  0.052074  0.090572  0  3.918794  0
C  C79  1  0.87489640  0.36467691  0.25059728  1  0  0.130253  0  3.681433  0  0  0.096471  0  3.92995  0  0  0.106023  0  3.945907  0  0  0.052078  0.090641  0  3.918776  0
C  C80  1  0.12040654  0.61143497  0.41849029  1  0  -0.089716  0  3.737511  0  0  -0.121507  0  4.007981  0  0  -0.121952  0  4.029974  0  0  -0.094193  -0.120865  0  3.992867  0
C  C81  1  0.62041207  0.38855942  0.08151097  1  0  -0.089688  0  3.737421  0  0  -0.121475  0  4.007869  0  0  -0.121941  0  4.029908  0  0  -0.094247  -0.120815  0  3.992761  0
C  C82  1  0.87958342  0.38857149  0.58151355  1  0  -0.089531  0  3.737278  0  0  -0.121307  0  4.007776  0  0  -0.121756  0  4.029783  0  0  -0.094186  -0.120665  0  3.992666  0
C  C83  1  0.37959129  0.61143509  0.91848881  1  0  -0.089589  0  3.737385  0  0  -0.121374  0  4.007868  0  0  -0.12182  0  4.029865  0  0  -0.094155  -0.120735  0  3.992763  0
C  C84  1  0.14360111  0.84001376  0.41824847  1  0  -0.154053  0  3.726443  0  0  -0.181213  0  3.986295  0  0  -0.182595  0  4.005158  0  0  -0.097461  -0.179796  0  3.973228  0
C  C85  1  0.64360340  0.15997670  0.08174942  1  0  -0.154238  0  3.726398  0  0  -0.18144  0  3.986281  0  0  -0.182822  0  4.005123  0  0  -0.097544  -0.180018  0  3.97323  0
C  C86  1  0.85639287  0.15998772  0.58175350  1  0  -0.15425  0  3.726679  0  0  -0.181454  0  3.98652  0  0  -0.182832  0  4.005366  0  0  -0.097555  -0.180026  0  3.973458  0
C  C87  1  0.35639728  0.84001578  0.91824787  1  0  -0.154035  0  3.726413  0  0  -0.1812  0  3.986281  0  0  -0.182581  0  4.005135  0  0  -0.097493  -0.179783  0  3.973215  0
C  C88  1  0.27982351  0.09501116  0.48380738  1  0  -0.080436  0  3.620095  0  0  -0.177214  0  3.888905  0  0  -0.169958  0  3.891947  0  0  -0.149111  -0.181812  0  3.886479  0
C  C89  1  0.77981791  0.90498174  0.01618852  1  0  -0.0804  0  3.619967  0  0  -0.17714  0  3.888726  0  0  -0.169885  0  3.891758  0  0  -0.149078  -0.181744  0  3.886304  0
C  C90  1  0.72017851  0.90498529  0.51619055  1  0  -0.080538  0  3.620142  0  0  -0.177377  0  3.888927  0  0  -0.170087  0  3.892011  0  0  -0.149121  -0.181974  0  3.8865  0
C  C91  1  0.22017875  0.09501272  0.98380909  1  0  -0.08048  0  3.620073  0  0  -0.177296  0  3.888873  0  0  -0.170026  0  3.891948  0  0  -0.149079  -0.181893  0  3.886445  0
C  C92  1  0.08816868  0.70944924  0.38385121  1  0  -0.06286  0  3.795914  0  0  -0.084412  0  4.070838  0  0  -0.087069  0  4.091891  0  0  -0.101193  -0.082696  0  4.056331  0
C  C93  1  0.58817707  0.29054305  0.11614978  1  0  -0.062857  0  3.795655  0  0  -0.084402  0  4.070491  0  0  -0.087069  0  4.091564  0  0  -0.101189  -0.082689  0  4.055976  0
C  C94  1  0.91181994  0.29055422  0.61615108  1  0  -0.062868  0  3.795766  0  0  -0.084446  0  4.070703  0  0  -0.0871  0  4.091759  0  0  -0.101194  -0.08273  0  4.056198  0
C  C95  1  0.41182629  0.70945147  0.88385055  1  0  -0.062957  0  3.795936  0  0  -0.084519  0  4.070849  0  0  -0.087181  0  4.091918  0  0  -0.101237  -0.082804  0  4.056352  0
C  C96  1  0.38258839  0.23057487  0.68420093  1  0  0.00538  0  3.637279  0  0  -0.026991  0  3.8851  0  0  -0.019787  0  3.899245  0  0  -0.048768  -0.031605  0  3.875478  0
C  C97  1  0.88258940  0.76942769  0.81579754  1  0  0.005128  0  3.63726  0  0  -0.027256  0  3.885122  0  0  -0.020051  0  3.899264  0  0  -0.048843  -0.031874  0  3.875494  0
C  C98  1  0.61742032  0.76942552  0.31579546  1  0  0.005162  0  3.637412  0  0  -0.027236  0  3.885275  0  0  -0.020034  0  3.899426  0  0  -0.048884  -0.031863  0  3.875645  0
C  C99  1  0.11741128  0.23057871  0.18420305  1  0  0.005422  0  3.637219  0  0  -0.026968  0  3.885048  0  0  -0.019766  0  3.899205  0  0  -0.048762  -0.031584  0  3.875414  0
C  C100  1  0.42932077  0.13697876  0.72073943  1  0  -0.095742  0  3.697167  0  0  -0.10781  0  3.950418  0  0  -0.114562  0  3.968171  0  0  -0.073416  -0.10361  0  3.938648  0
C  C101  1  0.92932158  0.86302095  0.77925635  1  0  -0.095512  0  3.697176  0  0  -0.107576  0  3.950323  0  0  -0.114341  0  3.968084  0  0  -0.073326  -0.103378  0  3.938557  0
C  C102  1  0.57068259  0.86302066  0.27925789  1  0  -0.09545  0  3.697156  0  0  -0.107521  0  3.950367  0  0  -0.114282  0  3.968124  0  0  -0.073331  -0.103322  0  3.938604  0
C  C103  1  0.07067910  0.13698442  0.22074245  1  0  -0.095609  0  3.697153  0  0  -0.107706  0  3.950365  0  0  -0.114464  0  3.968122  0  0  -0.073392  -0.103505  0  3.938598  0
N  N104  1  0.33743710  0.54471927  0.58103399  1  0  -0.264666  0  3.365529  0  0  -0.225211  0  3.665777  0  0  -0.24494  0  3.689575  0  0  -0.264154  -0.21216  0  3.649825  0
N  N105  1  0.83744383  0.45528019  0.91896677  1  0  -0.264649  0  3.365523  0  0  -0.225196  0  3.665788  0  0  -0.244924  0  3.689586  0  0  -0.264168  -0.212148  0  3.649835  0
N  N106  1  0.66255420  0.45528220  0.41896744  1  0  -0.264599  0  3.36546  0  0  -0.225177  0  3.665761  0  0  -0.244902  0  3.689556  0  0  -0.264199  -0.212128  0  3.64981  0
N  N107  1  0.16256087  0.54472128  0.08103466  1  0  -0.26467  0  3.365574  0  0  -0.225219  0  3.66583  0  0  -0.244948  0  3.689625  0  0  -0.264136  -0.212169  0  3.649876  0
N  N108  1  0.67339603  0.27314985  0.78413579  1  0  -0.367592  0  3.279855  0  0  -0.321109  0  3.552124  0  0  -0.341805  0  3.574587  0  0  -0.335632  -0.307123  0  3.536479  0
N  N109  1  0.17339349  0.72684890  0.71585972  1  0  -0.367644  0  3.280048  0  0  -0.321138  0  3.552379  0  0  -0.341836  0  3.574842  0  0  -0.335677  -0.307155  0  3.536736  0
N  N110  1  0.32660733  0.72684957  0.21586207  1  0  -0.367675  0  3.279891  0  0  -0.32118  0  3.552219  0  0  -0.341877  0  3.574677  0  0  -0.335714  -0.307195  0  3.536575  0
N  N111  1  0.82660183  0.27315351  0.28413915  1  0  -0.367663  0  3.279962  0  0  -0.32122  0  3.55228  0  0  -0.341914  0  3.574739  0  0  -0.335721  -0.307241  0  3.536642  0
N  N112  1  0.35412455  0.42960523  0.60212598  1  0  -0.315434  0  2.963686  0  0  -0.299391  0  3.258045  0  0  -0.313777  0  3.274803  0  0  -0.237121  -0.289499  0  3.246314  0
N  N113  1  0.85412174  0.57039326  0.89787243  1  0  -0.315444  0  2.963637  0  0  -0.299436  0  3.257995  0  0  -0.313822  0  3.274752  0  0  -0.237131  -0.289542  0  3.246264  0
N  N114  1  0.64587478  0.57039521  0.39787366  1  0  -0.315522  0  2.96364  0  0  -0.299468  0  3.258042  0  0  -0.31385  0  3.274788  0  0  -0.237138  -0.289576  0  3.246311  0
N  N115  1  0.14587358  0.42960820  0.10212845  1  0  -0.315421  0  2.963543  0  0  -0.299388  0  3.25795  0  0  -0.313769  0  3.274693  0  0  -0.2371  -0.289495  0  3.24622  0
O  O116  1  0.33841767  0.81178502  0.59402274  1  0  -0.561111  0  2.234452  0  0  -0.529895  0  2.518132  0  0  -0.562632  0  2.520232  0  0  -0.348886  -0.506943  0  2.516118  0
O  O117  1  0.83841963  0.18821142  0.90597538  1  0  -0.560984  0  2.234539  0  0  -0.529835  0  2.518273  0  0  -0.562578  0  2.520388  0  0  -0.348872  -0.506883  0  2.516253  0
O  O118  1  0.66157631  0.18821546  0.40597907  1  0  -0.561144  0  2.23438  0  0  -0.529888  0  2.517973  0  0  -0.562646  0  2.520132  0  0  -0.348881  -0.506932  0  2.515957  0
O  O119  1  0.16158775  0.81178604  0.09402379  1  0  -0.561033  0  2.234479  0  0  -0.529854  0  2.51822  0  0  -0.562589  0  2.520307  0  0  -0.348898  -0.506897  0  2.516198  0
O  O120  1  0.51084272  0.57371085  0.70018683  1  0  -0.600631  0  2.134462  0  0  -0.558506  0  2.399307  0  0  -0.590618  0  2.399156  0  0  -0.333797  -0.53647  0  2.399277  0
O  O121  1  0.01085425  0.42629139  0.79981546  1  0  -0.60075  0  2.134543  0  0  -0.558564  0  2.399266  0  0  -0.590676  0  2.399111  0  0  -0.333843  -0.536535  0  2.399241  0
O  O122  1  0.48915662  0.42628665  0.29981397  1  0  -0.600755  0  2.134468  0  0  -0.558596  0  2.399319  0  0  -0.590709  0  2.39917  0  0  -0.333859  -0.536559  0  2.399291  0
O  O123  1  0.98915313  0.57371406  0.20018714  1  0  -0.600699  0  2.134431  0  0  -0.558536  0  2.39929  0  0  -0.590649  0  2.399136  0  0  -0.333892  -0.536507  0  2.39927  0
O  O124  1  0.50269127  0.85169419  0.74031422  1  0  -0.66406  0  1.465405  0  0  -0.655642  0  1.720212  0  0  -0.683627  0  1.714057  0  0  -0.513552  -0.636913  0  1.724898  0
O  O125  1  0.00269285  0.14830499  0.75968488  1  0  -0.664017  0  1.465496  0  0  -0.655615  0  1.720359  0  0  -0.683598  0  1.714187  0  0  -0.513523  -0.636894  0  1.725046  0
O  O126  1  0.49730673  0.14830727  0.25968666  1  0  -0.664035  0  1.465323  0  0  -0.65563  0  1.720153  0  0  -0.6836  0  1.71397  0  0  -0.513553  -0.636899  0  1.724837  0
O  O127  1  0.99730917  0.85169744  0.24031453  1  0  -0.664019  0  1.465522  0  0  -0.655592  0  1.720352  0  0  -0.683574  0  1.714179  0  0  -0.513514  -0.63687  0  1.725039  0
O  O128  1  0.28497256  0.99921234  0.52583186  1  0  -0.22931  0  2.348146  0  0  -0.152809  0  2.583769  0  0  -0.171122  0  2.588921  0  0  -0.184374  -0.140144  0  2.579897  0
O  O129  1  0.78496290  0.00078090  0.97416421  1  0  -0.229289  0  2.348044  0  0  -0.152665  0  2.583499  0  0  -0.170977  0  2.588651  0  0  -0.184346  -0.139998  0  2.579627  0
O  O130  1  0.71503079  0.00078511  0.47416623  1  0  -0.229205  0  2.348127  0  0  -0.152677  0  2.583688  0  0  -0.170986  0  2.588822  0  0  -0.184362  -0.140011  0  2.579815  0
O  O131  1  0.21503242  0.99921459  0.02583518  1  0  -0.229249  0  2.348077  0  0  -0.152695  0  2.58366  0  0  -0.171007  0  2.588802  0  0  -0.184365  -0.140027  0  2.579782  0
O  O132  1  0.67737576  0.70948605  0.61075433  1  0  -0.648014  0  1.468659  0  0  -0.638021  0  1.718625  0  0  -0.665626  0  1.712153  0  0  -0.506439  -0.619634  0  1.723151  0
O  O133  1  0.17737321  0.29051380  0.88924567  1  0  -0.64797  0  1.468624  0  0  -0.637976  0  1.718615  0  0  -0.665585  0  1.712142  0  0  -0.506395  -0.619588  0  1.723138  0
O  O134  1  0.32262358  0.29051342  0.38924570  1  0  -0.648038  0  1.468656  0  0  -0.638047  0  1.718622  0  0  -0.665654  0  1.712148  0  0  -0.506443  -0.619657  0  1.723149  0
O  O135  1  0.82263149  0.70948666  0.11075451  1  0  -0.647943  0  1.46866  0  0  -0.637961  0  1.71865  0  0  -0.665572  0  1.712175  0  0  -0.5064  -0.61958  0  1.723172  0
