# generated using pymatgen
data_HgP2H18Au2(C3F2)10
_symmetry_space_group_name_H-M   'P 1'
_cell_length_a   10.47212077
_cell_length_b   10.99933988
_cell_length_c   18.19440045
_cell_angle_alpha   106.97644043
_cell_angle_beta   90.01218370
_cell_angle_gamma   118.42194696
_symmetry_Int_Tables_number   1
_chemical_formula_structural   HgP2H18Au2(C3F2)10
_chemical_formula_sum   'Hg2 P4 H36 Au4 C60 F40'
_cell_volume   1738.52408256
_cell_formula_units_Z   2
loop_
 _symmetry_equiv_pos_site_id
 _symmetry_equiv_pos_as_xyz
  1  'x, y, z'
loop_
 _atom_site_type_symbol
 _atom_site_label
 _atom_site_symmetry_multiplicity
 _atom_site_fract_x
 _atom_site_fract_y
 _atom_site_fract_z
 _atom_site_occupancy
 _atom_site_hle17_bader_spin_density
 _atom_site_hle17_ddec_charge
 _atom_site_hle17_ddec_spin_density
 _atom_site_hle17_ddec_sum_bond_order
 _atom_site_hle17_magmom
 _atom_site_hse06_10hf_bader_spin_density
 _atom_site_hse06_10hf_ddec_charge
 _atom_site_hse06_10hf_ddec_spin_density
 _atom_site_hse06_10hf_ddec_sum_bond_order
 _atom_site_hse06_10hf_magmom
 _atom_site_hse06_bader_spin_density
 _atom_site_hse06_ddec_charge
 _atom_site_hse06_ddec_spin_density
 _atom_site_hse06_ddec_sum_bond_order
 _atom_site_hse06_magmom
 _atom_site_pbe_bader_spin_density
 _atom_site_pbe_cm5_charge
 _atom_site_pbe_ddec_charge
 _atom_site_pbe_ddec_spin_density
 _atom_site_pbe_ddec_sum_bond_order
 _atom_site_pbe_magmom
Hg  Hg0  1  0.00000150  0.00000110  0.00000019  1  0  0.617673  0  2.082843  0  0  0.485882  0  2.558834  0  0  0.517167  0  2.531556  0  0  0.447303  0.465446  0  2.575783  0
Hg  Hg1  1  0.99999920  0.99999922  0.49999964  1  0  0.616918  0  2.080142  0  0  0.484976  0  2.555951  0  0  0.515298  0  2.530588  0  0  0.446541  0.464537  0  2.572926  0
P  P2  1  0.31112593  0.22628209  0.85869462  1  0  0.660834  0  3.896131  0  0  0.637248  0  4.388687  0  0  0.647155  0  4.388214  0  0  -0.017801  0.631087  0  4.387762  0
P  P3  1  0.08497280  0.77376477  0.64130393  1  0  0.661989  0  3.895982  0  0  0.638072  0  4.389335  0  0  0.648081  0  4.388544  0  0  -0.017518  0.631861  0  4.388513  0
P  P4  1  0.68887476  0.77371897  0.14130536  1  0  0.660837  0  3.896095  0  0  0.637238  0  4.388666  0  0  0.647146  0  4.38818  0  0  -0.017837  0.631063  0  4.387742  0
P  P5  1  0.91502639  0.22623519  0.35869695  1  0  0.661971  0  3.895969  0  0  0.638067  0  4.389322  0  0  0.648079  0  4.388535  0  0  -0.017534  0.631859  0  4.388499  0
H  H6  1  0.51138967  0.30200324  0.78522593  1  0  0.156546  0  0.953713  0  0  0.169938  0  1.017155  0  0  0.172923  0  1.015485  0  0  0.094977  0.168096  0  1.018295  0
H  H7  1  0.20944638  0.69805666  0.71483438  1  0  0.156117  0  0.95413  0  0  0.169702  0  1.017259  0  0  0.172458  0  1.016083  0  0  0.094956  0.167895  0  1.018356  0
H  H8  1  0.48861047  0.69799672  0.21477440  1  0  0.156541  0  0.953682  0  0  0.17001  0  1.016956  0  0  0.172913  0  1.015482  0  0  0.094979  0.168085  0  1.018285  0
H  H9  1  0.79055281  0.30194330  0.28516650  1  0  0.156097  0  0.954128  0  0  0.169708  0  1.017219  0  0  0.172462  0  1.016051  0  0  0.094951  0.167899  0  1.018318  0
H  H10  1  0.33589145  0.21850553  0.72545585  1  0  0.14844  0  0.958416  0  0  0.165922  0  1.022611  0  0  0.167623  0  1.02294  0  0  0.091841  0.164753  0  1.022436  0
H  H11  1  0.11743221  0.78155207  0.77455139  1  0  0.148257  0  0.958562  0  0  0.165735  0  1.022746  0  0  0.167685  0  1.022659  0  0  0.091817  0.164547  0  1.022621  0
H  H12  1  0.66410829  0.78149552  0.27454412  1  0  0.148477  0  0.958501  0  0  0.165973  0  1.022677  0  0  0.167673  0  1.023003  0  0  0.091873  0.164803  0  1.022491  0
H  H13  1  0.88256753  0.21844898  0.22544913  1  0  0.14826  0  0.958575  0  0  0.165754  0  1.022724  0  0  0.167704  0  1.022641  0  0  0.091829  0.164566  0  1.022596  0
H  H14  1  0.39565064  0.10810498  0.75235608  1  0  0.141027  0  0.976824  0  0  0.15916  0  1.03726  0  0  0.161198  0  1.036978  0  0  0.092447  0.158139  0  1.036798  0
H  H15  1  0.28761665  0.89196931  0.74770997  1  0  0.140679  0  0.977432  0  0  0.159392  0  1.037158  0  0  0.161123  0  1.037314  0  0  0.09254  0.158375  0  1.03671  0
H  H16  1  0.60434991  0.89189388  0.24764460  1  0  0.141042  0  0.976801  0  0  0.159172  0  1.037264  0  0  0.161208  0  1.036975  0  0  0.092456  0.158149  0  1.036795  0
H  H17  1  0.71238254  0.10803065  0.25228927  1  0  0.140656  0  0.97745  0  0  0.159373  0  1.037176  0  0  0.161104  0  1.037332  0  0  0.092536  0.158356  0  1.036726  0
H  H18  1  0.54074981  0.29751387  0.93407697  1  0  0.152022  0  0.956806  0  0  0.166522  0  1.019763  0  0  0.169161  0  1.018805  0  0  0.093581  0.164957  0  1.020243  0
H  H19  1  0.24330024  0.70243616  0.56592167  1  0  0.151188  0  0.957235  0  0  0.166114  0  1.019838  0  0  0.168366  0  1.01936  0  0  0.09347  0.16458  0  1.020243  0
H  H20  1  0.45924993  0.70248718  0.06592356  1  0  0.151844  0  0.95712  0  0  0.166762  0  1.019488  0  0  0.169162  0  1.018808  0  0  0.093581  0.164962  0  1.020246  0
H  H21  1  0.75669895  0.29756381  0.43407811  1  0  0.151237  0  0.957209  0  0  0.166144  0  1.019842  0  0  0.168396  0  1.019367  0  0  0.093486  0.164614  0  1.020244  0
H  H22  1  0.41314700  0.10682647  0.91169063  1  0  0.155655  0  0.964065  0  0  0.170228  0  1.027235  0  0  0.172928  0  1.025828  0  0  0.093916  0.16859  0  1.027893  0
H  H23  1  0.30637077  0.89313696  0.58829817  1  0  0.156465  0  0.962922  0  0  0.17059  0  1.026681  0  0  0.173604  0  1.024858  0  0  0.094098  0.168949  0  1.027337  0
H  H24  1  0.58685274  0.89317459  0.08830989  1  0  0.155667  0  0.9641  0  0  0.170242  0  1.027225  0  0  0.172941  0  1.025807  0  0  0.093915  0.168599  0  1.027874  0
H  H25  1  0.69362897  0.10686410  0.41170235  1  0  0.156486  0  0.962897  0  0  0.170609  0  1.026662  0  0  0.173623  0  1.024837  0  0  0.094102  0.168968  0  1.027318  0
H  H26  1  0.39017403  0.23727109  0.98647210  1  0  0.145696  0  0.954949  0  0  0.164809  0  1.014363  0  0  0.166841  0  1.014116  0  0  0.093399  0.163735  0  1.014063  0
H  H27  1  0.15292269  0.76273578  0.51355588  1  0  0.145508  0  0.955219  0  0  0.164823  0  1.014458  0  0  0.166491  0  1.01485  0  0  0.093206  0.163758  0  1.01414  0
H  H28  1  0.60982666  0.76272997  0.01352843  1  0  0.145698  0  0.955014  0  0  0.16484  0  1.014339  0  0  0.16687  0  1.01408  0  0  0.093426  0.163765  0  1.014024  0
H  H29  1  0.84707705  0.23726528  0.48644409  1  0  0.145444  0  0.955304  0  0  0.164809  0  1.014485  0  0  0.166475  0  1.014879  0  0  0.093194  0.163744  0  1.014168  0
H  H30  1  0.31543176  0.43807974  0.95027810  1  0  0.143253  0  0.962675  0  0  0.160049  0  1.026021  0  0  0.162309  0  1.025401  0  0  0.09134  0.158698  0  1.026207  0
H  H31  1  0.87749601  0.56198048  0.54971007  1  0  0.143897  0  0.961886  0  0  0.160694  0  1.025375  0  0  0.162782  0  1.0249  0  0  0.091663  0.159356  0  1.025517  0
H  H32  1  0.68456893  0.56192132  0.04972242  1  0  0.143316  0  0.962522  0  0  0.160021  0  1.026064  0  0  0.162372  0  1.025195  0  0  0.091336  0.158687  0  1.026201  0
H  H33  1  0.12250318  0.43801948  0.45028971  1  0  0.143897  0  0.961874  0  0  0.160694  0  1.02536  0  0  0.162782  0  1.024887  0  0  0.091656  0.159357  0  1.0255  0
H  H34  1  0.29736580  0.43694130  0.85270667  1  0  0.155647  0  0.963707  0  0  0.166332  0  1.034079  0  0  0.169566  0  1.032001  0  0  0.093142  0.164156  0  1.035515  0
H  H35  1  0.86059120  0.56310590  0.64727487  1  0  0.155809  0  0.964865  0  0  0.166458  0  1.035061  0  0  0.170058  0  1.03222  0  0  0.093136  0.16428  0  1.03648  0
H  H36  1  0.70263394  0.56305975  0.14729386  1  0  0.155793  0  0.963459  0  0  0.166336  0  1.03409  0  0  0.169704  0  1.03169  0  0  0.093144  0.164165  0  1.035503  0
H  H37  1  0.13940594  0.43689187  0.35272398  1  0  0.155845  0  0.964856  0  0  0.166501  0  1.03505  0  0  0.170101  0  1.032202  0  0  0.093154  0.164313  0  1.036495  0
H  H38  1  0.47268448  0.48864341  0.90199769  1  0  0.148543  0  0.947323  0  0  0.168295  0  1.002954  0  0  0.170178  0  1.00322  0  0  0.095461  0.167154  0  1.002862  0
H  H39  1  0.98418667  0.51138183  0.59799609  1  0  0.148657  0  0.947485  0  0  0.16848  0  1.002876  0  0  0.170079  0  1.0036  0  0  0.095414  0.167319  0  1.002805  0
H  H40  1  0.52731621  0.51135765  0.09800229  1  0  0.148528  0  0.947357  0  0  0.168313  0  1.002944  0  0  0.170194  0  1.00323  0  0  0.09546  0.167166  0  1.002864  0
H  H41  1  0.01581197  0.48861704  0.40200295  1  0  0.148642  0  0.94747  0  0  0.168465  0  1.002868  0  0  0.170075  0  1.003583  0  0  0.095405  0.167306  0  1.002791  0
Au  Au42  1  0.06326486  0.06051929  0.83887639  1  0  -0.042257  0  2.281278  0  0  -0.08502  0  2.775508  0  0  -0.079682  0  2.746788  0  0  0.231624  -0.087574  0  2.793642  0
Au  Au43  1  0.00283834  0.93948499  0.66108453  1  0  -0.042432  0  2.280498  0  0  -0.085414  0  2.775464  0  0  -0.080235  0  2.747009  0  0  0.231574  -0.087947  0  2.793527  0
Au  Au44  1  0.93673583  0.93948177  0.16112414  1  0  -0.042251  0  2.281296  0  0  -0.085017  0  2.775542  0  0  -0.079614  0  2.746643  0  0  0.231639  -0.087574  0  2.793673  0
Au  Au45  1  0.99716180  0.06051497  0.33891525  1  0  -0.042457  0  2.280516  0  0  -0.085446  0  2.775487  0  0  -0.080268  0  2.747025  0  0  0.231565  -0.087977  0  2.79355  0
C  C46  1  0.39688094  0.21270476  0.77207964  1  0  -0.509331  0  3.613044  0  0  -0.571181  0  3.85205  0  0  -0.577641  0  3.859729  0  0  -0.254862  -0.56617  0  3.845925  0
C  C47  1  0.18426067  0.78737100  0.72796117  1  0  -0.509492  0  3.614206  0  0  -0.571018  0  3.851943  0  0  -0.577689  0  3.86028  0  0  -0.254842  -0.565973  0  3.845648  0
C  C48  1  0.60312016  0.78729520  0.22792069  1  0  -0.509354  0  3.613079  0  0  -0.571187  0  3.852033  0  0  -0.57768  0  3.859817  0  0  -0.254901  -0.566209  0  3.845992  0
C  C49  1  0.81573797  0.21262786  0.27203896  1  0  -0.509488  0  3.614209  0  0  -0.570993  0  3.851877  0  0  -0.577664  0  3.860222  0  0  -0.254835  -0.565948  0  3.845582  0
C  C50  1  0.42489219  0.21613379  0.92948609  1  0  -0.513804  0  3.617742  0  0  -0.573617  0  3.857018  0  0  -0.580505  0  3.86515  0  0  -0.253397  -0.568452  0  3.850053  0
C  C51  1  0.20882336  0.78382560  0.57053137  1  0  -0.513233  0  3.618093  0  0  -0.573416  0  3.857534  0  0  -0.580408  0  3.866052  0  0  -0.253071  -0.568292  0  3.850615  0
C  C52  1  0.57510700  0.78386617  0.07051424  1  0  -0.514184  0  3.618226  0  0  -0.573603  0  3.856689  0  0  -0.580563  0  3.865105  0  0  -0.253419  -0.568505  0  3.849995  0
C  C53  1  0.79117638  0.21617546  0.42946860  1  0  -0.513251  0  3.618128  0  0  -0.573463  0  3.857558  0  0  -0.580452  0  3.866072  0  0  -0.253073  -0.568342  0  3.850635  0
C  C54  1  0.35328092  0.41612231  0.89433755  1  0  -0.505283  0  3.60405  0  0  -0.565335  0  3.843013  0  0  -0.571958  0  3.850715  0  0  -0.253757  -0.560445  0  3.837031  0
C  C55  1  0.93731766  0.58391891  0.60565490  1  0  -0.506582  0  3.605463  0  0  -0.566919  0  3.844816  0  0  -0.573431  0  3.852233  0  0  -0.254456  -0.562037  0  3.838956  0
C  C56  1  0.64671882  0.58387875  0.10566297  1  0  -0.505074  0  3.603607  0  0  -0.565342  0  3.843003  0  0  -0.571814  0  3.850334  0  0  -0.253752  -0.560445  0  3.837016  0
C  C57  1  0.06268153  0.41608105  0.39434433  1  0  -0.506595  0  3.605444  0  0  -0.566953  0  3.844822  0  0  -0.573474  0  3.852234  0  0  -0.254458  -0.562073  0  3.838948  0
C  C58  1  0.83725564  0.92138872  0.82367274  1  0  -0.340276  0  3.824708  0  0  -0.332333  0  4.147924  0  0  -0.344296  0  4.169847  0  0  -0.193528  -0.323765  0  4.132122  0
C  C59  1  0.91589437  0.07856740  0.67627094  1  0  -0.338954  0  3.822271  0  0  -0.33147  0  4.14737  0  0  -0.343816  0  4.170512  0  0  -0.193402  -0.322717  0  4.131037  0
C  C60  1  0.16274450  0.07861125  0.17632704  1  0  -0.340275  0  3.824797  0  0  -0.332328  0  4.148034  0  0  -0.344293  0  4.169961  0  0  -0.193503  -0.323749  0  4.13218  0
C  C61  1  0.08410577  0.92143256  0.32372939  1  0  -0.33892  0  3.822284  0  0  -0.33143  0  4.147405  0  0  -0.343768  0  4.170523  0  0  -0.19338  -0.32268  0  4.131064  0
C  C62  1  0.74143018  0.97723297  0.83626900  1  0  0.213078  0  3.862163  0  0  0.186985  0  4.160524  0  0  0.196235  0  4.174227  0  0  0.061543  0.180615  0  4.151483  0
C  C63  1  0.76422186  0.02268138  0.66370271  1  0  0.215777  0  3.860191  0  0  0.187524  0  4.160949  0  0  0.19706  0  4.173568  0  0  0.061875  0.181159  0  4.15196  0
C  C64  1  0.25856846  0.02276589  0.16373114  1  0  0.213137  0  3.862144  0  0  0.187053  0  4.160498  0  0  0.196302  0  4.174214  0  0  0.061528  0.18068  0  4.151469  0
C  C65  1  0.23577883  0.97731968  0.33629671  1  0  0.21579  0  3.860159  0  0  0.187541  0  4.16092  0  0  0.197084  0  4.173545  0  0  0.061885  0.181177  0  4.15192  0
C  C66  1  0.58894538  0.88944870  0.82425477  1  0  0.111405  0  3.805343  0  0  0.071449  0  4.112605  0  0  0.078949  0  4.118931  0  0  0.070056  0.066001  0  4.108947  0
C  C67  1  0.69949917  0.11044788  0.67574612  1  0  0.113086  0  3.80176  0  0  0.070694  0  4.112622  0  0  0.079621  0  4.117495  0  0  0.070452  0.065246  0  4.108985  0
C  C68  1  0.41105326  0.11055016  0.17574537  1  0  0.111445  0  3.80525  0  0  0.071445  0  4.112588  0  0  0.078943  0  4.118924  0  0  0.070058  0.065995  0  4.108916  0
C  C69  1  0.30050097  0.88955208  0.32425421  1  0  0.113095  0  3.801766  0  0  0.070702  0  4.11261  0  0  0.079625  0  4.117514  0  0  0.070448  0.065245  0  4.108983  0
C  C70  1  0.52651099  0.73741941  0.79769936  1  0  0.133482  0  3.819669  0  0  0.099943  0  4.132475  0  0  0.107633  0  4.140535  0  0  0.078189  0.094513  0  4.127963  0
C  C71  1  0.78903078  0.26248583  0.70229592  1  0  0.133762  0  3.820003  0  0  0.10094  0  4.131452  0  0  0.109205  0  4.137797  0  0  0.078391  0.095476  0  4.127004  0
C  C72  1  0.47348915  0.26258055  0.20230042  1  0  0.133593  0  3.819475  0  0  0.099984  0  4.132467  0  0  0.107676  0  4.140539  0  0  0.078219  0.094555  0  4.127959  0
C  C73  1  0.21096841  0.73751413  0.29770441  1  0  0.133681  0  3.820114  0  0  0.100977  0  4.131279  0  0  0.109163  0  4.137849  0  0  0.078362  0.095426  0  4.127066  0
C  C74  1  0.61818687  0.67684365  0.78381703  1  0  0.105482  0  3.819466  0  0  0.06018  0  4.138494  0  0  0.067919  0  4.144101  0  0  0.066343  0.054587  0  4.135363  0
C  C75  1  0.94129378  0.32310120  0.71618479  1  0  0.103345  0  3.821719  0  0  0.059953  0  4.137651  0  0  0.067068  0  4.145023  0  0  0.065889  0.054342  0  4.134571  0
C  C76  1  0.38181163  0.32315303  0.21618327  1  0  0.105342  0  3.819672  0  0  0.060087  0  4.138562  0  0  0.067825  0  4.144165  0  0  0.066293  0.054493  0  4.135428  0
C  C77  1  0.05870691  0.67689986  0.28381573  1  0  0.103411  0  3.821774  0  0  0.06008  0  4.137571  0  0  0.067313  0  4.144647  0  0  0.065932  0.054447  0  4.134543  0
C  C78  1  0.77000820  0.76932647  0.79695623  1  0  0.212988  0  3.862491  0  0  0.179755  0  4.171446  0  0  0.191369  0  4.181041  0  0  0.058844  0.172149  0  4.165021  0
C  C79  1  0.00065067  0.23062470  0.70302640  1  0  0.212276  0  3.86234  0  0  0.178199  0  4.171564  0  0  0.188336  0  4.183086  0  0  0.058161  0.170617  0  4.165188  0
C  C80  1  0.22999195  0.23067350  0.20304410  1  0  0.212959  0  3.862588  0  0  0.17976  0  4.171493  0  0  0.19138  0  4.18107  0  0  0.058825  0.172156  0  4.165062  0
C  C81  1  0.99935002  0.76937636  0.29697302  1  0  0.212236  0  3.862316  0  0  0.178149  0  4.171538  0  0  0.188358  0  4.182856  0  0  0.058129  0.170567  0  4.165149  0
C  C82  1  0.98335152  0.19135147  0.03634147  1  0  -0.389937  0  3.77371  0  0  -0.379068  0  4.107098  0  0  -0.394161  0  4.129099  0  0  -0.163564  -0.368406  0  4.090828  0
C  C83  1  0.79175459  0.80871709  0.46366128  1  0  -0.389105  0  3.771473  0  0  -0.378096  0  4.104675  0  0  -0.393832  0  4.128588  0  0  -0.162868  -0.367528  0  4.088713  0
C  C84  1  0.01664958  0.80864849  0.96365941  1  0  -0.389774  0  3.77349  0  0  -0.379152  0  4.107136  0  0  -0.394215  0  4.129035  0  0  -0.163602  -0.368463  0  4.090817  0
C  C85  1  0.20824214  0.19128178  0.53633830  1  0  -0.389079  0  3.771355  0  0  -0.378084  0  4.104619  0  0  -0.393818  0  4.128523  0  0  -0.162844  -0.367517  0  4.08866  0
C  C86  1  0.10682847  0.33006976  0.06074758  1  0  0.235212  0  3.854431  0  0  0.196334  0  4.166832  0  0  0.209592  0  4.175456  0  0  0.068745  0.187802  0  4.160988  0
C  C87  1  0.77658976  0.67001539  0.43926447  1  0  0.235206  0  3.854342  0  0  0.19589  0  4.167403  0  0  0.207529  0  4.178049  0  0  0.068338  0.187561  0  4.160882  0
C  C88  1  0.89317181  0.66993240  0.93925314  1  0  0.235277  0  3.854291  0  0  0.196122  0  4.167509  0  0  0.209622  0  4.175293  0  0  0.068746  0.187787  0  4.161018  0
C  C89  1  0.22340848  0.32998457  0.56073586  1  0  0.235196  0  3.854234  0  0  0.195847  0  4.167315  0  0  0.207488  0  4.17795  0  0  0.068289  0.187519  0  4.160794  0
C  C90  1  0.09822155  0.45792709  0.08326311  1  0  0.115503  0  3.795208  0  0  0.070996  0  4.117064  0  0  0.079047  0  4.120777  0  0  0.073857  0.065168  0  4.114264  0
C  C91  1  0.64017850  0.54212027  0.41675207  1  0  0.114354  0  3.794924  0  0  0.069779  0  4.117275  0  0  0.077115  0  4.122353  0  0  0.073976  0.064681  0  4.113707  0
C  C92  1  0.90177423  0.54207177  0.91673702  1  0  0.115676  0  3.794985  0  0  0.070278  0  4.117778  0  0  0.078929  0  4.121228  0  0  0.073884  0.065179  0  4.114209  0
C  C93  1  0.35981687  0.45787970  0.58324771  1  0  0.114267  0  3.795147  0  0  0.069713  0  4.117469  0  0  0.077047  0  4.122544  0  0  0.073954  0.064616  0  4.113899  0
C  C94  1  0.96003876  0.44728620  0.08101580  1  0  0.137067  0  3.825212  0  0  0.095452  0  4.148371  0  0  0.104831  0  4.155763  0  0  0.080955  0.089607  0  4.143303  0
C  C95  1  0.51261418  0.55274300  0.41901973  1  0  0.137512  0  3.821426  0  0  0.095012  0  4.14647  0  0  0.104235  0  4.154043  0  0  0.081009  0.089414  0  4.140739  0
C  C96  1  0.03995933  0.55271157  0.91898304  1  0  0.136867  0  3.825757  0  0  0.09522  0  4.148984  0  0  0.103654  0  4.156591  0  0  0.080904  0.08956  0  4.143337  0
C  C97  1  0.48738379  0.44726025  0.58097953  1  0  0.137489  0  3.821599  0  0  0.095024  0  4.14659  0  0  0.104249  0  4.154163  0  0  0.080995  0.089425  0  4.140859  0
C  C98  1  0.83335645  0.30959208  0.05673546  1  0  0.123438  0  3.786128  0  0  0.079612  0  4.102749  0  0  0.087643  0  4.106728  0  0  0.079183  0.073759  0  4.100399  0
C  C99  1  0.52360015  0.69043211  0.44334651  1  0  0.124738  0  3.782602  0  0  0.080489  0  4.100253  0  0  0.088292  0  4.104864  0  0  0.079581  0.074623  0  4.097926  0
C  C100  1  0.16663959  0.69040349  0.94326299  1  0  0.121947  0  3.788153  0  0  0.079635  0  4.102532  0  0  0.087396  0  4.107408  0  0  0.079238  0.073729  0  4.100347  0
C  C101  1  0.47639768  0.30956895  0.55665456  1  0  0.124863  0  3.782569  0  0  0.080564  0  4.100269  0  0  0.088367  0  4.104884  0  0  0.079609  0.074699  0  4.097944  0
C  C102  1  0.84756242  0.18473572  0.03518215  1  0  0.242086  0  3.854122  0  0  0.206128  0  4.159133  0  0  0.218588  0  4.169271  0  0  0.07377  0.197692  0  4.152862  0
C  C103  1  0.66258844  0.81532073  0.46485774  1  0  0.241996  0  3.851419  0  0  0.205706  0  4.157499  0  0  0.217415  0  4.168236  0  0  0.073049  0.197256  0  4.15129  0
C  C104  1  0.15243854  0.81526205  0.96481779  1  0  0.242012  0  3.854597  0  0  0.206263  0  4.158987  0  0  0.218726  0  4.169115  0  0  0.073807  0.197822  0  4.152762  0
C  C105  1  0.33741089  0.18468142  0.53514243  1  0  0.241872  0  3.851461  0  0  0.205593  0  4.157565  0  0  0.217301  0  4.168302  0  0  0.072993  0.197144  0  4.151356  0
F  F106  1  0.79566954  0.12515844  0.86137726  1  0  -0.182416  0  1.239307  0  0  -0.141475  0  1.418888  0  0  -0.150677  0  1.410628  0  0  -0.107767  -0.134687  0  1.424606  0
F  F107  1  0.67058589  0.87476047  0.63864011  1  0  -0.188409  0  1.243622  0  0  -0.141669  0  1.418652  0  0  -0.150669  0  1.410058  0  0  -0.108401  -0.134884  0  1.424359  0
F  F108  1  0.20432965  0.87484152  0.13862417  1  0  -0.182436  0  1.239274  0  0  -0.141363  0  1.418687  0  0  -0.150546  0  1.410326  0  0  -0.107755  -0.13472  0  1.424583  0
F  F109  1  0.32941480  0.12524058  0.36136041  1  0  -0.188444  0  1.243625  0  0  -0.141695  0  1.418645  0  0  -0.150695  0  1.410052  0  0  -0.108418  -0.134911  0  1.424354  0
F  F110  1  0.50046312  0.94945994  0.83789262  1  0  -0.156917  0  1.252315  0  0  -0.100668  0  1.41119  0  0  -0.108094  0  1.400048  0  0  -0.083259  -0.095368  0  1.418872  0
F  F111  1  0.55098639  0.05042883  0.66217371  1  0  -0.157876  0  1.250583  0  0  -0.10111  0  1.41054  0  0  -0.113441  0  1.404892  0  0  -0.08351  -0.095802  0  1.418225  0
F  F112  1  0.49953552  0.05053892  0.16210587  1  0  -0.156909  0  1.252268  0  0  -0.100667  0  1.411174  0  0  -0.108096  0  1.400042  0  0  -0.08325  -0.09537  0  1.418862  0
F  F113  1  0.44901266  0.94956894  0.33782623  1  0  -0.157872  0  1.25058  0  0  -0.101103  0  1.410536  0  0  -0.113444  0  1.404895  0  0  -0.083495  -0.095794  0  1.418221  0
F  F114  1  0.37882230  0.64929269  0.78484071  1  0  -0.141723  0  1.256183  0  0  -0.102051  0  1.431962  0  0  -0.109677  0  1.421748  0  0  -0.080656  -0.096562  0  1.439279  0
F  F115  1  0.72947478  0.35061992  0.71514427  1  0  -0.141318  0  1.255108  0  0  -0.102244  0  1.43112  0  0  -0.109455  0  1.419933  0  0  -0.080977  -0.096746  0  1.438446  0
F  F116  1  0.62117770  0.35070508  0.21515869  1  0  -0.141482  0  1.255817  0  0  -0.10205  0  1.431992  0  0  -0.109674  0  1.421776  0  0  -0.080658  -0.096563  0  1.43931  0
F  F117  1  0.27052536  0.64938004  0.28485606  1  0  -0.141305  0  1.255102  0  0  -0.10215  0  1.430898  0  0  -0.109458  0  1.419925  0  0  -0.080978  -0.096746  0  1.438433  0
F  F118  1  0.55780495  0.52889859  0.75737922  1  0  -0.158706  0  1.265697  0  0  -0.100977  0  1.431801  0  0  -0.109394  0  1.422388  0  0  -0.085261  -0.095327  0  1.43889  0
F  F119  1  0.02879934  0.47105223  0.74265858  1  0  -0.157815  0  1.266466  0  0  -0.10051  0  1.431661  0  0  -0.109164  0  1.422973  0  0  -0.084709  -0.094861  0  1.438756  0
F  F120  1  0.44219560  0.47110027  0.24262092  1  0  -0.158734  0  1.265738  0  0  -0.100944  0  1.431773  0  0  -0.109365  0  1.422375  0  0  -0.085239  -0.095297  0  1.438875  0
F  F121  1  0.97120190  0.52894993  0.25734214  1  0  -0.157863  0  1.266517  0  0  -0.100538  0  1.431675  0  0  -0.109122  0  1.42278  0  0  -0.08472  -0.094892  0  1.438782  0
F  F122  1  0.85352667  0.70244339  0.78176081  1  0  -0.192915  0  1.253564  0  0  -0.133586  0  1.423124  0  0  -0.146899  0  1.417417  0  0  -0.09856  -0.126563  0  1.429419  0
F  F123  1  0.15105339  0.29756717  0.71826147  1  0  -0.193153  0  1.25463  0  0  -0.133187  0  1.42402  0  0  -0.14295  0  1.415215  0  0  -0.097927  -0.126179  0  1.430299  0
F  F124  1  0.14647443  0.29755657  0.21823897  1  0  -0.192922  0  1.253551  0  0  -0.133598  0  1.423098  0  0  -0.146912  0  1.417388  0  0  -0.098566  -0.126575  0  1.429394  0
F  F125  1  0.84894730  0.70243389  0.28173851  1  0  -0.193205  0  1.254634  0  0  -0.13319  0  1.424  0  0  -0.142935  0  1.415115  0  0  -0.097926  -0.126184  0  1.430278  0
F  F126  1  0.24457948  0.34540702  0.06331951  1  0  -0.194583  0  1.241235  0  0  -0.134213  0  1.407114  0  0  -0.148322  0  1.402204  0  0  -0.09287  -0.127666  0  1.414203  0
F  F127  1  0.89902465  0.65470452  0.43669885  1  0  -0.195051  0  1.24229  0  0  -0.134536  0  1.40825  0  0  -0.144396  0  1.399184  0  0  -0.092874  -0.127851  0  1.415121  0
F  F128  1  0.75542094  0.65459732  0.93668325  1  0  -0.19456  0  1.241258  0  0  -0.134316  0  1.407375  0  0  -0.148285  0  1.402208  0  0  -0.092871  -0.127648  0  1.414242  0
F  F129  1  0.10097290  0.34529215  0.56329980  1  0  -0.19503  0  1.242196  0  0  -0.134497  0  1.408159  0  0  -0.144357  0  1.399088  0  0  -0.09283  -0.127812  0  1.415027  0
F  F130  1  0.22121041  0.59162987  0.10700354  1  0  -0.149273  0  1.252598  0  0  -0.098071  0  1.417657  0  0  -0.10661  0  1.408231  0  0  -0.080778  -0.090459  0  1.422328  0
F  F131  1  0.62948024  0.40842910  0.39297934  1  0  -0.148444  0  1.252335  0  0  -0.095433  0  1.415108  0  0  -0.103039  0  1.404955  0  0  -0.080515  -0.090174  0  1.422372  0
F  F132  1  0.77878661  0.40837338  0.89299792  1  0  -0.149225  0  1.252538  0  0  -0.095697  0  1.415094  0  0  -0.106702  0  1.40847  0  0  -0.080781  -0.090436  0  1.422349  0
F  F133  1  0.37051227  0.59157087  0.60701879  1  0  -0.148339  0  1.252395  0  0  -0.095383  0  1.415201  0  0  -0.102989  0  1.405044  0  0  -0.080508  -0.090125  0  1.422462  0
F  F134  1  0.94915131  0.56971169  0.10207789  1  0  -0.146727  0  1.279368  0  0  -0.091619  0  1.450414  0  0  -0.104389  0  1.445631  0  0  -0.072316  -0.084621  0  1.45523  0
F  F135  1  0.37931202  0.43029061  0.39786053  1  0  -0.146045  0  1.277202  0  0  -0.09133  0  1.449441  0  0  -0.104079  0  1.444709  0  0  -0.072355  -0.084224  0  1.454022  0
F  F136  1  0.05084433  0.43028499  0.89792241  1  0  -0.146601  0  1.27959  0  0  -0.091695  0  1.450673  0  0  -0.101305  0  1.443318  0  0  -0.072287  -0.084594  0  1.455283  0
F  F137  1  0.62068308  0.56971264  0.60213874  1  0  -0.14609  0  1.277272  0  0  -0.091341  0  1.449465  0  0  -0.104095  0  1.444737  0  0  -0.072353  -0.084237  0  1.454043  0
F  F138  1  0.69941348  0.29901814  0.05376731  1  0  -0.14299  0  1.248945  0  0  -0.087919  0  1.408748  0  0  -0.095636  0  1.398298  0  0  -0.077592  -0.082404  0  1.416037  0
F  F139  1  0.40021717  0.70097964  0.44628764  1  0  -0.143552  0  1.249384  0  0  -0.088316  0  1.409368  0  0  -0.096155  0  1.399173  0  0  -0.07777  -0.082783  0  1.416665  0
F  F140  1  0.30058379  0.70097415  0.94623057  1  0  -0.142162  0  1.249202  0  0  -0.087907  0  1.40861  0  0  -0.095746  0  1.398507  0  0  -0.077647  -0.082421  0  1.416015  0
F  F141  1  0.59978025  0.29902252  0.55371473  1  0  -0.143522  0  1.249334  0  0  -0.08831  0  1.409364  0  0  -0.096149  0  1.399169  0  0  -0.077748  -0.082779  0  1.416661  0
F  F142  1  0.72129994  0.05239830  0.01132785  1  0  -0.178134  0  1.237456  0  0  -0.122055  0  1.400992  0  0  -0.133646  0  1.393053  0  0  -0.090865  -0.115524  0  1.408058  0
F  F143  1  0.66865101  0.94764326  0.48868776  1  0  -0.178421  0  1.236233  0  0  -0.122104  0  1.400007  0  0  -0.13137  0  1.389816  0  0  -0.090713  -0.115561  0  1.407084  0
F  F144  1  0.27869897  0.94759728  0.98867116  1  0  -0.178093  0  1.237635  0  0  -0.12205  0  1.401023  0  0  -0.13364  0  1.39307  0  0  -0.090838  -0.115523  0  1.408084  0
F  F145  1  0.33134737  0.05235889  0.51131186  1  0  -0.178396  0  1.2363  0  0  -0.122063  0  1.400061  0  0  -0.131329  0  1.389871  0  0  -0.090692  -0.11552  0  1.407137  0
