# generated using pymatgen
data_CuH12C16(NO4)2
_symmetry_space_group_name_H-M   'P 1'
_cell_length_a   8.02898334
_cell_length_b   8.02894256
_cell_length_c   13.35919600
_cell_angle_alpha   74.83309690
_cell_angle_beta   74.83296855
_cell_angle_gamma   69.64938968
_symmetry_Int_Tables_number   1
_chemical_formula_structural   CuH12C16(NO4)2
_chemical_formula_sum   'Cu2 H24 C32 N4 O16'
_cell_volume   765.32991352
_cell_formula_units_Z   2
loop_
 _symmetry_equiv_pos_site_id
 _symmetry_equiv_pos_as_xyz
  1  'x, y, z'
loop_
 _atom_site_type_symbol
 _atom_site_label
 _atom_site_symmetry_multiplicity
 _atom_site_fract_x
 _atom_site_fract_y
 _atom_site_fract_z
 _atom_site_occupancy
 _atom_site_hle17_ddec_charge
 _atom_site_hle17_ddec_spin_density
 _atom_site_hle17_ddec_sum_bond_order
 _atom_site_hle17_magmom
 _atom_site_hse06_10hf_ddec_charge
 _atom_site_hse06_10hf_ddec_spin_density
 _atom_site_hse06_10hf_ddec_sum_bond_order
 _atom_site_hse06_10hf_magmom
 _atom_site_hse06_ddec_charge
 _atom_site_hse06_ddec_spin_density
 _atom_site_hse06_ddec_sum_bond_order
 _atom_site_hse06_magmom
 _atom_site_pbe_cm5_charge
 _atom_site_pbe_ddec_charge
 _atom_site_pbe_ddec_spin_density
 _atom_site_pbe_ddec_sum_bond_order
 _atom_site_pbe_magmom
Cu  Cu0  1  0.50000025  0.00000079  0.49999966  1  0.867553  -0.669075  1.609141  -0.431  0.861616  -0.769145  1.977307  -0.56  0.951257  -0.862671  1.912579  -0.65  0.717317  0.80868  -0.705594  2.022646  -0.505
Cu  Cu1  1  0.99999800  0.50000104  0.00000042  1  0.867538  0.669076  1.60917  0.431  0.861605  0.769153  1.97735  0.56  0.95119  0.862663  1.912602  0.65  0.71729  0.808609  0.705624  2.022626  0.505
H  H2  1  0.89567647  0.85234112  0.06329688  1  0.406752  -4.4e-05  0.906008  0.0  0.369646  -5.7e-05  0.985749  0.0  0.382873  -7.7e-05  0.966931  0.0  0.298711  0.360281  -3.2e-05  0.999086  0.0
H  H3  1  0.85234531  0.89567407  0.56329954  1  0.4068  4.4e-05  0.906039  0.0  0.369706  5.6e-05  0.985681  0.0  0.382933  7.7e-05  0.966864  0.0  0.298751  0.360339  3.2e-05  0.999023  0.0
H  H4  1  0.10432331  0.14766170  0.93670248  1  0.406819  -4.4e-05  0.905997  0.0  0.369727  -5.7e-05  0.985651  0.0  0.382954  -7.7e-05  0.966832  0.0  0.298754  0.360364  -3.2e-05  0.998985  0.0
H  H5  1  0.14766038  0.10432197  0.43670220  1  0.406876  4.4e-05  0.905917  0.0  0.369784  5.6e-05  0.985571  0.0  0.38301  7.7e-05  0.966754  0.0  0.298765  0.36042  3.2e-05  0.99891  0.0
H  H6  1  0.23783257  0.66331980  0.90269793  1  0.331335  -0.000417  0.917666  -0.001  0.317215  0.000146  0.980218  0.0  0.325239  -0.000104  0.974146  -0.001  0.296288  0.311677  0.000331  0.984557  0.0
H  H7  1  0.66332072  0.23783598  0.40269694  1  0.331387  0.000417  0.917578  0.001  0.317241  -0.000146  0.980176  0.0  0.325266  0.000105  0.974105  0.001  0.296283  0.311705  -0.000332  0.984519  0.0
H  H8  1  0.76216541  0.33667623  0.09730274  1  0.33139  -0.000418  0.917576  -0.001  0.317261  0.000146  0.980163  0.0  0.325287  -0.000105  0.974093  -0.001  0.296271  0.311724  0.000331  0.984505  0.0
H  H9  1  0.33668157  0.76216277  0.59730415  1  0.331385  0.000418  0.91765  0.001  0.31725  -0.000146  0.98022  0.0  0.325274  0.000105  0.97415  0.001  0.296283  0.311714  -0.000331  0.984563  0.0
H  H10  1  0.14550929  0.62256807  0.81624396  1  0.325928  -0.001071  0.850817  -0.002  0.322649  -2e-05  0.89364  0.0  0.329342  -0.000196  0.889699  -0.001  0.31667  0.317987  0.000106  0.896737  0.0
H  H11  1  0.62256926  0.14550938  0.31624113  1  0.325906  0.001071  0.850786  0.002  0.322701  2e-05  0.893532  0.0  0.329398  0.000196  0.889583  0.001  0.316648  0.318043  -0.000106  0.896631  0.0
H  H12  1  0.85448572  0.37743333  0.18375934  1  0.32593  -0.001071  0.850796  -0.002  0.322676  -2e-05  0.893603  0.0  0.329373  -0.000197  0.889655  -0.001  0.316657  0.318012  0.000105  0.896702  0.0
H  H13  1  0.37743386  0.85448667  0.68375950  1  0.325929  0.001071  0.850778  0.002  0.322718  2.1e-05  0.89353  0.0  0.329416  0.000196  0.889579  0.001  0.31667  0.318059  -0.000106  0.896629  0.0
H  H14  1  0.43207518  0.38297723  0.01351672  1  0.118043  -0.00096  0.964969  -0.001  0.123954  9e-06  1.034537  0.0  0.127882  0.0  1.031793  0.0  0.108111  0.121138  2.6e-05  1.036567  0.0
H  H15  1  0.38297517  0.43207880  0.51351568  1  0.118094  0.00096  0.96491  0.001  0.124021  -9e-06  1.034468  0.0  0.12795  0.0  1.031725  0.0  0.108153  0.121207  -2.5e-05  1.036504  0.0
H  H16  1  0.56791647  0.61702690  0.98648293  1  0.11812  -0.000961  0.965025  -0.001  0.124036  8e-06  1.034571  0.0  0.127963  0.0  1.031827  0.0  0.108187  0.121224  2.5e-05  1.036597  0.0
H  H17  1  0.61703058  0.56792133  0.48648392  1  0.117977  0.00096  0.964998  0.001  0.123947  -9e-06  1.03448  0.0  0.12788  -0.0  1.03174  0.0  0.108108  0.121136  -2.5e-05  1.03651  0.0
H  H18  1  0.75766556  0.97622210  0.82831904  1  0.125911  -0.0011  0.931113  -0.002  0.134095  2.1e-05  0.992084  0.0  0.138408  -6e-06  0.988182  0.0  0.114333  0.13089  4.6e-05  0.995077  0.0
H  H19  1  0.97622444  0.75766313  0.32831893  1  0.125918  0.0011  0.931107  0.002  0.134108  -2.1e-05  0.992072  0.0  0.138419  6e-06  0.988171  0.0  0.114334  0.130902  -4.6e-05  0.995066  0.0
H  H20  1  0.24233470  0.02378343  0.17167908  1  0.125913  -0.001101  0.931099  -0.002  0.134104  2.1e-05  0.992069  0.0  0.138413  -6e-06  0.988166  0.0  0.114343  0.130897  4.6e-05  0.995061  0.0
H  H21  1  0.02377783  0.24233560  0.67168366  1  0.125932  0.0011  0.931109  0.002  0.134101  -2.1e-05  0.992091  0.0  0.138412  5e-06  0.988187  0.0  0.114325  0.130889  -4.6e-05  0.995094  0.0
H  H22  1  0.30370073  0.39501525  0.71681777  1  0.123709  -0.001309  0.936715  -0.001  0.132305  -0.000325  1.000369  0.0  0.135952  -0.00024  0.997584  0.0  0.111413  0.129714  -0.000389  1.002313  0.0
H  H23  1  0.39501833  0.30370203  0.21681487  1  0.123731  0.00131  0.936708  0.001  0.132294  0.000325  1.000382  0.0  0.135942  0.00024  0.997595  0.0  0.111392  0.129704  0.000389  1.002324  0.0
H  H24  1  0.69629386  0.60498348  0.28318225  1  0.123739  -0.001309  0.936679  -0.001  0.132333  -0.000325  1.000329  0.0  0.13598  -0.00024  0.997542  0.0  0.111435  0.129741  -0.000389  1.002269  0.0
H  H25  1  0.60497706  0.69629398  0.78318694  1  0.123678  0.001309  0.936775  0.001  0.132291  0.000325  1.000393  0.0  0.13594  0.00024  0.997606  0.0  0.11139  0.129701  0.000389  1.002336  0.0
C  C26  1  0.35391233  0.40883319  0.86582896  1  0.259782  -0.015171  3.77286  -0.018  0.256311  -0.005398  4.040854  -0.008  0.259909  -0.007355  4.065577  -0.01  0.080067  0.253989  -0.003286  4.024352  -0.006
C  C27  1  0.40883304  0.35391592  0.36582624  1  0.259779  0.015173  3.772919  0.018  0.256325  0.005396  4.040915  0.008  0.259923  0.007354  4.065642  0.01  0.080085  0.254003  0.003285  4.024438  0.006
C  C28  1  0.64607803  0.59117094  0.13417013  1  0.25988  -0.01518  3.772918  -0.018  0.256525  -0.005397  4.040759  -0.008  0.260125  -0.007353  4.065482  -0.01  0.080104  0.2542  -0.003286  4.024259  -0.006
C  C29  1  0.59116926  0.64608283  0.63417410  1  0.259862  0.015176  3.77285  0.018  0.256399  0.005398  4.040835  0.008  0.259997  0.007355  4.065561  0.01  0.080116  0.254076  0.003284  4.024355  0.006
C  C30  1  0.46282289  0.32809133  0.94223907  1  -0.135278  0.035474  3.657536  0.03  -0.175617  0.012616  3.918929  0.011  -0.177447  0.010892  3.939661  0.01  -0.081038  -0.174329  0.013769  3.905116  0.012
C  C31  1  0.32808877  0.46282690  0.44223609  1  -0.135361  -0.035458  3.657737  -0.03  -0.175778  -0.012609  3.919257  -0.011  -0.17761  -0.010887  3.939993  -0.01  -0.081091  -0.174497  -0.013765  3.905453  -0.012
C  C32  1  0.53717344  0.67191010  0.05776178  1  -0.135524  0.035479  3.657974  0.03  -0.175918  0.012615  3.919353  0.011  -0.17775  0.01089  3.940086  0.01  -0.081141  -0.174632  0.013767  3.905544  0.012
C  C33  1  0.67191828  0.53717324  0.55776256  1  -0.135198  -0.035469  3.657667  -0.03  -0.175635  -0.012611  3.919147  -0.011  -0.177476  -0.010889  3.939891  -0.01  -0.081018  -0.174352  -0.013767  3.905344  -0.012
C  C34  1  0.60597116  0.17040272  0.92994343  1  -0.069931  -0.019527  3.792111  -0.019  -0.04556  -0.004315  4.03198  -0.005  -0.055632  -0.004934  4.05872  -0.006  -0.018426  -0.03903  -0.003753  4.014058  -0.005
C  C35  1  0.17040783  0.60596700  0.42994159  1  -0.069702  0.019524  3.792137  0.019  -0.045386  0.004314  4.031985  0.005  -0.055457  0.004933  4.058723  0.006  -0.018385  -0.038853  0.003753  4.014066  0.005
C  C36  1  0.39403030  0.82959873  0.07005813  1  -0.069719  -0.019535  3.792114  -0.019  -0.045381  -0.004315  4.031956  -0.005  -0.05545  -0.004932  4.058696  -0.006  -0.018402  -0.038854  -0.003753  4.014037  -0.005
C  C37  1  0.82959920  0.39403313  0.57005857  1  -0.06983  0.019531  3.792235  0.019  -0.045498  0.004314  4.032068  0.005  -0.055568  0.004933  4.058808  0.006  -0.018393  -0.038969  0.003753  4.014148  0.005
C  C38  1  0.64439567  0.09686447  0.83970400  1  -0.049237  0.040245  3.660828  0.034  -0.09596  0.013005  3.916775  0.011  -0.094491  0.010745  3.936906  0.01  -0.07096  -0.09676  0.014901  3.903263  0.012
C  C39  1  0.09686216  0.64439581  0.33970051  1  -0.049292  -0.040244  3.660917  -0.034  -0.096018  -0.013006  3.916877  -0.011  -0.094547  -0.010743  3.937004  -0.01  -0.070997  -0.096818  -0.014904  3.90337  -0.012
C  C40  1  0.35560117  0.90314375  0.16029498  1  -0.049241  0.040254  3.660816  0.034  -0.095996  0.013005  3.9168  0.011  -0.09452  0.010743  3.936925  0.01  -0.070981  -0.096791  0.014901  3.90328  0.012
C  C41  1  0.90314143  0.35560295  0.66029964  1  -0.049346  -0.040255  3.660938  -0.034  -0.096043  -0.013006  3.91687  -0.011  -0.094572  -0.010745  3.936995  -0.01  -0.070999  -0.096836  -0.014905  3.903363  -0.012
C  C42  1  0.53625103  0.17887630  0.76304846  1  -0.053864  -0.027238  3.765858  -0.026  -0.026661  -0.009671  4.001393  -0.011  -0.035891  -0.009208  4.025381  -0.01  -0.014835  -0.0207  -0.009722  3.985199  -0.011
C  C43  1  0.17887510  0.53625202  0.26305045  1  -0.053989  0.027236  3.766249  0.026  -0.026785  0.00967  4.001759  0.011  -0.036018  0.009206  4.025749  0.01  -0.014839  -0.020824  0.009721  3.985567  0.011
C  C44  1  0.46374833  0.82112384  0.23694763  1  -0.054008  -0.027245  3.765961  -0.026  -0.026814  -0.00967  4.001449  -0.011  -0.036047  -0.009206  4.025441  -0.01  -0.014869  -0.020856  -0.009722  3.985252  -0.011
C  C45  1  0.82112250  0.46374940  0.73695169  1  -0.053856  0.02724  3.766082  0.026  -0.026674  0.009669  4.001599  0.011  -0.035904  0.009207  4.025589  0.01  -0.014862  -0.020713  0.009722  3.985404  0.011
C  C46  1  0.38861849  0.33301939  0.77656303  1  -0.13151  0.034993  3.646641  0.03  -0.168767  0.012619  3.901389  0.012  -0.168506  0.010999  3.920179  0.011  -0.078329  -0.168673  0.013621  3.888498  0.012
C  C47  1  0.33302151  0.38861760  0.27655926  1  -0.131446  -0.035002  3.646728  -0.03  -0.168657  -0.012623  3.901448  -0.012  -0.168394  -0.011  3.920234  -0.011  -0.078309  -0.168562  -0.013627  3.888565  -0.012
C  C48  1  0.61137568  0.66698068  0.22343760  1  -0.131418  0.035  3.646675  0.03  -0.168712  0.012618  3.901389  0.012  -0.168447  0.010998  3.920174  0.011  -0.07831  -0.168614  0.01362  3.888494  0.012
C  C49  1  0.66697776  0.61137844  0.72344121  1  -0.131506  -0.034998  3.646738  -0.03  -0.168772  -0.01262  3.901463  -0.012  -0.168515  -0.011  3.920254  -0.011  -0.078337  -0.168675  -0.013625  3.888574  -0.012
C  C50  1  0.71443274  0.08026135  0.01477678  1  0.671343  -1.4e-05  3.805099  0.001  0.623599  -0.00021  4.097375  0.0  0.657412  -0.000145  4.089482  0.0  0.233097  0.600741  -0.00025  4.101989  0.0
C  C51  1  0.08026443  0.71442759  0.51477764  1  0.671125  1.5e-05  3.80529  -0.001  0.623588  0.000213  4.097266  0.0  0.657401  0.000145  4.089373  0.0  0.233098  0.600732  0.00025  4.101875  0.0
C  C52  1  0.28556880  0.91974419  0.98522115  1  0.671194  -1.3e-05  3.805207  0.001  0.623604  -0.000209  4.097265  0.0  0.657416  -0.000145  4.089374  0.0  0.233107  0.600749  -0.00025  4.101882  0.0
C  C53  1  0.91974297  0.28556712  0.48522254  1  0.671186  1.2e-05  3.805212  -0.001  0.623546  0.000212  4.097338  0.0  0.657357  0.000146  4.089444  0.0  0.233067  0.600694  0.00025  4.101946  0.0
C  C54  1  0.58703584  0.09581225  0.66710957  1  0.644852  0.003365  3.894535  0.007  0.596629  -0.000451  4.19255  0.002  0.634081  0.000104  4.185223  0.002  0.21483  0.57153  -0.000919  4.196745  0.002
C  C55  1  0.09581701  0.58702982  0.16710962  1  0.64468  -0.003365  3.894549  -0.007  0.596475  0.000452  4.192547  -0.002  0.633926  -0.000104  4.185224  -0.002  0.214792  0.571379  0.000918  4.196728  -0.002
C  C56  1  0.41296525  0.90419059  0.33288809  1  0.644696  0.003365  3.894554  0.007  0.596605  -0.000451  4.192393  0.002  0.634056  0.000104  4.185069  0.002  0.214846  0.571509  -0.000919  4.196584  0.002
C  C57  1  0.90418184  0.41296757  0.83289071  1  0.644763  -0.003364  3.894602  -0.007  0.59659  0.000453  4.192556  -0.002  0.634041  -0.000104  4.185234  -0.002  0.214842  0.571493  0.000918  4.196738  -0.002
N  N58  1  0.20240512  0.56534908  0.88220842  1  -0.636742  0.090911  3.146219  0.103  -0.612829  0.062322  3.403895  0.076  -0.64294  0.053086  3.402085  0.068  -0.606491  -0.595012  0.065538  3.406878  0.077
N  N59  1  0.56534834  0.20240311  0.38220632  1  -0.636776  -0.090907  3.1461  -0.103  -0.612937  -0.062322  3.403806  -0.076  -0.643056  -0.053084  3.402  -0.068  -0.60647  -0.595138  -0.065539  3.406834  -0.077
N  N60  1  0.79758995  0.43465640  0.11779275  1  -0.636864  0.090909  3.146087  0.103  -0.61301  0.062322  3.403702  0.076  -0.643121  0.053086  3.401871  0.068  -0.606502  -0.595192  0.065538  3.406689  0.077
N  N61  1  0.43465309  0.79759429  0.61779361  1  -0.636822  -0.090911  3.146154  -0.103  -0.612968  -0.062324  3.403796  -0.076  -0.64309  -0.053083  3.401996  -0.068  -0.606493  -0.595169  -0.06554  3.406825  -0.077
O  O62  1  0.74550573  0.99100142  0.64905013  1  -0.59871  -0.001643  2.050206  -0.003  -0.549  -0.000474  2.282541  -0.001  -0.574314  0.00011  2.271476  0.0  -0.300082  -0.53167  -0.000967  2.289813  -0.002
O  O63  1  0.99100074  0.74550534  0.14904939  1  -0.598666  0.001642  2.050063  0.003  -0.54896  0.000472  2.282419  0.001  -0.574269  -0.000111  2.271337  0.0  -0.300089  -0.531629  0.000967  2.289683  0.002
O  O64  1  0.25449106  0.00900274  0.35094948  1  -0.598683  -0.001643  2.050121  -0.003  -0.54903  -0.000473  2.282416  -0.001  -0.574345  0.000111  2.271351  0.0  -0.300092  -0.5317  -0.000967  2.289685  -0.002
O  O65  1  0.00899945  0.25449611  0.85095086  1  -0.598693  0.001642  2.050105  0.003  -0.549002  0.000473  2.282446  0.001  -0.574306  -0.000111  2.271355  0.0  -0.300061  -0.531671  0.000967  2.289708  0.002
O  O66  1  0.46461321  0.13599770  0.61118612  1  -0.612106  -0.082027  2.064324  -0.098  -0.5697  -0.061089  2.341225  -0.082  -0.609759  -0.050583  2.330232  -0.072  -0.325292  -0.543831  -0.066257  2.349041  -0.086
O  O67  1  0.13599293  0.46460595  0.11118839  1  -0.611983  0.082019  2.064418  0.098  -0.569574  0.061084  2.341316  0.082  -0.60962  0.050583  2.330308  0.072  -0.325254  -0.543696  0.066253  2.34909  0.086
O  O68  1  0.53538787  0.86400513  0.38881229  1  -0.612021  -0.082023  2.064361  -0.098  -0.569664  -0.061086  2.341211  -0.082  -0.609724  -0.050582  2.330221  -0.072  -0.325307  -0.543798  -0.066254  2.349026  -0.086
O  O69  1  0.86400424  0.53539280  0.88881049  1  -0.61204  0.082027  2.064489  0.098  -0.569667  0.061086  2.341365  0.082  -0.609713  0.050584  2.330356  0.072  -0.325313  -0.543788  0.066255  2.349142  0.086
O  O70  1  0.82731581  0.91974595  0.00079287  1  -0.563544  -0.000711  2.120982  0.0  -0.518495  -0.000411  2.350644  0.0  -0.542824  -0.000556  2.332526  0.0  -0.326703  -0.501827  -0.000242  2.363051  0.0
O  O71  1  0.91974811  0.82731646  0.50079598  1  -0.563492  0.000711  2.120984  0.0  -0.518516  0.00041  2.350528  0.0  -0.542847  0.000554  2.332414  0.0  -0.326735  -0.501855  0.000241  2.362951  0.0
O  O72  1  0.17268224  0.08025416  0.99920567  1  -0.563541  -0.000711  2.121024  0.0  -0.518567  -0.00041  2.350611  0.0  -0.542894  -0.000556  2.332488  0.0  -0.326741  -0.501901  -0.000242  2.363021  0.0
O  O73  1  0.08025627  0.17267956  0.49920745  1  -0.563604  0.000711  2.12095  0.0  -0.518577  0.00041  2.350493  0.0  -0.542906  0.000555  2.332377  0.0  -0.326718  -0.501919  0.000241  2.362915  0.0
O  O74  1  0.69662305  0.14953866  0.09158610  1  -0.590505  -0.002094  1.92524  -0.002  -0.544599  -0.000478  2.138125  -0.001  -0.564896  -0.000569  2.128201  -0.001  -0.31001  -0.530418  -0.000435  2.144543  -0.001
O  O75  1  0.14954283  0.69661281  0.59158823  1  -0.590457  0.002093  1.925396  0.002  -0.544635  0.000476  2.138184  0.001  -0.564925  0.00057  2.128253  0.001  -0.310007  -0.530453  0.000435  2.144602  0.001
O  O76  1  0.30338322  0.85046423  0.90840776  1  -0.590478  -0.002095  1.925287  -0.002  -0.544638  -0.000478  2.138107  -0.001  -0.564937  -0.000569  2.128186  -0.001  -0.310022  -0.530455  -0.000435  2.144524  -0.001
O  O77  1  0.85046448  0.30337780  0.40841633  1  -0.590451  0.002095  1.925305  0.002  -0.544575  0.000477  2.138139  0.001  -0.56487  0.00057  2.128219  0.001  -0.310029  -0.53039  0.000435  2.14455  0.001
