# generated using pymatgen
data_Cu4H15C9S3I(N4O)3
_symmetry_space_group_name_H-M   'P 1'
_cell_length_a   10.26535093
_cell_length_b   10.26523931
_cell_length_c   10.26530894
_cell_angle_alpha   84.57839351
_cell_angle_beta   84.57784178
_cell_angle_gamma   84.57692212
_symmetry_Int_Tables_number   1
_chemical_formula_structural   Cu4H15C9S3I(N4O)3
_chemical_formula_sum   'Cu8 H30 C18 S6 I2 N24 O6'
_cell_volume   1068.05792040
_cell_formula_units_Z   2
loop_
 _symmetry_equiv_pos_site_id
 _symmetry_equiv_pos_as_xyz
  1  'x, y, z'
loop_
 _atom_site_type_symbol
 _atom_site_label
 _atom_site_symmetry_multiplicity
 _atom_site_fract_x
 _atom_site_fract_y
 _atom_site_fract_z
 _atom_site_occupancy
 _atom_site_hle17_bader_spin_density
 _atom_site_hle17_ddec_charge
 _atom_site_hle17_ddec_spin_density
 _atom_site_hle17_ddec_sum_bond_order
 _atom_site_hle17_magmom
 _atom_site_hse06_10hf_bader_spin_density
 _atom_site_hse06_10hf_ddec_charge
 _atom_site_hse06_10hf_ddec_spin_density
 _atom_site_hse06_10hf_ddec_sum_bond_order
 _atom_site_hse06_10hf_magmom
 _atom_site_hse06_bader_spin_density
 _atom_site_hse06_ddec_charge
 _atom_site_hse06_ddec_spin_density
 _atom_site_hse06_ddec_sum_bond_order
 _atom_site_hse06_magmom
 _atom_site_pbe_bader_spin_density
 _atom_site_pbe_cm5_charge
 _atom_site_pbe_ddec_charge
 _atom_site_pbe_ddec_spin_density
 _atom_site_pbe_ddec_sum_bond_order
 _atom_site_pbe_magmom
Cu  Cu0  1  0.08164650  0.08165839  0.08165047  1  0  0.218955  0  2.431674  0  0  0.185865  0  2.880629  0  0  0.192355  0  2.829191  0  0  0.294824  0.180657  0  2.917149  0
Cu  Cu1  1  0.91834307  0.91835175  0.91834552  1  0  0.218859  0  2.431729  0  0  0.185781  0  2.880729  0  0  0.192256  0  2.829239  0  0  0.294792  0.180557  0  2.917253  0
Cu  Cu2  1  0.10291585  0.34859617  0.02611149  1  0  0.330821  0  2.100312  0  0  0.221985  0  2.607353  0  0  0.22281  0  2.560456  0  0  0.414597  0.224033  0  2.637612  0
Cu  Cu3  1  0.02612250  0.10294424  0.34860500  1  0  0.33075  0  2.100436  0  0  0.221938  0  2.607437  0  0  0.222774  0  2.560555  0  0  0.41458  0.224001  0  2.637679  0
Cu  Cu4  1  0.34859813  0.02611888  0.10292854  1  0  0.330858  0  2.10032  0  0  0.22201  0  2.607306  0  0  0.222825  0  2.560427  0  0  0.414604  0.224062  0  2.637557  0
Cu  Cu5  1  0.89706506  0.65139959  0.97387174  1  0  0.330795  0  2.100401  0  0  0.221969  0  2.607399  0  0  0.222758  0  2.560516  0  0  0.414586  0.224011  0  2.637639  0
Cu  Cu6  1  0.97387933  0.89708223  0.65139917  1  0  0.330933  0  2.100244  0  0  0.222112  0  2.607239  0  0  0.222885  0  2.560337  0  0  0.414595  0.224147  0  2.637492  0
Cu  Cu7  1  0.65140073  0.97388761  0.89706968  1  0  0.330765  0  2.100372  0  0  0.221937  0  2.607385  0  0  0.222744  0  2.560495  0  0  0.414619  0.223985  0  2.637631  0
H  H8  1  0.42507473  0.65611401  0.38628342  1  0  0.372742  0  0.920873  0  0  0.345378  0  0.998072  0  0  0.35514  0  0.986803  0  0  0.300044  0.3385  0  1.006043  0
H  H9  1  0.38629286  0.42505099  0.65612196  1  0  0.372567  0  0.92096  0  0  0.34523  0  0.998103  0  0  0.354983  0  0.986854  0  0  0.300003  0.338352  0  1.006072  0
H  H10  1  0.65618381  0.38625433  0.42506438  1  0  0.372542  0  0.92096  0  0  0.345163  0  0.998189  0  0  0.354924  0  0.986915  0  0  0.299872  0.338286  0  1.006156  0
H  H11  1  0.57495224  0.34386080  0.61372109  1  0  0.372636  0  0.920852  0  0  0.345227  0  0.998079  0  0  0.354977  0  0.986839  0  0  0.300029  0.338351  0  1.006048  0
H  H12  1  0.61373362  0.57491447  0.34386524  1  0  0.372795  0  0.920793  0  0  0.345443  0  0.997943  0  0  0.355199  0  0.986683  0  0  0.300082  0.338562  0  1.005915  0
H  H13  1  0.34386672  0.61371120  0.57493935  1  0  0.372586  0  0.920832  0  0  0.345229  0  0.998015  0  0  0.354986  0  0.986756  0  0  0.300001  0.338351  0  1.005984  0
H  H14  1  0.15855008  0.57765022  0.20404167  1  0  0.090778  0  0.920629  0  0  0.100394  0  0.993938  0  0  0.101905  0  0.99255  0  0  0.108705  0.099261  0  0.994784  0
H  H15  1  0.20403490  0.15853732  0.57764008  1  0  0.090801  0  0.920678  0  0  0.100455  0  0.993913  0  0  0.101967  0  0.992525  0  0  0.108745  0.09932  0  0.994764  0
H  H16  1  0.57758550  0.20409106  0.15855026  1  0  0.090954  0  0.92073  0  0  0.100478  0  0.994009  0  0  0.101988  0  0.99262  0  0  0.108736  0.099344  0  0.994857  0
H  H17  1  0.84145250  0.42239701  0.79596278  1  0  0.090833  0  0.920726  0  0  0.100497  0  0.993983  0  0  0.102012  0  0.992594  0  0  0.108707  0.099364  0  0.994832  0
H  H18  1  0.79594066  0.84145106  0.42236811  1  0  0.0908  0  0.920651  0  0  0.100388  0  0.993925  0  0  0.101896  0  0.992537  0  0  0.108739  0.099258  0  0.994768  0
H  H19  1  0.42236069  0.79594189  0.84145509  1  0  0.090829  0  0.920678  0  0  0.100439  0  0.993932  0  0  0.101948  0  0.992549  0  0  0.108729  0.099307  0  0.99478  0
H  H20  1  0.21949403  0.51445559  0.35661141  1  0  0.102579  0  0.937173  0  0  0.117606  0  0.997636  0  0  0.119077  0  0.997011  0  0  0.117663  0.116841  0  0.997561  0
H  H21  1  0.35660719  0.21947028  0.51445016  1  0  0.102599  0  0.937003  0  0  0.117584  0  0.997493  0  0  0.119059  0  0.996864  0  0  0.117655  0.116819  0  0.997417  0
H  H22  1  0.51445513  0.35665560  0.21954510  1  0  0.10255  0  0.937048  0  0  0.117567  0  0.997433  0  0  0.119007  0  0.996831  0  0  0.117594  0.116802  0  0.997359  0
H  H23  1  0.78050321  0.48555677  0.64338629  1  0  0.102515  0  0.937201  0  0  0.117558  0  0.997637  0  0  0.119035  0  0.997004  0  0  0.117632  0.116794  0  0.997561  0
H  H24  1  0.64337490  0.78048037  0.48554335  1  0  0.102462  0  0.937169  0  0  0.117513  0  0.997589  0  0  0.118955  0  0.996994  0  0  0.117613  0.116748  0  0.997516  0
H  H25  1  0.48554187  0.64337286  0.78050231  1  0  0.102522  0  0.937119  0  0  0.117528  0  0.997574  0  0  0.119012  0  0.996935  0  0  0.117641  0.116762  0  0.9975  0
H  H26  1  0.38756145  0.52500175  0.15787457  1  0  0.054174  0  0.934723  0  0  0.067126  0  1.004315  0  0  0.066973  0  1.004405  0  0  0.097601  0.066611  0  1.005307  0
H  H27  1  0.15788919  0.38755865  0.52498082  1  0  0.054293  0  0.934718  0  0  0.067208  0  1.004314  0  0  0.067055  0  1.004406  0  0  0.09766  0.066691  0  1.005307  0
H  H28  1  0.52495834  0.15790824  0.38757336  1  0  0.054212  0  0.934724  0  0  0.067289  0  1.004291  0  0  0.067135  0  1.00438  0  0  0.097636  0.066769  0  1.005287  0
H  H29  1  0.61243111  0.47503180  0.84210744  1  0  0.054204  0  0.934733  0  0  0.067195  0  1.004302  0  0  0.067036  0  1.004393  0  0  0.097615  0.066676  0  1.005297  0
H  H30  1  0.84212389  0.61243005  0.47500224  1  0  0.054182  0  0.934714  0  0  0.067191  0  1.004308  0  0  0.067028  0  1.004409  0  0  0.097643  0.066674  0  1.005304  0
H  H31  1  0.47501761  0.84210490  0.61243759  1  0  0.05429  0  0.934686  0  0  0.067243  0  1.004294  0  0  0.067084  0  1.00439  0  0  0.097667  0.066726  0  1.005289  0
H  H32  1  0.36601032  0.69862390  0.15161045  1  0  0.042525  0  0.976421  0  0  0.056114  0  1.04411  0  0  0.056053  0  1.045228  0  0  0.084369  0.055929  0  1.043786  0
H  H33  1  0.15160707  0.36599962  0.69861076  1  0  0.0425  0  0.976355  0  0  0.056077  0  1.044078  0  0  0.056015  0  1.045197  0  0  0.084327  0.055897  0  1.043744  0
H  H34  1  0.69858572  0.15154665  0.36597822  1  0  0.042663  0  0.976371  0  0  0.05621  0  1.044245  0  0  0.056149  0  1.045359  0  0  0.084331  0.056034  0  1.043903  0
H  H35  1  0.63400571  0.30140451  0.84841610  1  0  0.042637  0  0.976487  0  0  0.056222  0  1.044201  0  0  0.056157  0  1.045317  0  0  0.084412  0.056043  0  1.043865  0
H  H36  1  0.84841050  0.63399534  0.30138073  1  0  0.042512  0  0.976486  0  0  0.05609  0  1.044242  0  0  0.056024  0  1.045358  0  0  0.084378  0.055914  0  1.043901  0
H  H37  1  0.30139279  0.84840546  0.63399899  1  0  0.042589  0  0.976459  0  0  0.056201  0  1.044173  0  0  0.056139  0  1.045288  0  0  0.084368  0.05602  0  1.04384  0
C  C38  1  0.14955701  0.83862480  0.28325017  1  0  0.286076  0  3.760669  0  0  0.253813  0  4.044292  0  0  0.270125  0  4.058358  0  0  0.213347  0.241561  0  4.035888  0
C  C39  1  0.28324422  0.14954846  0.83861366  1  0  0.286126  0  3.760545  0  0  0.253805  0  4.044199  0  0  0.270115  0  4.058256  0  0  0.213369  0.241553  0  4.035797  0
C  C40  1  0.83861115  0.28324969  0.14955778  1  0  0.286076  0  3.760706  0  0  0.253661  0  4.044502  0  0  0.269964  0  4.058555  0  0  0.213292  0.241406  0  4.0361  0
C  C41  1  0.85045291  0.16140213  0.71676367  1  0  0.286192  0  3.760742  0  0  0.253919  0  4.044314  0  0  0.270221  0  4.058361  0  0  0.213375  0.241663  0  4.035916  0
C  C42  1  0.71674898  0.85044488  0.16137810  1  0  0.286025  0  3.760657  0  0  0.253771  0  4.044324  0  0  0.270079  0  4.058386  0  0  0.213345  0.241517  0  4.03592  0
C  C43  1  0.16137652  0.71675161  0.85044148  1  0  0.286172  0  3.760638  0  0  0.253903  0  4.044304  0  0  0.270216  0  4.058367  0  0  0.213363  0.241648  0  4.035902  0
C  C44  1  0.22191231  0.59610571  0.27990720  1  0  -0.055321  0  3.617685  0  0  -0.118397  0  3.873575  0  0  -0.115833  0  3.884203  0  0  -0.055464  -0.119917  0  3.865259  0
C  C45  1  0.27990257  0.22189745  0.59609752  1  0  -0.055316  0  3.617583  0  0  -0.118354  0  3.873397  0  0  -0.115792  0  3.884013  0  0  -0.055451  -0.119876  0  3.865088  0
C  C46  1  0.59608561  0.27992960  0.22192574  1  0  -0.055596  0  3.618051  0  0  -0.11831  0  3.873608  0  0  -0.115718  0  3.884234  0  0  -0.055429  -0.119834  0  3.865292  0
C  C47  1  0.77809263  0.40391884  0.72009585  1  0  -0.055262  0  3.617843  0  0  -0.118413  0  3.873802  0  0  -0.115861  0  3.884421  0  0  -0.055437  -0.119938  0  3.86549  0
C  C48  1  0.72008981  0.77807723  0.40389860  1  0  -0.05518  0  3.617634  0  0  -0.118082  0  3.873464  0  0  -0.115498  0  3.884094  0  0  -0.055386  -0.119606  0  3.865153  0
C  C49  1  0.40389706  0.72008467  0.77808425  1  0  -0.055367  0  3.617846  0  0  -0.11827  0  3.873649  0  0  -0.115716  0  3.884267  0  0  -0.055488  -0.119791  0  3.865332  0
C  C50  1  0.36208290  0.60821745  0.21814056  1  0  0.133415  0  3.659116  0  0  0.070714  0  3.935671  0  0  0.076915  0  3.94293  0  0  -0.080132  0.06675  0  3.931035  0
C  C51  1  0.21814386  0.36207289  0.60820111  1  0  0.133346  0  3.659028  0  0  0.070656  0  3.935602  0  0  0.076864  0  3.942849  0  0  -0.080092  0.066692  0  3.93097  0
C  C52  1  0.60820799  0.21812692  0.36208256  1  0  0.133291  0  3.659267  0  0  0.070101  0  3.93636  0  0  0.076319  0  3.943583  0  0  -0.080206  0.06614  0  3.931732  0
C  C53  1  0.63792282  0.39180134  0.78186798  1  0  0.133231  0  3.659164  0  0  0.070429  0  3.935844  0  0  0.076652  0  3.943073  0  0  -0.080195  0.066468  0  3.931214  0
C  C54  1  0.78186783  0.63790980  0.39177994  1  0  0.13344  0  3.659143  0  0  0.070483  0  3.936027  0  0  0.076705  0  3.943252  0  0  -0.08018  0.066513  0  3.931402  0
C  C55  1  0.39178924  0.78185779  0.63791465  1  0  0.133262  0  3.659272  0  0  0.070396  0  3.936012  0  0  0.076609  0  3.94325  0  0  -0.080124  0.066432  0  3.931382  0
S  S56  1  0.18904663  0.88235160  0.12054959  1  0  -0.338291  0  2.786027  0  0  -0.318863  0  3.256924  0  0  -0.327346  0  3.231644  0  0  -0.230148  -0.311953  0  3.271554  0
S  S57  1  0.12054642  0.18904471  0.88234379  1  0  -0.338212  0  2.786098  0  0  -0.318738  0  3.256974  0  0  -0.32725  0  3.231754  0  0  -0.230117  -0.311826  0  3.271599  0
S  S58  1  0.88234737  0.12055024  0.18906602  1  0  -0.33832  0  2.78604  0  0  -0.318794  0  3.256908  0  0  -0.327299  0  3.231673  0  0  -0.230114  -0.311886  0  3.271536  0
S  S59  1  0.81094212  0.11765976  0.87945611  1  0  -0.338222  0  2.786134  0  0  -0.318767  0  3.256979  0  0  -0.327259  0  3.23174  0  0  -0.230115  -0.311847  0  3.271599  0
S  S60  1  0.87944803  0.81094566  0.11764624  1  0  -0.338292  0  2.786075  0  0  -0.318849  0  3.256968  0  0  -0.327312  0  3.231668  0  0  -0.230133  -0.311939  0  3.271605  0
S  S61  1  0.11765145  0.87945171  0.81094739  1  0  -0.338292  0  2.78595  0  0  -0.318855  0  3.256837  0  0  -0.327324  0  3.231547  0  0  -0.230124  -0.311931  0  3.271452  0
I  I62  1  0.23485989  0.23486716  0.23485783  1  0  -0.402335  0  1.63502  0  0  -0.348217  0  2.114094  0  0  -0.359726  0  2.06838  0  0  -0.153998  -0.338857  0  2.144778  0
I  I63  1  0.76513970  0.76514904  0.76513326  1  0  -0.402303  0  1.635109  0  0  -0.348227  0  2.114255  0  0  -0.359691  0  2.068494  0  0  -0.154001  -0.338856  0  2.144936  0
N  N64  1  0.08668080  0.91236659  0.37603187  1  0  -0.278145  0  3.207456  0  0  -0.229886  0  3.532817  0  0  -0.238767  0  3.532388  0  0  -0.275261  -0.225856  0  3.534816  0
N  N65  1  0.37602837  0.08668094  0.91235780  1  0  -0.278389  0  3.207522  0  0  -0.230055  0  3.532863  0  0  -0.238918  0  3.532413  0  0  -0.275305  -0.226021  0  3.534861  0
N  N66  1  0.91234788  0.37602922  0.08667980  1  0  -0.278149  0  3.207652  0  0  -0.229833  0  3.533059  0  0  -0.238673  0  3.532592  0  0  -0.275176  -0.225801  0  3.535052  0
N  N67  1  0.91331755  0.08765695  0.62397698  1  0  -0.278612  0  3.207782  0  0  -0.23028  0  3.533137  0  0  -0.239112  0  3.532649  0  0  -0.275347  -0.226243  0  3.535136  0
N  N68  1  0.62396710  0.91332053  0.08764048  1  0  -0.278035  0  3.207436  0  0  -0.229732  0  3.532739  0  0  -0.238599  0  3.532301  0  0  -0.275213  -0.225697  0  3.534729  0
N  N69  1  0.08763370  0.62397062  0.91330772  1  0  -0.278272  0  3.207522  0  0  -0.229948  0  3.532871  0  0  -0.238825  0  3.532434  0  0  -0.275285  -0.22591  0  3.534864  0
N  N70  1  0.06285003  0.82877323  0.48559296  1  0  -0.031946  0  3.261355  0  0  0.00694  0  3.602817  0  0  0.011561  0  3.599125  0  0  -0.133278  0.002254  0  3.607756  0
N  N71  1  0.48558828  0.06284579  0.82876121  1  0  -0.031626  0  3.261584  0  0  0.007197  0  3.603077  0  0  0.011814  0  3.599392  0  0  -0.133177  0.002509  0  3.608014  0
N  N72  1  0.82874963  0.48559066  0.06284478  1  0  -0.03164  0  3.261449  0  0  0.00723  0  3.602915  0  0  0.011841  0  3.599219  0  0  -0.133098  0.002547  0  3.607845  0
N  N73  1  0.93716956  0.17125602  0.51442428  1  0  -0.031335  0  3.261158  0  0  0.007431  0  3.60275  0  0  0.012032  0  3.599066  0  0  -0.132958  0.00274  0  3.60769  0
N  N74  1  0.51440418  0.93714668  0.17123563  1  0  -0.031982  0  3.261753  0  0  0.006884  0  3.603217  0  0  0.0115  0  3.59953  0  0  -0.13326  0.002199  0  3.608155  0
N  N75  1  0.17122534  0.51440598  0.93714005  1  0  -0.031872  0  3.261256  0  0  0.00692  0  3.602786  0  0  0.011538  0  3.599104  0  0  -0.133296  0.002234  0  3.607724  0
N  N76  1  0.10899243  0.70874660  0.46614005  1  0  -0.078319  0  2.80789  0  0  -0.088959  0  3.085028  0  0  -0.083228  0  3.090972  0  0  -0.07451  -0.092427  0  3.08188  0
N  N77  1  0.46613647  0.10897757  0.70873788  1  0  -0.078553  0  2.807963  0  0  -0.089208  0  3.085147  0  0  -0.083482  0  3.091092  0  0  -0.074583  -0.092674  0  3.081997  0
N  N78  1  0.70873125  0.46614430  0.10899211  1  0  -0.078626  0  2.808026  0  0  -0.089324  0  3.085249  0  0  -0.083597  0  3.091195  0  0  -0.074672  -0.092793  0  3.0821  0
N  N79  1  0.89103419  0.29128082  0.53387558  1  0  -0.07871  0  2.807894  0  0  -0.089349  0  3.085124  0  0  -0.083626  0  3.091082  0  0  -0.074735  -0.092816  0  3.081975  0
N  N80  1  0.53385785  0.89099715  0.29125799  1  0  -0.078435  0  2.80805  0  0  -0.088998  0  3.08519  0  0  -0.083265  0  3.091126  0  0  -0.074509  -0.092471  0  3.082046  0
N  N81  1  0.29125060  0.53385471  0.89100133  1  0  -0.078418  0  2.807757  0  0  -0.088979  0  3.08492  0  0  -0.083241  0  3.090851  0  0  -0.074507  -0.092452  0  3.081776  0
N  N82  1  0.16481183  0.71365299  0.34118497  1  0  -0.007451  0  3.484436  0  0  0.079693  0  3.708081  0  0  0.066128  0  3.732411  0  0  -0.123759  0.089365  0  3.691609  0
N  N83  1  0.34118201  0.16479952  0.71364242  1  0  -0.00734  0  3.484229  0  0  0.079821  0  3.70787  0  0  0.066259  0  3.732195  0  0  -0.123797  0.089491  0  3.691401  0
N  N84  1  0.71363987  0.34119046  0.16482202  1  0  -0.007245  0  3.484286  0  0  0.079952  0  3.707791  0  0  0.066388  0  3.732112  0  0  -0.123742  0.089628  0  3.691318  0
N  N85  1  0.83519928  0.28637092  0.65882520  1  0  -0.007277  0  3.484248  0  0  0.079913  0  3.707829  0  0  0.066349  0  3.732166  0  0  -0.123683  0.089591  0  3.691354  0
N  N86  1  0.65881460  0.83518007  0.28634867  1  0  -0.007322  0  3.48431  0  0  0.079635  0  3.708156  0  0  0.066072  0  3.732476  0  0  -0.123835  0.089311  0  3.691685  0
N  N87  1  0.28634782  0.65881195  0.83518198  1  0  -0.007295  0  3.484139  0  0  0.07972  0  3.707888  0  0  0.066149  0  3.732225  0  0  -0.123697  0.089396  0  3.691415  0
O  O88  1  0.45577709  0.60193138  0.31207832  1  0  -0.562618  0  2.153705  0  0  -0.509661  0  2.393288  0  0  -0.525836  0  2.381631  0  0  -0.410779  -0.498344  0  2.401332  0
O  O89  1  0.31209081  0.45575594  0.60193493  1  0  -0.562469  0  2.153808  0  0  -0.509534  0  2.393411  0  0  -0.525706  0  2.381764  0  0  -0.410786  -0.498218  0  2.401454  0
O  O90  1  0.60201935  0.31204798  0.45579276  1  0  -0.562359  0  2.153548  0  0  -0.509181  0  2.39317  0  0  -0.525353  0  2.38151  0  0  -0.410534  -0.497865  0  2.401211  0
O  O91  1  0.54423796  0.39804404  0.68792368  1  0  -0.562465  0  2.153568  0  0  -0.509432  0  2.393229  0  0  -0.525606  0  2.381577  0  0  -0.410795  -0.49812  0  2.401272  0
O  O92  1  0.68793646  0.54420828  0.39804161  1  0  -0.562615  0  2.153496  0  0  -0.50953  0  2.393096  0  0  -0.525707  0  2.381429  0  0  -0.410815  -0.498213  0  2.401145  0
O  O93  1  0.39804149  0.68791615  0.54422255  1  0  -0.562432  0  2.153634  0  0  -0.509401  0  2.393266  0  0  -0.525574  0  2.381606  0  0  -0.410762  -0.498086  0  2.401308  0
