# generated using pymatgen
data_CuH14C13IN2
_symmetry_space_group_name_H-M   'P 1'
_cell_length_a   8.18034837
_cell_length_b   10.33786736
_cell_length_c   10.33788092
_cell_angle_alpha   79.63593929
_cell_angle_beta   84.85167166
_cell_angle_gamma   84.85175062
_symmetry_Int_Tables_number   1
_chemical_formula_structural   CuH14C13IN2
_chemical_formula_sum   'Cu2 H28 C26 I2 N4'
_cell_volume   854.09444039
_cell_formula_units_Z   2
loop_
 _symmetry_equiv_pos_site_id
 _symmetry_equiv_pos_as_xyz
  1  'x, y, z'
loop_
 _atom_site_type_symbol
 _atom_site_label
 _atom_site_symmetry_multiplicity
 _atom_site_fract_x
 _atom_site_fract_y
 _atom_site_fract_z
 _atom_site_occupancy
 _atom_site_pbe_bader_spin_density
 _atom_site_pbe_cm5_charge
 _atom_site_pbe_ddec_charge
 _atom_site_pbe_ddec_spin_density
 _atom_site_pbe_ddec_sum_bond_order
 _atom_site_pbe_magmom
Cu  Cu0  1  0.61946882  0.43691660  0.43691146  1  0  0.353903  0.202127  0  2.615487  0
Cu  Cu1  1  0.38052319  0.56307575  0.56308553  1  0  0.353909  0.202134  0  2.61551  0
H  H2  1  0.56038831  0.15608681  0.44035187  1  0  0.098025  0.066998  0  1.045498  0
H  H3  1  0.43959585  0.55965887  0.84390613  1  0  0.098035  0.067051  0  1.045504  0
H  H4  1  0.43959992  0.84390005  0.55966481  1  0  0.098023  0.06695  0  1.045467  0
H  H5  1  0.56038584  0.44035826  0.15608653  1  0  0.097996  0.06704  0  1.045509  0
H  H6  1  0.69004977  0.93345552  0.53436480  1  0  0.097515  0.106698  0  1.036192  0
H  H7  1  0.30994147  0.46565108  0.06654310  1  0  0.097575  0.106682  0  1.036196  0
H  H8  1  0.30994656  0.06653626  0.46565627  1  0  0.09753  0.106672  0  1.03619  0
H  H9  1  0.69004513  0.53436504  0.93345239  1  0  0.097493  0.106628  0  1.036103  0
H  H10  1  0.02701605  0.13347654  0.71266696  1  0  0.103466  0.11014  0  1.008598  0
H  H11  1  0.97299351  0.28730725  0.86654553  1  0  0.103468  0.110172  0  1.008768  0
H  H12  1  0.97299932  0.86653596  0.28731605  1  0  0.103502  0.110203  0  1.008719  0
H  H13  1  0.02701337  0.71267730  0.13346767  1  0  0.103439  0.110151  0  1.008556  0
H  H14  1  0.88018163  0.34685745  0.61459224  1  0  0.094746  0.067899  0  1.070507  0
H  H15  1  0.11982311  0.38537127  0.65315477  1  0  0.094835  0.068124  0  1.070385  0
H  H16  1  0.11982724  0.65314703  0.38538110  1  0  0.094807  0.068032  0  1.070427  0
H  H17  1  0.88017816  0.61460924  0.34684987  1  0  0.094825  0.068093  0  1.070363  0
H  H18  1  0.07877451  0.89507134  0.70694900  1  0  0.091142  0.092147  0  0.987121  0
H  H19  1  0.92122979  0.29304950  0.10493984  1  0  0.091157  0.092175  0  0.987108  0
H  H20  1  0.92123566  0.10493678  0.29305839  1  0  0.09117  0.092193  0  0.98699  0
H  H21  1  0.07877614  0.70695071  0.89506451  1  0  0.091134  0.092117  0  0.987167  0
H  H22  1  0.94797985  0.81312646  0.62579900  1  0  0.086889  0.097808  0  1.012634  0
H  H23  1  0.05202873  0.37420060  0.18688551  1  0  0.086839  0.097771  0  1.012678  0
H  H24  1  0.05204032  0.18688045  0.37420420  1  0  0.086837  0.097721  0  1.012657  0
H  H25  1  0.94797836  0.62580058  0.81311858  1  0  0.086869  0.097772  0  1.012617  0
H  H26  1  0.73341422  0.81256917  0.81256679  1  0  0.083641  0.079753  0  0.999031  0
H  H27  1  0.26659586  0.18742877  0.18742617  1  0  0.083607  0.079727  0  0.998999  0
H  H28  1  0.86011915  0.89579919  0.89579874  1  0  0.084881  0.077441  0  0.98172  0
H  H29  1  0.13987968  0.10419906  0.10420155  1  0  0.084898  0.077467  0  0.981703  0
C  C30  1  0.66372083  0.14592849  0.50229490  1  0  0.032449  0.083842  0  3.950807  0
C  C31  1  0.33626450  0.49770109  0.85407459  1  0  0.032345  0.083552  0  3.95108  0
C  C32  1  0.33626839  0.85406601  0.49770860  1  0  0.032444  0.083836  0  3.950824  0
C  C33  1  0.66371816  0.50230129  0.14592287  1  0  0.032424  0.083655  0  3.950964  0
C  C34  1  0.73552541  0.02308354  0.55531212  1  0  -0.090148  -0.183815  0  3.938792  0
C  C35  1  0.26446942  0.44469063  0.97692371  1  0  -0.090162  -0.183636  0  3.93859  0
C  C36  1  0.26447325  0.97691390  0.44469705  1  0  -0.090144  -0.183769  0  3.93864  0
C  C37  1  0.73552457  0.55532069  0.02308394  1  0  -0.090077  -0.183611  0  3.938878  0
C  C38  1  0.86890568  0.01428366  0.63350396  1  0  0.00919  0.168538  0  3.950533  0
C  C39  1  0.13108718  0.36649055  0.98571958  1  0  0.009184  0.168554  0  3.950327  0
C  C40  1  0.13109671  0.98571744  0.36649267  1  0  0.009164  0.168557  0  3.950441  0
C  C41  1  0.86890417  0.63350976  0.01427975  1  0  0.009156  0.168535  0  3.950569  0
C  C42  1  0.92201800  0.13336646  0.65450490  1  0  -0.092644  -0.197524  0  3.962968  0
C  C43  1  0.07797803  0.34547237  0.86664118  1  0  -0.092611  -0.197579  0  3.963097  0
C  C44  1  0.07798460  0.86663634  0.34547880  1  0  -0.092654  -0.197632  0  3.962951  0
C  C45  1  0.92201294  0.65451611  0.13335954  1  0  -0.092605  -0.197625  0  3.963048  0
C  C46  1  0.84322784  0.25242284  0.59906110  1  0  0.031245  0.083795  0  3.959298  0
C  C47  1  0.15677533  0.40091648  0.74758541  1  0  0.031107  0.083521  0  3.959384  0
C  C48  1  0.15677850  0.74757800  0.40092568  1  0  0.031163  0.083678  0  3.959378  0
C  C49  1  0.84322588  0.59908179  0.25241764  1  0  0.031128  0.083645  0  3.95924  0
C  C50  1  0.94917723  0.88392809  0.69336317  1  0  -0.162757  -0.204321  0  3.953039  0
C  C51  1  0.05082844  0.30663308  0.11608262  1  0  -0.16273  -0.204363  0  3.953101  0
C  C52  1  0.05083706  0.11607591  0.30663900  1  0  -0.162747  -0.204252  0  3.952913  0
C  C53  1  0.94917753  0.69336711  0.88392076  1  0  -0.162782  -0.204326  0  3.953034  0
C  C54  1  0.86232488  0.82628928  0.82628340  1  0  -0.160473  -0.120901  0  3.930099  0
C  C55  1  0.13768122  0.17371080  0.17371515  1  0  -0.16049  -0.120963  0  3.930179  0
I  I56  1  0.31146233  0.39880572  0.39879406  1  0  -0.23132  -0.440389  0  1.714703  0
I  I57  1  0.68852484  0.60120250  0.60120200  1  0  -0.231357  -0.440471  0  1.714633  0
N  N58  1  0.71545695  0.26051838  0.52318458  1  0  -0.364423  -0.191219  0  3.645442  0
N  N59  1  0.28453980  0.47679994  0.73948845  1  0  -0.364348  -0.191009  0  3.645389  0
N  N60  1  0.28454086  0.73947880  0.47681114  1  0  -0.364382  -0.191143  0  3.645645  0
N  N61  1  0.71545420  0.52319645  0.26051441  1  0  -0.364301  -0.191045  0  3.645137  0
