# generated using pymatgen
data_AgH13C15N8O3
_symmetry_space_group_name_H-M   'P 1'
_cell_length_a   9.14819929
_cell_length_b   9.31384073
_cell_length_c   11.82798797
_cell_angle_alpha   92.25566088
_cell_angle_beta   105.49632967
_cell_angle_gamma   115.90383400
_symmetry_Int_Tables_number   1
_chemical_formula_structural   AgH13C15N8O3
_chemical_formula_sum   'Ag2 H26 C30 N16 O6'
_cell_volume   859.31396053
_cell_formula_units_Z   2
loop_
 _symmetry_equiv_pos_site_id
 _symmetry_equiv_pos_as_xyz
  1  'x, y, z'
loop_
 _atom_site_type_symbol
 _atom_site_label
 _atom_site_symmetry_multiplicity
 _atom_site_fract_x
 _atom_site_fract_y
 _atom_site_fract_z
 _atom_site_occupancy
 _atom_site_hle17_bader_spin_density
 _atom_site_hle17_ddec_charge
 _atom_site_hle17_ddec_spin_density
 _atom_site_hle17_ddec_sum_bond_order
 _atom_site_hle17_magmom
 _atom_site_hse06_10hf_bader_spin_density
 _atom_site_hse06_10hf_ddec_charge
 _atom_site_hse06_10hf_ddec_spin_density
 _atom_site_hse06_10hf_ddec_sum_bond_order
 _atom_site_hse06_10hf_magmom
 _atom_site_hse06_bader_spin_density
 _atom_site_hse06_ddec_charge
 _atom_site_hse06_ddec_spin_density
 _atom_site_hse06_ddec_sum_bond_order
 _atom_site_hse06_magmom
 _atom_site_pbe_bader_spin_density
 _atom_site_pbe_cm5_charge
 _atom_site_pbe_ddec_charge
 _atom_site_pbe_ddec_spin_density
 _atom_site_pbe_ddec_sum_bond_order
 _atom_site_pbe_magmom
Ag  Ag0  1  0.37297380  0.59104451  0.33101477  1  0  0.541224  0  1.532853  0  0  0.396662  0  2.008498  0  0  0.419553  0  1.961831  0  0  0.497937  0.382062  0  2.03999  0
Ag  Ag1  1  0.62702775  0.40895645  0.66898520  1  0  0.541224  0  1.532868  0  0  0.396659  0  2.008528  0  0  0.419555  0  1.961855  0  0  0.497928  0.382063  0  2.040019  0
H  H2  1  0.24257975  0.41497576  0.55263820  1  0  0.107885  0  0.962141  0  0  0.113152  0  1.033345  0  0  0.115778  0  1.032148  0  0  0.104075  0.111156  0  1.034364  0
H  H3  1  0.75742007  0.58502398  0.44736222  1  0  0.107875  0  0.96215  0  0  0.113144  0  1.033355  0  0  0.11577  0  1.032157  0  0  0.104068  0.111149  0  1.034374  0
H  H4  1  0.04514404  0.27205533  0.66938740  1  0  0.08468  0  0.9752  0  0  0.093508  0  1.039781  0  0  0.095283  0  1.041216  0  0  0.095334  0.092185  0  1.038962  0
H  H5  1  0.95485687  0.72794200  0.33061232  1  0  0.084674  0  0.975215  0  0  0.093511  0  1.039789  0  0  0.095287  0  1.041224  0  0  0.095331  0.092191  0  1.038959  0
H  H6  1  0.73194083  0.13694995  0.57594459  1  0  0.10097  0  0.970379  0  0  0.114158  0  1.025869  0  0  0.116736  0  1.024637  0  0  0.101316  0.112308  0  1.026754  0
H  H7  1  0.26805841  0.86304858  0.42405397  1  0  0.100919  0  0.970334  0  0  0.11408  0  1.025875  0  0  0.116659  0  1.024643  0  0  0.101279  0.11223  0  1.026761  0
H  H8  1  0.59780223  0.12890079  0.36129490  1  0  0.121696  0  0.973671  0  0  0.126757  0  1.040296  0  0  0.130207  0  1.038393  0  0  0.106202  0.124275  0  1.04176  0
H  H9  1  0.40219760  0.87109895  0.63870467  1  0  0.121702  0  0.973674  0  0  0.126765  0  1.040299  0  0  0.130215  0  1.038395  0  0  0.106202  0.124281  0  1.041761  0
H  H10  1  0.69073741  0.26571253  0.04529362  1  0  0.111915  0  0.96774  0  0  0.112965  0  1.046337  0  0  0.116051  0  1.042938  0  0  0.134859  0.110744  0  1.048832  0
H  H11  1  0.30926360  0.73428964  0.95470712  1  0  0.111954  0  0.9677  0  0  0.113019  0  1.046286  0  0  0.116109  0  1.042881  0  0  0.134875  0.110794  0  1.048778  0
H  H12  1  0.55971864  0.15992632  0.13600104  1  0  0.115729  0  0.929088  0  0  0.123124  0  0.996322  0  0  0.125713  0  0.993467  0  0  0.137098  0.120372  0  1.000386  0
H  H13  1  0.44028292  0.84007465  0.86399893  1  0  0.115733  0  0.929088  0  0  0.123132  0  0.996321  0  0  0.125721  0  0.993466  0  0  0.13709  0.120376  0  1.000389  0
H  H14  1  0.62261633  0.86805641  0.20181971  1  0  0.113628  0  0.957864  0  0  0.12187  0  1.019963  0  0  0.124501  0  1.019052  0  0  0.107608  0.119536  0  1.02179  0
H  H15  1  0.37738178  0.13194213  0.79817777  1  0  0.113618  0  0.957833  0  0  0.121857  0  1.019938  0  0  0.124487  0  1.01903  0  0  0.107591  0.119522  0  1.021766  0
H  H16  1  0.82473204  0.00061237  0.08633303  1  0  0.097168  0  0.958812  0  0  0.105957  0  1.021323  0  0  0.109118  0  1.019675  0  0  0.100763  0.1039  0  1.022311  0
H  H17  1  0.17526379  0.99938616  0.91366482  1  0  0.097151  0  0.958791  0  0  0.105951  0  1.021285  0  0  0.109113  0  1.019635  0  0  0.100752  0.10389  0  1.022272  0
H  H18  1  0.95438352  0.85400042  0.00419350  1  0  0.092525  0  0.952288  0  0  0.106193  0  1.009141  0  0  0.108306  0  1.008934  0  0  0.104264  0.104656  0  1.009358  0
H  H19  1  0.04561631  0.14599932  0.99580607  1  0  0.092532  0  0.952281  0  0  0.1062  0  1.009136  0  0  0.108314  0  1.008927  0  0  0.104272  0.10466  0  1.009353  0
H  H20  1  0.87805816  0.56755940  0.02228751  1  0  0.137467  0  0.949046  0  0  0.143552  0  1.014417  0  0  0.147055  0  1.011843  0  0  0.115915  0.141084  0  1.016273  0
H  H21  1  0.12194565  0.43244156  0.97771463  1  0  0.137439  0  0.949107  0  0  0.143556  0  1.01444  0  0  0.147059  0  1.011867  0  0  0.115934  0.141087  0  1.016294  0
H  H22  1  0.81431298  0.78973313  0.76395697  1  0  0.1474  0  0.943527  0  0  0.158341  0  1.014987  0  0  0.160116  0  1.014291  0  0  0.111225  0.157081  0  1.015396  0
H  H23  1  0.18568688  0.21026904  0.23604437  1  0  0.14747  0  0.943578  0  0  0.15838  0  1.015034  0  0  0.160154  0  1.014339  0  0  0.11125  0.15712  0  1.015438  0
H  H24  1  0.74938703  0.94446982  0.76446349  1  0  0.163277  0  0.964399  0  0  0.171646  0  1.036365  0  0  0.174672  0  1.034284  0  0  0.112049  0.169492  0  1.037688  0
H  H25  1  0.25061284  0.05553235  0.23553617  1  0  0.163353  0  0.96438  0  0  0.171698  0  1.036327  0  0  0.174725  0  1.034249  0  0  0.112069  0.169545  0  1.037648  0
H  H26  1  0.91116439  0.96273146  0.69795864  1  0  0.148853  0  0.925845  0  0  0.168846  0  0.979243  0  0  0.170363  0  0.979988  0  0  0.112026  0.167737  0  0.978709  0
H  H27  1  0.08883490  0.03726950  0.30204086  1  0  0.148905  0  0.925837  0  0  0.168872  0  0.979223  0  0  0.17039  0  0.979968  0  0  0.112027  0.167765  0  0.978686  0
C  C28  1  0.02771053  0.35306312  0.39225179  1  0  0.101316  0  3.843739  0  0  0.103008  0  4.084611  0  0  0.101873  0  4.109909  0  0  0.088699  0.103586  0  4.067627  0
C  C29  1  0.97229047  0.64693904  0.60774979  1  0  0.101331  0  3.843723  0  0  0.103003  0  4.084627  0  0  0.101868  0  4.109925  0  0  0.088672  0.103579  0  4.067647  0
C  C30  1  0.10384770  0.35394083  0.51229949  1  0  -0.122019  0  3.730281  0  0  -0.138865  0  3.976697  0  0  -0.140386  0  3.998307  0  0  -0.087371  -0.137509  0  3.962189  0
C  C31  1  0.89615212  0.64605890  0.48770177  1  0  -0.121975  0  3.730187  0  0  -0.138822  0  3.976622  0  0  -0.140344  0  3.998232  0  0  -0.087333  -0.137464  0  3.962115  0
C  C32  1  0.99306602  0.27393077  0.57539462  1  0  -0.07022  0  3.751314  0  0  -0.087935  0  4.006705  0  0  -0.091276  0  4.029733  0  0  -0.096841  -0.08573  0  3.991119  0
C  C33  1  0.00693262  0.72606655  0.42460547  1  0  -0.07026  0  3.751274  0  0  -0.087978  0  4.00667  0  0  -0.091318  0  4.0297  0  0  -0.09686  -0.085777  0  3.991085  0
C  C34  1  0.81288534  0.19503203  0.52153874  1  0  -0.047243  0  3.728338  0  0  -0.063814  0  3.97848  0  0  -0.064438  0  3.99971  0  0  -0.085113  -0.063269  0  3.964192  0
C  C35  1  0.18711331  0.80496529  0.47846050  1  0  -0.047145  0  3.728222  0  0  -0.0637  0  3.978366  0  0  -0.064325  0  3.999597  0  0  -0.085088  -0.063154  0  3.964076  0
C  C36  1  0.73617319  0.19236343  0.40253884  1  0  -0.138287  0  3.735093  0  0  -0.155701  0  3.989228  0  0  -0.160406  0  4.009756  0  0  -0.09172  -0.152505  0  3.975404  0
C  C37  1  0.26382663  0.80763631  0.59746158  1  0  -0.138315  0  3.735079  0  0  -0.155733  0  3.989215  0  0  -0.160435  0  4.009733  0  0  -0.091713  -0.152535  0  3.975388  0
C  C38  1  0.84796938  0.27368953  0.33928819  1  0  0.096843  0  3.798594  0  0  0.080965  0  4.046676  0  0  0.085466  0  4.069755  0  0  0.103102  0.077964  0  4.030519  0
C  C39  1  0.15203217  0.72631143  0.66071263  1  0  0.096864  0  3.798676  0  0  0.080993  0  4.046763  0  0  0.085496  0  4.069842  0  0  0.103127  0.077986  0  4.030611  0
C  C40  1  0.66848877  0.27209502  0.13172212  1  0  0.056817  0  3.595762  0  0  -0.023358  0  3.847825  0  0  -0.015208  0  3.85423  0  0  0.064818  -0.028971  0  3.844797  0
C  C41  1  0.33151278  0.72790594  0.86827869  1  0  0.056758  0  3.595734  0  0  -0.023439  0  3.84779  0  0  -0.015289  0  3.854195  0  0  0.064811  -0.029035  0  3.844756  0
C  C42  1  0.63047116  0.64057281  0.16966813  1  0  0.107623  0  3.836637  0  0  0.10511  0  4.088576  0  0  0.105247  0  4.111172  0  0  0.091277  0.105033  0  4.072956  0
C  C43  1  0.36952921  0.35942573  0.83033152  1  0  0.107491  0  3.836793  0  0  0.105087  0  4.08863  0  0  0.105224  0  4.111226  0  0  0.091295  0.105012  0  4.073026  0
C  C44  1  0.67505265  0.80323238  0.16061511  1  0  -0.126831  0  3.72222  0  0  -0.145552  0  3.970534  0  0  -0.146654  0  3.990253  0  0  -0.089582  -0.14438  0  3.957337  0
C  C45  1  0.32494778  0.19676858  0.83938378  1  0  -0.126771  0  3.722287  0  0  -0.145519  0  3.970572  0  0  -0.146623  0  3.990293  0  0  -0.08957  -0.144351  0  3.957374  0
C  C46  1  0.79008263  0.87595773  0.09893148  1  0  -0.069549  0  3.754097  0  0  -0.084872  0  4.0091  0  0  -0.087971  0  4.031351  0  0  -0.092375  -0.082936  0  3.993654  0
C  C47  1  0.20991547  0.12404081  0.90106685  1  0  -0.069567  0  3.754009  0  0  -0.084893  0  4.009006  0  0  -0.08799  0  4.031255  0  0  -0.092389  -0.082946  0  3.993545  0
C  C48  1  0.86168228  0.79111845  0.04976675  1  0  -0.04624  0  3.727818  0  0  -0.064465  0  3.981812  0  0  -0.066099  0  4.004797  0  0  -0.085414  -0.063096  0  3.966047  0
C  C49  1  0.13831759  0.20888372  0.95023291  1  0  -0.04625  0  3.727803  0  0  -0.064476  0  3.981795  0  0  -0.066111  0  4.004781  0  0  -0.085422  -0.063101  0  3.966019  0
C  C50  1  0.82062736  0.63077815  0.05903289  1  0  -0.126704  0  3.702981  0  0  -0.149164  0  3.9642  0  0  -0.152446  0  3.983758  0  0  -0.084221  -0.147109  0  3.950946  0
C  C51  1  0.17937420  0.36922281  0.94096624  1  0  -0.126697  0  3.703079  0  0  -0.149164  0  3.964318  0  0  -0.152446  0  3.983876  0  0  -0.084229  -0.147102  0  3.951073  0
C  C52  1  0.70143631  0.55685066  0.11925090  1  0  0.095207  0  3.778644  0  0  0.077195  0  4.033369  0  0  0.081636  0  4.055375  0  0  0.103781  0.074706  0  4.018339  0
C  C53  1  0.29856292  0.44314787  0.88074936  1  0  0.09531  0  3.778557  0  0  0.077194  0  4.033383  0  0  0.081634  0  4.055389  0  0  0.103755  0.074675  0  4.018398  0
C  C54  1  0.66087396  0.79348308  0.60013033  1  0  0.42364  0  3.707793  0  0  0.404823  0  3.998165  0  0  0.419257  0  4.011965  0  0  0.211933  0.394915  0  3.988726  0
C  C55  1  0.33912705  0.20651909  0.39987041  1  0  0.423714  0  3.707751  0  0  0.404863  0  3.998088  0  0  0.419297  0  4.011887  0  0  0.212003  0.394956  0  3.98865  0
C  C56  1  0.79191089  0.87811291  0.71293929  1  0  -0.384499  0  3.751511  0  0  -0.453778  0  3.985799  0  0  -0.45753  0  3.989577  0  0  -0.215824  -0.450828  0  3.982833  0
C  C57  1  0.20808898  0.12188925  0.28706121  1  0  -0.38478  0  3.751682  0  0  -0.453939  0  3.985852  0  0  -0.457691  0  3.989629  0  0  -0.215894  -0.450991  0  3.982883  0
N  N58  1  0.82435764  0.30012392  0.22369625  1  0  -0.024248  0  3.490551  0  0  0.054032  0  3.728345  0  0  0.040456  0  3.75227  0  0  -0.128243  0.063113  0  3.71174  0
N  N59  1  0.17564332  0.69987583  0.77630356  1  0  -0.024228  0  3.490565  0  0  0.054035  0  3.728375  0  0  0.040459  0  3.7523  0  0  -0.128254  0.06312  0  3.711766  0
N  N60  1  0.97724011  0.39098771  0.20633351  1  0  -0.04328  0  2.83686  0  0  -0.054047  0  3.118798  0  0  -0.045913  0  3.127159  0  0  -0.07001  -0.059234  0  3.11297  0
N  N61  1  0.02276144  0.60901325  0.79366730  1  0  -0.04329  0  2.836784  0  0  -0.053997  0  3.118654  0  0  -0.045864  0  3.127015  0  0  -0.069995  -0.059184  0  3.112825  0
N  N62  1  0.09880268  0.42210523  0.30629148  1  0  -0.234739  0  3.248398  0  0  -0.179387  0  3.569682  0  0  -0.188688  0  3.577429  0  0  -0.217217  -0.173162  0  3.564338  0
N  N63  1  0.90119833  0.57789694  0.69370926  1  0  -0.234787  0  3.248373  0  0  -0.17946  0  3.569681  0  0  -0.188762  0  3.577429  0  0  -0.217218  -0.173233  0  3.56434  0
N  N64  1  0.62914321  0.40506738  0.14777330  1  0  -0.017583  0  3.496403  0  0  0.060067  0  3.732409  0  0  0.046496  0  3.757749  0  0  -0.127444  0.068894  0  3.715305  0
N  N65  1  0.37085774  0.59493236  0.85222735  1  0  -0.017579  0  3.496342  0  0  0.060095  0  3.732374  0  0  0.046524  0  3.757715  0  0  -0.127423  0.068932  0  3.715274  0
N  N66  1  0.52389399  0.39579674  0.21222012  1  0  -0.060348  0  2.87219  0  0  -0.059326  0  3.148081  0  0  -0.053451  0  3.159643  0  0  -0.065651  -0.062962  0  3.140301  0
N  N67  1  0.47610583  0.60420301  0.78778029  1  0  -0.060335  0  2.872176  0  0  -0.059311  0  3.148067  0  0  -0.053435  0  3.15963  0  0  -0.065637  -0.062942  0  3.140281  0
N  N68  1  0.52305455  0.53531019  0.22496593  1  0  -0.22887  0  3.207972  0  0  -0.178603  0  3.524776  0  0  -0.187132  0  3.532236  0  0  -0.21182  -0.172833  0  3.519685  0
N  N69  1  0.47694527  0.46468955  0.77503448  1  0  -0.228833  0  3.207984  0  0  -0.178596  0  3.524765  0  0  -0.187126  0  3.532227  0  0  -0.211817  -0.172825  0  3.519676  0
N  N70  1  0.31509329  0.82867183  0.16356612  1  0  0.681962  0  4.164722  0  0  0.713526  0  4.457299  0  0  0.739647  0  4.464329  0  0  0.086116  0.694739  0  4.452552  0
N  N71  1  0.68490712  0.17132912  0.83643445  1  0  0.681995  0  4.164789  0  0  0.7135  0  4.457422  0  0  0.739628  0  4.464453  0  0  0.086107  0.694717  0  4.45267  0
N  N72  1  0.55547009  0.72632309  0.50876665  1  0  -0.463203  0  2.92113  0  0  -0.417305  0  3.234681  0  0  -0.432056  0  3.235934  0  0  -0.349252  -0.407931  0  3.234168  0
N  N73  1  0.44452746  0.27367664  0.49123329  1  0  -0.463202  0  2.921066  0  0  -0.417307  0  3.234635  0  0  -0.432057  0  3.235882  0  0  -0.349296  -0.407934  0  3.234123  0
O  O74  1  0.25227388  0.68361805  0.11233442  1  0  -0.463278  0  1.795964  0  0  -0.455187  0  2.032163  0  0  -0.469396  0  2.024794  0  0  -0.186772  -0.444904  0  2.037133  0
O  O75  1  0.74772653  0.31638290  0.88766615  1  0  -0.463306  0  1.79601  0  0  -0.455189  0  2.032178  0  0  -0.469399  0  2.024812  0  0  -0.186783  -0.444907  0  2.037149  0
O  O76  1  0.38347860  0.86616419  0.27678563  1  0  -0.493516  0  1.79454  0  0  -0.467387  0  2.023113  0  0  -0.483351  0  2.014256  0  0  -0.201875  -0.455868  0  2.02916  0
O  O77  1  0.61652181  0.13383676  0.72321579  1  0  -0.4935  0  1.794567  0  0  -0.467356  0  2.023169  0  0  -0.483324  0  2.014312  0  0  -0.201862  -0.455839  0  2.029218  0
O  O78  1  0.31353544  0.93839811  0.10343659  1  0  -0.487165  0  1.746708  0  0  -0.476718  0  1.961294  0  0  -0.491144  0  1.955966  0  0  -0.203657  -0.466326  0  1.965715  0
O  O79  1  0.68646325  0.06160163  0.89656358  1  0  -0.487191  0  1.746712  0  0  -0.476706  0  1.961302  0  0  -0.491134  0  1.955971  0  0  -0.203649  -0.466315  0  1.965726  0
