# generated using pymatgen
data_AgH4C7SN2
_symmetry_space_group_name_H-M   'P 1'
_cell_length_a   4.06588467
_cell_length_b   8.85449563
_cell_length_c   20.54040841
_cell_angle_alpha   89.99986155
_cell_angle_beta   89.99990393
_cell_angle_gamma   97.22770363
_symmetry_Int_Tables_number   1
_chemical_formula_structural   AgH4C7SN2
_chemical_formula_sum   'Ag4 H16 C28 S4 N8'
_cell_volume   733.60665596
_cell_formula_units_Z   4
loop_
 _symmetry_equiv_pos_site_id
 _symmetry_equiv_pos_as_xyz
  1  'x, y, z'
loop_
 _atom_site_type_symbol
 _atom_site_label
 _atom_site_symmetry_multiplicity
 _atom_site_fract_x
 _atom_site_fract_y
 _atom_site_fract_z
 _atom_site_occupancy
 _atom_site_hle17_bader_spin_density
 _atom_site_hle17_ddec_charge
 _atom_site_hle17_ddec_spin_density
 _atom_site_hle17_ddec_sum_bond_order
 _atom_site_hle17_magmom
 _atom_site_hse06_10hf_bader_spin_density
 _atom_site_hse06_10hf_ddec_charge
 _atom_site_hse06_10hf_ddec_spin_density
 _atom_site_hse06_10hf_ddec_sum_bond_order
 _atom_site_hse06_10hf_magmom
 _atom_site_hse06_bader_spin_density
 _atom_site_hse06_ddec_charge
 _atom_site_hse06_ddec_spin_density
 _atom_site_hse06_ddec_sum_bond_order
 _atom_site_hse06_magmom
 _atom_site_pbe_bader_spin_density
 _atom_site_pbe_cm5_charge
 _atom_site_pbe_ddec_charge
 _atom_site_pbe_ddec_spin_density
 _atom_site_pbe_ddec_sum_bond_order
 _atom_site_pbe_magmom
Ag  Ag0  1  0.16921581  0.30692397  0.15636428  1  0  0.459426  0  1.793685  0  0  0.344773  0  2.295472  0  0  0.361841  0  2.253922  0  0  0.424198  0.33394  0  2.323642  0
Ag  Ag1  1  0.33078587  0.19307556  0.65636459  1  0  0.459438  0  1.793412  0  0  0.344786  0  2.295165  0  0  0.361857  0  2.253612  0  0  0.424184  0.333957  0  2.32334  0
Ag  Ag2  1  0.83078551  0.69307589  0.84363560  1  0  0.459367  0  1.793773  0  0  0.344712  0  2.295574  0  0  0.36178  0  2.254026  0  0  0.424182  0.333881  0  2.323745  0
Ag  Ag3  1  0.66921791  0.80692430  0.34363577  1  0  0.459431  0  1.793545  0  0  0.34478  0  2.295312  0  0  0.361852  0  2.253759  0  0  0.42419  0.333956  0  2.323488  0
H  H4  1  0.95931945  0.17915849  0.03836121  1  0  0.097152  0  0.998519  0  0  0.105417  0  1.069115  0  0  0.108975  0  1.066565  0  0  0.088653  0.102776  0  1.071128  0
H  H5  1  0.54068443  0.32084168  0.53836100  1  0  0.097154  0  0.998469  0  0  0.105444  0  1.069046  0  0  0.109002  0  1.066496  0  0  0.088659  0.102802  0  1.071064  0
H  H6  1  0.04068711  0.82084249  0.96163867  1  0  0.097162  0  0.99846  0  0  0.105449  0  1.069042  0  0  0.109007  0  1.066492  0  0  0.08866  0.102806  0  1.07106  0
H  H7  1  0.45931658  0.67915704  0.46163888  1  0  0.097155  0  0.998493  0  0  0.105424  0  1.069086  0  0  0.108982  0  1.066536  0  0  0.088651  0.102783  0  1.071099  0
H  H8  1  0.98474832  0.20813147  0.82848666  1  0  0.103483  0  0.937878  0  0  0.116616  0  0.991114  0  0  0.118139  0  0.992155  0  0  0.107554  0.115417  0  0.990596  0
H  H9  1  0.51525388  0.29187145  0.32848593  1  0  0.103472  0  0.937886  0  0  0.11659  0  0.991136  0  0  0.118114  0  0.992175  0  0  0.107522  0.115389  0  0.990613  0
H  H10  1  0.01525397  0.79187180  0.17151321  1  0  0.103458  0  0.937884  0  0  0.116578  0  0.991125  0  0  0.118101  0  0.992165  0  0  0.107528  0.115379  0  0.990605  0
H  H11  1  0.48474531  0.70812955  0.67151395  1  0  0.103481  0  0.937883  0  0  0.116603  0  0.991129  0  0  0.118127  0  0.992169  0  0  0.107533  0.115401  0  0.990606  0
H  H12  1  0.39350155  0.44087106  0.83418322  1  0  0.107181  0  0.976269  0  0  0.115034  0  1.044834  0  0  0.118286  0  1.042542  0  0  0.100483  0.112601  0  1.046672  0
H  H13  1  0.10649714  0.05913193  0.33418318  1  0  0.107186  0  0.976261  0  0  0.11504  0  1.044813  0  0  0.118293  0  1.042521  0  0  0.100475  0.112606  0  1.046654  0
H  H14  1  0.60649828  0.55913222  0.16581666  1  0  0.10719  0  0.976274  0  0  0.115043  0  1.044828  0  0  0.118296  0  1.042537  0  0  0.100478  0.112606  0  1.04667  0
H  H15  1  0.89349958  0.94086908  0.66581621  1  0  0.107201  0  0.976268  0  0  0.115057  0  1.044822  0  0  0.11831  0  1.042531  0  0  0.100492  0.112623  0  1.04666  0
H  H16  1  0.77159295  0.07666716  0.92971406  1  0  0.086879  0  0.9783  0  0  0.095287  0  1.044268  0  0  0.097501  0  1.044431  0  0  0.091541  0.09363  0  1.044306  0
H  H17  1  0.72840790  0.42333400  0.42971409  1  0  0.08688  0  0.978349  0  0  0.095292  0  1.044316  0  0  0.097505  0  1.044479  0  0  0.091544  0.093647  0  1.04434  0
H  H18  1  0.22840559  0.92333156  0.07028581  1  0  0.086868  0  0.978365  0  0  0.095281  0  1.044326  0  0  0.097494  0  1.044491  0  0  0.091548  0.093638  0  1.044351  0
H  H19  1  0.27159653  0.57666813  0.57028578  1  0  0.08686  0  0.978385  0  0  0.095272  0  1.044343  0  0  0.097484  0  1.044509  0  0  0.09154  0.093629  0  1.044368  0
C  C20  1  0.27837758  0.37088801  0.99866296  1  0  0.175361  0  3.766408  0  0  0.173266  0  4.006884  0  0  0.177881  0  4.028139  0  0  0.115098  0.17004  0  3.992627  0
C  C21  1  0.22162371  0.12911167  0.49866233  1  0  0.175362  0  3.766422  0  0  0.173248  0  4.006928  0  0  0.177863  0  4.028183  0  0  0.115089  0.170023  0  3.992672  0
C  C22  1  0.72162439  0.62911413  0.00133692  1  0  0.175285  0  3.766462  0  0  0.173199  0  4.006949  0  0  0.177813  0  4.028204  0  0  0.115083  0.169975  0  3.99269  0
C  C23  1  0.77837451  0.87088591  0.50133706  1  0  0.175339  0  3.766475  0  0  0.173251  0  4.006949  0  0  0.177866  0  4.028205  0  0  0.115098  0.170027  0  3.992692  0
C  C24  1  0.05019299  0.23584197  0.99353513  1  0  -0.147038  0  3.70949  0  0  -0.164945  0  3.955498  0  0  -0.169993  0  3.976282  0  0  -0.0958  -0.161569  0  3.941624  0
C  C25  1  0.44981081  0.26415774  0.49353477  1  0  -0.147062  0  3.709459  0  0  -0.164982  0  3.955456  0  0  -0.17003  0  3.97624  0  0  -0.0958  -0.161606  0  3.941584  0
C  C26  1  0.94981079  0.76415789  0.00646475  1  0  -0.147034  0  3.709423  0  0  -0.164953  0  3.955411  0  0  -0.169999  0  3.976195  0  0  -0.095815  -0.16158  0  3.941543  0
C  C27  1  0.55019297  0.73584211  0.50646463  1  0  -0.147077  0  3.70949  0  0  -0.164996  0  3.955513  0  0  -0.170044  0  3.976296  0  0  -0.095825  -0.161621  0  3.941641  0
C  C28  1  0.62704933  0.02704818  0.21184523  1  0  0.296672  0  3.953261  0  0  0.283919  0  4.2427  0  0  0.302369  0  4.257522  0  0  0.152666  0.27117  0  4.232485  0
C  C29  1  0.87294572  0.47295206  0.71184378  1  0  0.296291  0  3.953456  0  0  0.283531  0  4.242921  0  0  0.301979  0  4.257748  0  0  0.152412  0.270779  0  4.23269  0
C  C30  1  0.37294558  0.97295510  0.78815075  1  0  0.296667  0  3.953627  0  0  0.28391  0  4.243054  0  0  0.302355  0  4.257872  0  0  0.152694  0.271161  0  4.232841  0
C  C31  1  0.12705004  0.52704553  0.28815658  1  0  0.296328  0  3.953309  0  0  0.283568  0  4.242778  0  0  0.302018  0  4.257603  0  0  0.152423  0.270815  0  4.232546  0
C  C32  1  0.07069067  0.25429661  0.87551409  1  0  -0.025588  0  3.709212  0  0  -0.040561  0  3.955041  0  0  -0.042528  0  3.978573  0  0  -0.074191  -0.039268  0  3.939315  0
C  C33  1  0.42931007  0.24570611  0.37551424  1  0  -0.025553  0  3.709249  0  0  -0.040494  0  3.955029  0  0  -0.04246  0  3.978563  0  0  -0.074121  -0.039193  0  3.939292  0
C  C34  1  0.92930884  0.74570553  0.12448627  1  0  -0.025539  0  3.709243  0  0  -0.040466  0  3.955018  0  0  -0.042432  0  3.978548  0  0  -0.074135  -0.039175  0  3.939288  0
C  C35  1  0.57068976  0.75429716  0.62448661  1  0  -0.025562  0  3.709218  0  0  -0.040519  0  3.955029  0  0  -0.042483  0  3.978556  0  0  -0.074154  -0.039221  0  3.939296  0
C  C36  1  0.40678024  0.44559708  0.93954674  1  0  0.170757  0  3.77301  0  0  0.169354  0  4.01363  0  0  0.173953  0  4.034459  0  0  0.115852  0.166156  0  3.999718  0
C  C37  1  0.09322198  0.05440410  0.43954672  1  0  0.170799  0  3.773016  0  0  0.169394  0  4.013626  0  0  0.173994  0  4.034455  0  0  0.115882  0.166196  0  3.999719  0
C  C38  1  0.59322205  0.55440619  0.06045313  1  0  0.170837  0  3.77303  0  0  0.169422  0  4.01364  0  0  0.174021  0  4.034469  0  0  0.115877  0.166223  0  3.999725  0
C  C39  1  0.90677656  0.94559462  0.56045316  1  0  0.170793  0  3.773068  0  0  0.169379  0  4.013679  0  0  0.173979  0  4.034509  0  0  0.115865  0.166181  0  3.999769  0
C  C40  1  0.29535287  0.38355259  0.87833331  1  0  -0.139898  0  3.709988  0  0  -0.159778  0  3.964334  0  0  -0.164083  0  3.984194  0  0  -0.086867  -0.156968  0  3.951267  0
C  C41  1  0.20464784  0.11645012  0.37833269  1  0  -0.139919  0  3.710012  0  0  -0.159807  0  3.964345  0  0  -0.164114  0  3.984205  0  0  -0.086895  -0.156993  0  3.951276  0
C  C42  1  0.70464696  0.61645069  0.12166706  1  0  -0.139964  0  3.710051  0  0  -0.159862  0  3.964395  0  0  -0.164168  0  3.984255  0  0  -0.086922  -0.157048  0  3.951323  0
C  C43  1  0.79535167  0.88355202  0.62166670  1  0  -0.139947  0  3.710089  0  0  -0.159833  0  3.964434  0  0  -0.16414  0  3.984297  0  0  -0.086901  -0.157019  0  3.951361  0
C  C44  1  0.94943921  0.17929252  0.93357320  1  0  -0.034425  0  3.73636  0  0  -0.048107  0  3.983117  0  0  -0.049385  0  4.005895  0  0  -0.080375  -0.047237  0  3.967802  0
C  C45  1  0.55056192  0.32070975  0.43357291  1  0  -0.034436  0  3.736415  0  0  -0.048134  0  3.98317  0  0  -0.049412  0  4.005946  0  0  -0.080399  -0.047271  0  3.96784  0
C  C46  1  0.05056340  0.82071189  0.06642716  1  0  -0.034423  0  3.736337  0  0  -0.048128  0  3.983099  0  0  -0.049406  0  4.005876  0  0  -0.080384  -0.047268  0  3.967775  0
C  C47  1  0.44943138  0.67928784  0.56642697  1  0  -0.03438  0  3.736284  0  0  -0.048065  0  3.983032  0  0  -0.049341  0  4.005806  0  0  -0.080343  -0.047204  0  3.967707  0
S  S48  1  0.61799852  0.12820218  0.14502567  1  0  -0.33816  0  2.594888  0  0  -0.294199  0  3.031156  0  0  -0.307698  0  3.011001  0  0  -0.158575  -0.284429  0  3.044936  0
S  S49  1  0.88200064  0.37180189  0.64502530  1  0  -0.338062  0  2.594998  0  0  -0.294096  0  3.031273  0  0  -0.307596  0  3.01112  0  0  -0.158539  -0.284327  0  3.04505  0
S  S50  1  0.38200184  0.87179426  0.85497567  1  0  -0.338172  0  2.594617  0  0  -0.294203  0  3.030884  0  0  -0.307704  0  3.010728  0  0  -0.158566  -0.284428  0  3.044661  0
S  S51  1  0.11799823  0.62819798  0.35497507  1  0  -0.338036  0  2.594941  0  0  -0.294069  0  3.03121  0  0  -0.30757  0  3.011057  0  0  -0.158533  -0.284304  0  3.044989  0
N  N52  1  0.37254241  0.42727086  0.05777413  1  0  -0.327855  0  3.182536  0  0  -0.268294  0  3.457367  0  0  -0.280651  0  3.470172  0  0  -0.305953  -0.260002  0  3.448754  0
N  N53  1  0.12745783  0.07272928  0.55777366  1  0  -0.327856  0  3.182531  0  0  -0.268295  0  3.45737  0  0  -0.280653  0  3.470175  0  0  -0.305962  -0.260005  0  3.448761  0
N  N54  1  0.62745956  0.57273127  0.94222624  1  0  -0.327782  0  3.182466  0  0  -0.268245  0  3.457308  0  0  -0.280602  0  3.470113  0  0  -0.305974  -0.259956  0  3.448696  0
N  N55  1  0.87254318  0.92726944  0.44222573  1  0  -0.32785  0  3.182529  0  0  -0.268287  0  3.457347  0  0  -0.280646  0  3.470154  0  0  -0.305981  -0.259996  0  3.448737  0
N  N56  1  0.63490439  0.95039971  0.25862425  1  0  -0.483975  0  2.986486  0  0  -0.427805  0  3.289412  0  0  -0.444631  0  3.29335  0  0  -0.394259  -0.41629  0  3.286491  0
N  N57  1  0.86508366  0.54960445  0.75862567  1  0  -0.483678  0  2.986498  0  0  -0.427502  0  3.289407  0  0  -0.444324  0  3.293348  0  0  -0.39405  -0.415979  0  3.286465  0
N  N58  1  0.36508731  0.04959219  0.74137952  1  0  -0.483899  0  2.987038  0  0  -0.427727  0  3.289942  0  0  -0.444548  0  3.293874  0  0  -0.394265  -0.416211  0  3.28702  0
N  N59  1  0.13491243  0.45039428  0.24137372  1  0  -0.483745  0  2.986395  0  0  -0.427569  0  3.289296  0  0  -0.444394  0  3.293237  0  0  -0.394071  -0.416045  0  3.286353  0
