# generated using pymatgen
data_ZnH19C25(NO2)3
_symmetry_space_group_name_H-M   'P 1'
_cell_length_a   8.62955863
_cell_length_b   10.17425845
_cell_length_c   14.04210000
_cell_angle_alpha   72.74896586
_cell_angle_beta   72.30464941
_cell_angle_gamma   89.26556297
_symmetry_Int_Tables_number   1
_chemical_formula_structural   ZnH19C25(NO2)3
_chemical_formula_sum   'Zn2 H38 C50 N6 O12'
_cell_volume   1117.65870577
_cell_formula_units_Z   2
loop_
 _symmetry_equiv_pos_site_id
 _symmetry_equiv_pos_as_xyz
  1  'x, y, z'
loop_
 _atom_site_type_symbol
 _atom_site_label
 _atom_site_symmetry_multiplicity
 _atom_site_fract_x
 _atom_site_fract_y
 _atom_site_fract_z
 _atom_site_occupancy
 _atom_site_hle17_bader_spin_density
 _atom_site_hle17_ddec_charge
 _atom_site_hle17_ddec_spin_density
 _atom_site_hle17_ddec_sum_bond_order
 _atom_site_hle17_magmom
 _atom_site_hse06_10hf_bader_spin_density
 _atom_site_hse06_10hf_ddec_charge
 _atom_site_hse06_10hf_ddec_spin_density
 _atom_site_hse06_10hf_ddec_sum_bond_order
 _atom_site_hse06_10hf_magmom
 _atom_site_hse06_bader_spin_density
 _atom_site_hse06_ddec_charge
 _atom_site_hse06_ddec_spin_density
 _atom_site_hse06_ddec_sum_bond_order
 _atom_site_hse06_magmom
 _atom_site_pbe_bader_charge
 _atom_site_pbe_bader_spin_density
 _atom_site_pbe_cm5_charge
 _atom_site_pbe_ddec_charge
 _atom_site_pbe_ddec_spin_density
 _atom_site_pbe_ddec_sum_bond_order
 _atom_site_pbe_magmom
Zn  Zn0  1  0.53452887  0.73260077  0.50835183  1  0  1.079041  0  1.801373  0  0  0.903111  0  2.247488  0  0  0.94796  0  2.196105  0  1.341059  0  0.694934  0.871165  0  2.283324  0
Zn  Zn1  1  0.46547126  0.26739901  0.49164891  1  0  1.07904  0  1.801404  0  0  0.903121  0  2.247513  0  0  0.947967  0  2.196132  0  1.341059  0  0.694945  0.871174  0  2.283348  0
H  H2  1  0.63770446  0.97275582  0.54933989  1  0  0.432994  0  0.87638  0  0  0.397245  0  0.946888  0  0  0.40945  0  0.929298  0  0.647028  0  0.286689  0.388377  0  0.959617  0
H  H3  1  0.36229689  0.02724396  0.45065991  1  0  0.432899  0  0.876517  0  0  0.397204  0  0.94694  0  0  0.409384  0  0.929381  0  0.647019  0  0.286676  0.388335  0  0.959669  0
H  H4  1  0.62906054  0.83518291  0.64264267  1  0  0.407925  0  0.84294  0  0  0.389628  0  0.901403  0  0  0.397509  0  0.892176  0  0.5954  0  0.312473  0.384032  0  0.908  0
H  H5  1  0.37093827  0.16481583  0.35735711  1  0  0.407908  0  0.842948  0  0  0.389614  0  0.901411  0  0  0.397494  0  0.892187  0  0.595392  0  0.312474  0.384019  0  0.908008  0
H  H6  1  0.04243038  0.36332200  0.65871742  1  0  0.112117  0  0.967555  0  0  0.118726  0  1.036865  0  0  0.122153  0  1.034909  0  0.094311  0  0.107813  0.116185  0  1.038498  0
H  H7  1  0.95757361  0.63667985  0.34128287  1  0  0.112109  0  0.967562  0  0  0.118724  0  1.036861  0  0  0.122148  0  1.034914  0  0.094293  0  0.107789  0.116183  0  1.038495  0
H  H8  1  0.74994150  0.68274854  0.74504358  1  0  0.093436  0  0.950418  0  0  0.107259  0  1.007798  0  0  0.111082  0  1.004097  0  0.059191  0  0.106486  0.104516  0  1.010498  0
H  H9  1  0.25006218  0.31725021  0.25495742  1  0  0.093462  0  0.950391  0  0  0.107283  0  1.007771  0  0  0.111106  0  1.00407  0  0.059171  0  0.106501  0.104541  0  1.010471  0
H  H10  1  0.94473039  0.85910504  0.59756090  1  0  0.105112  0  0.938608  0  0  0.115824  0  0.996665  0  0  0.11907  0  0.995143  0  0.102735  0  0.107035  0.11334  0  0.998082  0
H  H11  1  0.05527228  0.14089577  0.40243985  1  0  0.105152  0  0.938598  0  0  0.115835  0  0.996687  0  0  0.119086  0  0.99516  0  0.102736  0  0.107032  0.113349  0  0.998106  0
H  H12  1  0.74693171  0.53901124  0.89509011  1  0  0.086488  0  0.954671  0  0  0.097712  0  1.01739  0  0  0.100289  0  1.014654  0  0.0921  0  0.11998  0.09592  0  1.019064  0
H  H13  1  0.25306710  0.46098750  0.10491252  1  0  0.086478  0  0.954713  0  0  0.097704  0  1.017419  0  0  0.100281  0  1.014682  0  0.0922  0  0.119975  0.095913  0  1.019094  0
H  H14  1  0.53925355  0.37967395  0.04824980  1  0  0.112705  0  0.966193  0  0  0.121594  0  1.028919  0  0  0.124983  0  1.028806  0  0.058853  0  0.099788  0.119497  0  1.028554  0
H  H15  1  0.46074373  0.62032170  0.95175093  1  0  0.112665  0  0.966219  0  0  0.121552  0  1.028952  0  0  0.124947  0  1.028832  0  0.058828  0  0.099766  0.119455  0  1.028587  0
H  H16  1  0.59809678  0.08670636  0.87158855  1  0  0.140007  0  0.960967  0  0  0.149113  0  1.020117  0  0  0.153439  0  1.018352  0  0.137139  0  0.110137  0.146336  0  1.021052  0
H  H17  1  0.40190488  0.91329652  0.12840625  1  0  0.139984  0  0.960977  0  0  0.149058  0  1.02017  0  0  0.153389  0  1.018398  0  0.137066  0  0.110119  0.14628  0  1.021105  0
H  H18  1  0.79394038  0.26175624  0.72177830  1  0  0.104176  0  0.966536  0  0  0.111668  0  1.033954  0  0  0.114538  0  1.031317  0  0.187466  0  0.12246  0.109479  0  1.035828  0
H  H19  1  0.20606139  0.73824767  0.27822125  1  0  0.104192  0  0.966512  0  0  0.111654  0  1.033961  0  0  0.114542  0  1.031303  0  0.187538  0  0.122444  0.109458  0  1.035842  0
H  H20  1  0.30474072  0.83099551  0.66942547  1  0  0.08765  0  0.954825  0  0  0.092857  0  1.022163  0  0  0.095797  0  1.019839  0  0.141891  0  0.116295  0.090856  0  1.023419  0
H  H21  1  0.69525951  0.16900530  0.33057503  1  0  0.087626  0  0.954851  0  0  0.092847  0  1.022159  0  0  0.095778  0  1.019861  0  0.1419  0  0.116296  0.090846  0  1.023416  0
H  H22  1  0.10800850  0.74355372  0.84887046  1  0  0.103844  0  0.958911  0  0  0.11541  0  1.016367  0  0  0.117935  0  1.016784  0  0.071761  0  0.10646  0.113573  0  1.016262  0
H  H23  1  0.89199285  0.25644606  0.15113076  1  0  0.103871  0  0.958898  0  0  0.115432  0  1.016362  0  0  0.117956  0  1.01678  0  0.071763  0  0.106472  0.113595  0  1.016258  0
H  H24  1  0.28492491  0.33984195  0.86317696  1  0  0.106174  0  0.961814  0  0  0.115279  0  1.024424  0  0  0.117586  0  1.025737  0  0.095831  0  0.105355  0.113698  0  1.023501  0
H  H25  1  0.71507776  0.66015886  0.13682236  1  0  0.106194  0  0.96178  0  0  0.115275  0  1.024406  0  0  0.117579  0  1.025717  0  0.095855  0  0.10537  0.113697  0  1.023482  0
H  H26  1  0.47437739  0.44666108  0.67971606  1  0  0.09747  0  0.985664  0  0  0.101426  0  1.05347  0  0  0.105005  0  1.050326  0  0.17687  0  0.116253  0.098802  0  1.055682  0
H  H27  1  0.52562406  0.55333973  0.32028420  1  0  0.097463  0  0.985667  0  0  0.101411  0  1.053484  0  0  0.104991  0  1.050338  0  0.176847  0  0.116247  0.098788  0  1.055696  0
H  H28  1  0.06491851  0.35638396  0.00708963  1  0  0.096261  0  0.942247  0  0  0.110628  0  0.997554  0  0  0.113725  0  0.99577  0  0.058681  0  0.108062  0.108596  0  0.998484  0
H  H29  1  0.93507919  0.64361582  0.99291085  1  0  0.096259  0  0.942281  0  0  0.110608  0  0.997604  0  0  0.113701  0  0.995822  0  0.058684  0  0.108083  0.108577  0  0.998534  0
H  H30  1  0.49777227  0.84017805  0.28931290  1  0  0.088294  0  0.958443  0  0  0.092932  0  1.028758  0  0  0.095322  0  1.026838  0  0.117734  0  0.117262  0.090963  0  1.030427  0
H  H31  1  0.50222279  0.15981966  0.71068851  1  0  0.08828  0  0.958425  0  0  0.092901  0  1.028753  0  0  0.095304  0  1.026817  0  0.117641  0  0.117224  0.09093  0  1.030424  0
H  H32  1  0.67887713  0.93214088  0.10460085  1  0  0.115953  0  0.966964  0  0  0.124772  0  1.029604  0  0  0.128036  0  1.028577  0  0.11236  0  0.109049  0.122277  0  1.030767  0
H  H33  1  0.32111661  0.06785580  0.89539961  1  0  0.115971  0  0.966985  0  0  0.124795  0  1.029615  0  0  0.128061  0  1.028585  0  0.112492  0  0.109062  0.122299  0  1.03078  0
H  H34  1  0.07394461  0.96923567  0.22870875  1  0  0.127811  0  0.94092  0  0  0.139816  0  0.995924  0  0  0.143202  0  0.99498  0  0.10482  0  0.113999  0.137354  0  0.996837  0
H  H35  1  0.92605441  0.03076514  0.77128912  1  0  0.127885  0  0.94087  0  0  0.139838  0  0.99593  0  0  0.14321  0  0.995004  0  0.104784  0  0.11399  0.137377  0  0.996842  0
H  H36  1  0.87725946  0.87010551  0.40708691  1  0  0.094985  0  0.943194  0  0  0.099914  0  1.011488  0  0  0.102655  0  1.008596  0  0.138518  0  0.119586  0.09783  0  1.013752  0
H  H37  1  0.12273925  0.12989221  0.59291311  1  0  0.094961  0  0.943249  0  0  0.099876  0  1.011558  0  0  0.102616  0  1.008669  0  0.138518  0  0.119586  0.097794  0  1.013821  0
H  H38  1  0.13691615  0.03454145  0.04124651  1  0  0.106061  0  0.958079  0  0  0.11512  0  1.023017  0  0  0.118329  0  1.02122  0  0.083153  0  0.104929  0.11286  0  1.024251  0
H  H39  1  0.86307689  0.96546040  0.95875154  1  0  0.106039  0  0.958014  0  0  0.115088  0  1.022974  0  0  0.118297  0  1.021177  0  0.083229  0  0.104917  0.112829  0  1.024207  0
C  C40  1  0.22193987  0.82797116  0.46222727  1  0  0.665377  0  3.910482  0  0  0.608199  0  4.221568  0  0  0.642488  0  4.21111  0  1.606174  0  0.210423  0.584481  0  4.228347  0
C  C41  1  0.77806148  0.17202862  0.53777395  1  0  0.665241  0  3.910644  0  0  0.608122  0  4.221616  0  0  0.642412  0  4.21116  0  1.606265  0  0.210405  0.584403  0  4.228396  0
C  C42  1  0.28168040  0.52483976  0.49871672  1  0  0.667625  0  3.874553  0  0  0.610376  0  4.17622  0  0  0.645481  0  4.166936  0  1.581389  0  0.212374  0.586483  0  4.181691  0
C  C43  1  0.71831994  0.47516209  0.50128140  1  0  0.667699  0  3.874521  0  0  0.610456  0  4.176208  0  0  0.645561  0  4.166919  0  1.581404  0  0.212429  0.586565  0  4.181681  0
C  C44  1  0.10619041  0.71193850  0.54660730  1  0  -0.049666  0  3.702949  0  0  -0.039253  0  3.940023  0  0  -0.042208  0  3.959305  0  -0.052852  0  -0.004698  -0.037587  0  3.927647  0
C  C45  1  0.89380972  0.28806128  0.45339273  1  0  -0.04972  0  3.703084  0  0  -0.039294  0  3.940103  0  0  -0.042249  0  3.959385  0  -0.053078  0  -0.004744  -0.03763  0  3.92773  0
C  C46  1  0.13105232  0.57116874  0.56375408  1  0  -0.065699  0  3.730971  0  0  -0.049955  0  3.9662  0  0  -0.056101  0  3.987942  0  0.012193  0  -0.0141  -0.046061  0  3.952028  0
C  C47  1  0.86895278  0.42883207  0.43624693  1  0  -0.065661  0  3.730949  0  0  -0.049918  0  3.966168  0  0  -0.056064  0  3.987907  0  0.012335  0  -0.014042  -0.046024  0  3.951996  0
C  C48  1  0.01875785  0.47147771  0.64646487  1  0  -0.136553  0  3.69876  0  0  -0.170646  0  3.955918  0  0  -0.171539  0  3.973813  0  0.016016  0  -0.082955  -0.170007  0  3.944234  0
C  C49  1  0.98124249  0.52852414  0.35353395  1  0  -0.136596  0  3.698771  0  0  -0.170722  0  3.955918  0  0  -0.171617  0  3.973811  0  0.015845  0  -0.082968  -0.170083  0  3.944233  0
C  C50  1  0.88400534  0.51134999  0.71286072  1  0  0.16467  0  3.776728  0  0  0.155958  0  4.032202  0  0  0.161227  0  4.053961  0  0.275128  0  0.086377  0.15223  0  4.017655  0
C  C51  1  0.11599733  0.48865082  0.28714146  1  0  0.164651  0  3.77677  0  0  0.156026  0  4.032142  0  0  0.161296  0  4.053899  0  0.275118  0  0.086366  0.152298  0  4.017595  0
C  C52  1  0.85732463  0.65135333  0.69470577  1  0  -0.126456  0  3.743448  0  0  -0.153943  0  4.006482  0  0  -0.154957  0  4.023474  0  -0.060154  0  -0.087984  -0.153285  0  3.995179  0
C  C53  1  0.14267804  0.34864749  0.30529499  1  0  -0.126534  0  3.743516  0  0  -0.154058  0  4.006545  0  0  -0.155072  0  4.023537  0  -0.060042  0  -0.088033  -0.153399  0  3.99524  0
C  C54  1  0.96737362  0.75035335  0.61184363  1  0  -0.06229  0  3.731155  0  0  -0.083838  0  3.985085  0  0  -0.084915  0  4.003643  0  0.039509  0  -0.083254  -0.082977  0  3.972865  0
C  C55  1  0.03262916  0.24964850  0.38815830  1  0  -0.062215  0  3.731196  0  0  -0.08374  0  3.985112  0  0  -0.08482  0  4.003669  0  0.039566  0  -0.083177  -0.082878  0  3.972892  0
C  C56  1  0.70322631  0.44043265  0.89305176  1  0  0.070137  0  3.733405  0  0  0.025675  0  3.992351  0  0  0.037356  0  4.007584  0  0.316806  0  0.028491  0.018191  0  3.981687  0
C  C57  1  0.29677361  0.55956506  0.10694946  1  0  0.07012  0  3.733578  0  0  0.025659  0  3.992531  0  0  0.03734  0  4.007765  0  0.316682  0  0.028487  0.018172  0  3.981869  0
C  C58  1  0.58920626  0.35141464  0.97661377  1  0  -0.264109  0  3.73381  0  0  -0.279943  0  3.987397  0  0  -0.293321  0  4.006619  0  0.012376  0  -0.114726  -0.271435  0  3.974156  0
C  C59  1  0.41079457  0.64857997  0.02338724  1  0  -0.263978  0  3.733966  0  0  -0.279832  0  3.987518  0  0  -0.293215  0  4.006739  0  0.012458  0  -0.114681  -0.271324  0  3.974276  0
C  C60  1  0.52999686  0.22180752  0.97148460  1  0  0.427617  0  3.920305  0  0  0.417605  0  4.182054  0  0  0.442258  0  4.186291  0  0.88092  0  0.102562  0.401483  0  4.178503  0
C  C61  1  0.47000195  0.77819123  0.02851162  1  0  0.427435  0  3.920567  0  0  0.417484  0  4.182228  0  0  0.442136  0  4.186468  0  0.880872  0  0.10249  0.401362  0  4.178675  0
C  C62  1  0.62168112  0.18868735  0.87731664  1  0  -0.260334  0  3.681798  0  0  -0.278283  0  3.939034  0  0  -0.292177  0  3.957676  0  -0.015453  0  -0.108124  -0.269585  0  3.926552  0
C  C63  1  0.37832276  0.81131346  0.12267961  1  0  -0.260272  0  3.681815  0  0  -0.278213  0  3.939044  0  0  -0.292112  0  3.957688  0  -0.015354  0  -0.108129  -0.269512  0  3.926556  0
C  C64  1  0.73359250  0.28261476  0.79553984  1  0  0.084486  0  3.668338  0  0  0.040767  0  3.925484  0  0  0.052489  0  3.940308  0  0.255335  0  0.035982  0.033398  0  3.915457  0
C  C65  1  0.26641016  0.71738605  0.20445806  1  0  0.084522  0  3.668264  0  0  0.040834  0  3.925404  0  0  0.052541  0  3.940209  0  0.255299  0  0.03606  0.033471  0  3.91538  0
C  C66  1  0.29659709  0.72315587  0.71615863  1  0  0.118635  0  3.737927  0  0  0.087698  0  3.989086  0  0  0.094479  0  4.007543  0  0.439875  0  0.040915  0.083383  0  3.976118  0
C  C67  1  0.70340690  0.27684598  0.28384237  1  0  0.118663  0  3.737915  0  0  0.08774  0  3.989095  0  0  0.094517  0  4.007549  0  0.439885  0  0.040893  0.083424  0  3.976128  0
C  C68  1  0.18654077  0.67272831  0.81607328  1  0  -0.160024  0  3.706213  0  0  -0.175352  0  3.94891  0  0  -0.184104  0  3.972209  0  -0.008548  0  -0.082129  -0.169704  0  3.933112  0
C  C69  1  0.81346190  0.32727250  0.18392747  1  0  -0.160038  0  3.70622  0  0  -0.175356  0  3.94894  0  0  -0.184108  0  3.972239  0  -0.008564  0  -0.082118  -0.169711  0  3.933145  0
C  C70  1  0.17641637  0.53130266  0.87148416  1  0  0.133741  0  3.824055  0  0  0.147246  0  4.056187  0  0  0.152398  0  4.079028  0  -0.029772  0  0.006399  0.144166  0  4.040622  0
C  C71  1  0.82358620  0.46869712  0.12851612  1  0  0.133775  0  3.82412  0  0  0.147251  0  4.056278  0  0  0.152404  0  4.079116  0  -0.02979  0  0.006431  0.144175  0  4.040712  0
C  C72  1  0.28578088  0.44954186  0.82301281  1  0  -0.162197  0  3.689818  0  0  -0.178365  0  3.935244  0  0  -0.187357  0  3.958152  0  -0.042454  0  -0.08286  -0.172445  0  3.919457  0
C  C73  1  0.71422169  0.55045792  0.17698675  1  0  -0.162277  0  3.689732  0  0  -0.178408  0  3.935183  0  0  -0.187393  0  3.958084  0  -0.04244  0  -0.082894  -0.172493  0  3.919399  0
C  C74  1  0.39264493  0.50781125  0.72220744  1  0  0.131524  0  3.685347  0  0  0.098845  0  3.93969  0  0  0.105971  0  3.957024  0  0.442409  0  0.042546  0.094129  0  3.927891  0
C  C75  1  0.60735895  0.49218956  0.27779379  1  0  0.131591  0  3.685212  0  0  0.09893  0  3.939558  0  0  0.106056  0  3.956891  0  0.442422  0  0.042591  0.094214  0  3.927757  0
C  C76  1  0.05772209  0.46705170  0.97356560  1  0  -0.098344  0  3.731992  0  0  -0.118766  0  3.982724  0  0  -0.121126  0  4.001291  0  0.036587  0  -0.077017  -0.117166  0  3.969993  0
C  C77  1  0.94227926  0.53294808  0.02643491  1  0  -0.098318  0  3.732108  0  0  -0.118719  0  3.982862  0  0  -0.121076  0  4.001426  0  -0.046571  0  -0.077035  -0.117122  0  3.970132  0
C  C78  1  0.62687943  0.86894348  0.27170075  1  0  0.129796  0  3.698673  0  0  0.099554  0  3.949417  0  0  0.106907  0  3.967361  0  0.418734  0  0.045971  0.094896  0  3.936754  0
C  C79  1  0.37311573  0.13105526  0.72829971  1  0  0.129757  0  3.698915  0  0  0.099524  0  3.949638  0  0  0.106867  0  3.967579  0  0.418916  0  0.045982  0.094866  0  3.936977  0
C  C80  1  0.72908346  0.92034508  0.16888608  1  0  -0.177033  0  3.694727  0  0  -0.190918  0  3.932558  0  0  -0.199738  0  3.954667  0  0.031403  0  -0.085205  -0.185245  0  3.917602  0
C  C81  1  0.27091170  0.07965367  0.83111367  1  0  -0.177019  0  3.694785  0  0  -0.190921  0  3.932597  0  0  -0.199745  0  3.954714  0  0.031208  0  -0.0852  -0.185249  0  3.917642  0
C  C82  1  0.89582311  0.95524598  0.14938372  1  0  0.131137  0  3.81836  0  0  0.147373  0  4.046575  0  0  0.152951  0  4.069634  0  -0.087675  0  0.004355  0.144003  0  4.030965  0
C  C83  1  0.10417104  0.04475483  0.85061506  1  0  0.131154  0  3.818259  0  0  0.147421  0  4.046417  0  0  0.153001  0  4.069471  0  -0.087785  0  0.004322  0.14405  0  4.030808  0
C  C84  1  0.94761315  0.94160954  0.23749300  1  0  -0.175515  0  3.680283  0  0  -0.193211  0  3.924199  0  0  -0.202459  0  3.945613  0  0.028051  0  -0.081347  -0.187429  0  3.910294  0
C  C85  1  0.05238142  0.05839541  0.76250410  1  0  -0.175619  0  3.680206  0  0  -0.193273  0  3.924118  0  0  -0.202513  0  3.945541  0  0.027981  0  -0.081304  -0.187491  0  3.910216  0
C  C86  1  0.83782597  0.88715260  0.33803802  1  0  0.140453  0  3.682667  0  0  0.11058  0  3.934275  0  0  0.118687  0  3.950915  0  0.45999  0  0.049916  0.105034  0  3.923421  0
C  C87  1  0.16217162  0.11284614  0.66196056  1  0  0.140586  0  3.682708  0  0  0.110703  0  3.934312  0  0  0.118809  0  3.950952  0  0.459933  0  0.049936  0.105154  0  3.923462  0
C  C88  1  0.01494731  0.00056397  0.04452550  1  0  -0.107525  0  3.709314  0  0  -0.126735  0  3.956868  0  0  -0.130076  0  3.977365  0  -0.081505  0  -0.082411  -0.12425  0  3.942279  0
C  C89  1  0.98504452  0.99943788  0.95547349  1  0  -0.107478  0  3.7092  0  0  -0.12668  0  3.956744  0  0  -0.13002  0  3.97724  0  0.016095  0  -0.082411  -0.124195  0  3.942155  0
N  N90  1  0.77272026  0.41051863  0.80076255  1  0  -0.089735  0  3.583918  0  0  0.001643  0  3.7902  0  0  -0.016504  0  3.816176  0  -1.267323  0  -0.22631  0.013589  0  3.772558  0
N  N91  1  0.22728231  0.58948115  0.19923844  1  0  -0.089754  0  3.583966  0  0  0.001588  0  3.790241  0  0  -0.01656  0  3.816221  0  -1.267371  0  -0.226328  0.013534  0  3.772598  0
N  N92  1  0.39631367  0.64206336  0.66880393  1  0  -0.340192  0  3.300605  0  0  -0.259188  0  3.563683  0  0  -0.27869  0  3.580971  0  -1.251862  0  -0.324488  -0.246105  0  3.552146  0
N  N93  1  0.60368778  0.35793745  0.33119704  1  0  -0.340235  0  3.300515  0  0  -0.259279  0  3.563655  0  0  -0.278779  0  3.58094  0  -1.251871  0  -0.324531  -0.246197  0  3.552121  0
N  N94  1  0.68010547  0.84946492  0.35543110  1  0  -0.316361  0  3.245373  0  0  -0.236803  0  3.505794  0  0  -0.255475  0  3.521775  0  -1.253914  0  -0.323069  -0.224106  0  3.494813  0
N  N95  1  0.31989223  0.15053486  0.64456796  1  0  -0.316425  0  3.245612  0  0  -0.236823  0  3.505984  0  0  -0.255496  0  3.521971  0  -1.253982  0  -0.323061  -0.224126  0  3.495005  0
O  O96  1  0.34009169  0.87042467  0.48828561  1  0  -0.687929  0  2.101774  0  0  -0.613462  0  2.349581  0  0  -0.642303  0  2.336262  0  -1.183245  0  -0.327321  -0.592593  0  2.358192  0
O  O97  1  0.65990865  0.12957717  0.51171393  1  0  -0.687898  0  2.101772  0  0  -0.613437  0  2.349571  0  0  -0.642295  0  2.336253  0  -1.18322  0  -0.327317  -0.592568  0  2.358182  0
O  O98  1  0.19146706  0.88362213  0.37873453  1  0  -0.596544  0  1.88027  0  0  -0.553933  0  2.101593  0  0  -0.576702  0  2.092394  0  -1.168972  0  -0.317756  -0.537532  0  2.107401  0
O  O99  1  0.80853551  0.11637765  0.62126575  1  0  -0.596445  0  1.880274  0  0  -0.553869  0  2.101574  0  0  -0.576635  0  2.092372  0  -1.168984  0  -0.317723  -0.53747  0  2.107383  0
O  O100  1  0.40486871  0.61300355  0.44751305  1  0  -0.65634  0  2.086672  0  0  -0.590466  0  2.34881  0  0  -0.616341  0  2.33588  0  -1.188273  0  -0.315145  -0.571746  0  2.356629  0
O  O101  1  0.59513274  0.38699726  0.55248650  1  0  -0.656357  0  2.086599  0  0  -0.590506  0  2.348766  0  0  -0.616377  0  2.335834  0  -1.188247  0  -0.315203  -0.571767  0  2.35654  0
O  O102  1  0.27642255  0.40000363  0.49899411  1  0  -0.627004  0  2.053091  0  0  -0.563149  0  2.32048  0  0  -0.590585  0  2.31073  0  -1.176239  0  -0.311995  -0.543947  0  2.326735  0
O  O103  1  0.72358266  0.59999821  0.50100523  1  0  -0.627018  0  2.05309  0  0  -0.563189  0  2.320523  0  0  -0.590625  0  2.310773  0  -1.176274  0  -0.312003  -0.543988  0  2.326777  0
O  O104  1  0.40842623  0.14708495  0.04150461  1  0  -0.576068  0  1.84638  0  0  -0.54155  0  2.051878  0  0  -0.560262  0  2.043821  0  -1.166261  0  -0.345448  -0.528628  0  2.056468  0
O  O105  1  0.59157258  0.85291380  0.95849232  1  0  -0.576007  0  1.846481  0  0  -0.541505  0  2.051948  0  0  -0.560212  0  2.043882  0  -1.166279  0  -0.345416  -0.528584  0  2.056537  0
O  O106  1  0.63961436  0.86760794  0.56853213  1  0  -0.827828  0  1.925472  0  0  -0.773835  0  2.146971  0  0  -0.793846  0  2.11744  0  -1.242377  0  -0.573033  -0.759335  0  2.167783  0
O  O107  1  0.36038821  0.13239184  0.43146672  1  0  -0.827729  0  1.925583  0  0  -0.773774  0  2.14702  0  0  -0.793765  0  2.117534  0  -1.242358  0  -0.573022  -0.759273  0  2.167832  0
