# generated using pymatgen
data_CdH15C18N5O6
_symmetry_space_group_name_H-M   'P 1'
_cell_length_a   13.12336374
_cell_length_b   14.25449632
_cell_length_c   14.25436416
_cell_angle_alpha   110.58090634
_cell_angle_beta   105.61631163
_cell_angle_gamma   105.61563672
_symmetry_Int_Tables_number   1
_chemical_formula_structural   CdH15C18N5O6
_chemical_formula_sum   'Cd4 H60 C72 N20 O24'
_cell_volume   2199.76902799
_cell_formula_units_Z   4
loop_
 _symmetry_equiv_pos_site_id
 _symmetry_equiv_pos_as_xyz
  1  'x, y, z'
loop_
 _atom_site_type_symbol
 _atom_site_label
 _atom_site_symmetry_multiplicity
 _atom_site_fract_x
 _atom_site_fract_y
 _atom_site_fract_z
 _atom_site_occupancy
 _atom_site_pbe_bader_charge
 _atom_site_pbe_bader_spin_density
 _atom_site_pbe_cm5_charge
 _atom_site_pbe_ddec_charge
 _atom_site_pbe_ddec_spin_density
 _atom_site_pbe_ddec_sum_bond_order
 _atom_site_pbe_magmom
Cd  Cd0  1  0.14321166  0.04272043  0.07693410  1  1.305352  0  0.796245  0.975559  0  2.136241  0
Cd  Cd1  1  0.35678226  0.92306545  0.95727990  1  1.305356  0  0.796234  0.975569  0  2.136292  0
Cd  Cd2  1  0.85678322  0.95723141  0.92302948  1  1.305167  0  0.79622  0.975472  0  2.136048  0
Cd  Cd3  1  0.64321339  0.07697353  0.04275046  1  1.305151  0  0.796265  0.975595  0  2.135932  0
H  H4  1  0.02720164  0.92338033  0.21491494  1  0.126586  0  0.12111  0.12724  0  0.997326  0
H  H5  1  0.47279507  0.78508432  0.07662466  1  0.126583  0  0.121105  0.127234  0  0.997433  0
H  H6  1  0.97284083  0.07665517  0.78511193  1  0.12552  0  0.121181  0.127448  0  0.997109  0
H  H7  1  0.52715743  0.21490541  0.92335401  1  0.125547  0  0.121134  0.127369  0  0.997091  0
H  H8  1  0.16436918  0.89609375  0.38351073  1  0.199993  0  0.120285  0.139847  0  1.043229  0
H  H9  1  0.33563536  0.61648551  0.10390948  1  0.199869  0  0.120264  0.139811  0  1.04327  0
H  H10  1  0.83564199  0.10404451  0.61657818  1  0.200254  0  0.120272  0.1399  0  1.043524  0
H  H11  1  0.66436980  0.38343794  0.89597039  1  0.200327  0  0.120285  0.139903  0  1.043516  0
H  H12  1  0.37196237  0.03401163  0.24314471  1  0.214985  0  0.135103  0.121632  0  1.031088  0
H  H13  1  0.12803949  0.75685492  0.96599058  1  0.215027  0  0.135057  0.121533  0  1.031139  0
H  H14  1  0.62808419  0.96608687  0.75688672  1  0.21565  0  0.135202  0.121625  0  1.031207  0
H  H15  1  0.87192196  0.24311628  0.03390957  1  0.215603  0  0.135161  0.121614  0  1.031151  0
H  H16  1  0.56894567  0.30163351  0.18052270  1  0.12012  0  0.12034  0.118214  0  0.986909  0
H  H17  1  0.93105726  0.81948135  0.69835567  1  0.120178  0  0.120358  0.118206  0  0.986845  0
H  H18  1  0.43103772  0.69836201  0.81948466  1  0.119866  0  0.120388  0.118429  0  0.986652  0
H  H19  1  0.06895760  0.18050983  0.30163212  1  0.119883  0  0.120349  0.118374  0  0.986636  0
H  H20  1  0.44189902  0.30621470  0.10067449  1  0.088355  0  0.123548  0.127321  0  0.944238  0
H  H21  1  0.05810983  0.89932012  0.69378315  1  0.088334  0  0.123537  0.127268  0  0.944228  0
H  H22  1  0.55809951  0.69382186  0.89936348  1  0.088086  0  0.123555  0.12731  0  0.944218  0
H  H23  1  0.94189426  0.10064394  0.30617714  1  0.088249  0  0.123571  0.127326  0  0.94424  0
H  H24  1  0.29766847  0.28862275  0.34137627  1  0.116769  0  0.105641  0.107007  0  1.03956  0
H  H25  1  0.20233027  0.65862542  0.71138497  1  0.116624  0  0.105667  0.106991  0  1.039691  0
H  H26  1  0.70231464  0.71135580  0.65866163  1  0.116218  0  0.105691  0.107102  0  1.03956  0
H  H27  1  0.79768510  0.34134147  0.28864157  1  0.116116  0  0.105679  0.107092  0  1.039661  0
H  H28  1  0.24658174  0.33336611  0.49981790  1  0.079522  0  0.100596  0.101747  0  1.023354  0
H  H29  1  0.25342754  0.50019073  0.66664385  1  0.079617  0  0.100569  0.101705  0  1.023378  0
H  H30  1  0.75341655  0.66662389  0.50022987  1  0.07933  0  0.100592  0.101657  0  1.023621  0
H  H31  1  0.74657721  0.49976795  0.33337157  1  0.079482  0  0.10055  0.10161  0  1.023674  0
H  H32  1  0.40183143  0.42370203  0.69122438  1  0.082182  0  0.104449  0.10659  0  1.003409  0
H  H33  1  0.09818086  0.30878171  0.57630301  1  0.08215  0  0.104433  0.106523  0  1.003488  0
H  H34  1  0.59821701  0.57630334  0.30882585  1  0.082207  0  0.104316  0.106341  0  1.003593  0
H  H35  1  0.90177586  0.69116637  0.42368829  1  0.081931  0  0.104303  0.106354  0  1.003524  0
H  H36  1  0.65775112  0.42579971  0.55491948  1  0.126423  0  0.107642  0.103911  0  1.038144  0
H  H37  1  0.84225539  0.44507946  0.57419829  1  0.126644  0  0.107655  0.103915  0  1.038097  0
H  H38  1  0.34222193  0.57415325  0.44507830  1  0.12685  0  0.107597  0.103756  0  1.037917  0
H  H39  1  0.15777346  0.55491537  0.42585531  1  0.127077  0  0.107611  0.103775  0  1.037907  0
H  H40  1  0.79978660  0.60814509  0.93484776  1  0.106066  0  0.11721  0.119204  0  0.967549  0
H  H41  1  0.70022476  0.06515022  0.39184585  1  0.10571  0  0.117209  0.119216  0  0.967572  0
H  H42  1  0.20018903  0.39181912  0.06511807  1  0.105964  0  0.117243  0.119145  0  0.967567  0
H  H43  1  0.29979795  0.93487798  0.60817845  1  0.105943  0  0.11723  0.119142  0  0.96767  0
H  H44  1  0.90397635  0.59863074  0.87840763  1  0.093716  0  0.102167  0.094477  0  1.015824  0
H  H45  1  0.59603670  0.12159619  0.40136940  1  0.093957  0  0.102228  0.094597  0  1.015839  0
H  H46  1  0.09604841  0.40139646  0.12159018  1  0.093321  0  0.102234  0.094545  0  1.015596  0
H  H47  1  0.40393785  0.87840239  0.59860032  1  0.093297  0  0.102204  0.094577  0  1.015606  0
H  H48  1  0.32842587  0.12895251  0.48719374  1  0.489266  0  0.319032  0.305378  0  0.946816  0
H  H49  1  0.17157941  0.51279437  0.87104877  1  0.489202  0  0.319045  0.305372  0  0.94691  0
H  H50  1  0.67163882  0.87119662  0.51296355  1  0.488887  0  0.319188  0.305396  0  0.946831  0
H  H51  1  0.82836704  0.48705314  0.12881400  1  0.488636  0  0.319203  0.305431  0  0.946735  0
H  H52  1  0.44803120  0.21574383  0.61104688  1  0.495743  0  0.322867  0.323131  0  0.917945  0
H  H53  1  0.05197178  0.38894386  0.78426326  1  0.495615  0  0.322868  0.323147  0  0.917916  0
H  H54  1  0.55193739  0.78441375  0.38909414  1  0.494804  0  0.322704  0.322725  0  0.918929  0
H  H55  1  0.94806727  0.61091628  0.21558570  1  0.494713  0  0.322695  0.322708  0  0.918762  0
H  H56  1  0.36302287  0.29457767  0.23254082  1  0.489871  0  0.300452  0.266653  0  1.013625  0
H  H57  1  0.13697808  0.76745807  0.70542512  1  0.48986  0  0.300451  0.266605  0  1.013705  0
H  H58  1  0.63698326  0.70541381  0.76748697  1  0.489742  0  0.300511  0.266725  0  1.013492  0
H  H59  1  0.86301745  0.23251777  0.29458129  1  0.489738  0  0.300519  0.266711  0  1.013504  0
H  H60  1  0.75426029  0.55819517  0.70379301  1  0.48736  0  0.305738  0.269176  0  0.997179  0
H  H61  1  0.74574890  0.29621294  0.44181092  1  0.487342  0  0.30576  0.269261  0  0.997044  0
H  H62  1  0.24570841  0.44175832  0.29615756  1  0.487636  0  0.305665  0.26904  0  0.997039  0
H  H63  1  0.25429134  0.70384158  0.55824722  1  0.487644  0  0.305623  0.269017  0  0.997078  0
C  C64  1  0.11913290  0.94345596  0.24745182  1  0.399359  0  -0.002105  -0.026091  0  3.997842  0
C  C65  1  0.38086202  0.75254230  0.05654268  1  0.399297  0  -0.002226  -0.026321  0  3.998065  0
C  C66  1  0.88092633  0.05666331  0.75263836  1  0.400051  0  -0.002497  -0.02694  0  3.997849  0
C  C67  1  0.61907743  0.24737572  0.94334340  1  0.400222  0  -0.002366  -0.026735  0  3.997824  0
C  C68  1  0.18532128  0.92921921  0.32975838  1  0.263579  0  -0.001003  -0.111744  0  3.89025  0
C  C69  1  0.31467800  0.67023580  0.07078063  1  0.263635  0  -0.001003  -0.111718  0  3.890238  0
C  C70  1  0.81473536  0.07087537  0.67030649  1  0.26261  0  -0.000795  -0.111336  0  3.890251  0
C  C71  1  0.68527459  0.32970198  0.92913311  1  0.262173  0  -0.000888  -0.111495  0  3.890578  0
C  C72  1  0.29612829  0.00376546  0.25887351  1  0.947872  0  0.143704  0.101139  0  3.876228  0
C  C73  1  0.20387209  0.74112362  0.99623899  1  0.948366  0  0.143728  0.101284  0  3.876077  0
C  C74  1  0.70393800  0.99633323  0.74120081  1  0.947196  0  0.143755  0.10141  0  3.876217  0
C  C75  1  0.79606442  0.25880441  0.00367506  1  0.947225  0  0.143698  0.101334  0  3.876086  0
C  C76  1  0.40166589  0.97760204  0.41069932  1  0.216157  0  0.080939  0.074216  0  4.050415  0
C  C77  1  0.09833524  0.58930081  0.02239936  1  0.216351  0  0.080846  0.074085  0  4.050594  0
C  C78  1  0.59843090  0.02258266  0.58941096  1  0.238309  0  0.080791  0.073526  0  4.050205  0
C  C79  1  0.90157704  0.41059402  0.97742700  1  0.238219  0  0.080744  0.073494  0  4.050214  0
C  C80  1  0.42609973  0.89177627  0.41057203  1  0.132525  0  -0.134433  -0.356737  0  3.50446  0
C  C81  1  0.07390678  0.58944231  0.10823196  1  0.132595  0  -0.13438  -0.356714  0  3.504445  0
C  C82  1  0.57406887  0.10844044  0.58947190  1  0.123816  0  -0.134095  -0.355896  0  3.503669  0
C  C83  1  0.92593793  0.41052539  0.89156545  1  0.124144  0  -0.134021  -0.355774  0  3.503497  0
C  C84  1  0.46706332  0.08423155  0.51091400  1  0.436302  0  0.135044  0.297643  0  4.056199  0
C  C85  1  0.03294051  0.48907987  0.91577215  1  0.436183  0  0.135007  0.297635  0  4.05631  0
C  C86  1  0.53305727  0.91596607  0.48918567  1  0.419658  0  0.135521  0.298682  0  4.05626  0
C  C87  1  0.96694588  0.51081902  0.08403368  1  0.419419  0  0.135407  0.298441  0  4.056524  0
C  C88  1  0.42269792  0.14721145  0.08723856  1  1.581388  0  0.214075  0.625559  0  4.116686  0
C  C89  1  0.07729717  0.91275192  0.85278589  1  1.582576  0  0.214091  0.625537  0  4.11664  0
C  C90  1  0.57729597  0.85279514  0.91271703  1  1.583329  0  0.214302  0.626204  0  4.117133  0
C  C91  1  0.92269035  0.08727699  0.14720037  1  1.582864  0  0.214167  0.625917  0  4.116808  0
C  C92  1  0.47480333  0.27144224  0.15395637  1  0.291426  0  -0.054527  -0.152561  0  3.91621  0
C  C93  1  0.02519705  0.84603598  0.72854880  1  0.291414  0  -0.054491  -0.152391  0  3.916092  0
C  C94  1  0.52518304  0.72856388  0.84604698  1  0.292351  0  -0.054654  -0.153046  0  3.916003  0
C  C95  1  0.97481229  0.15395519  0.27143340  1  0.292234  0  -0.054614  -0.152912  0  3.916019  0
C  C96  1  0.52364646  0.33113595  0.34822625  1  1.40123  0  0.237076  0.466808  0  4.134246  0
C  C97  1  0.97635691  0.65177105  0.66886373  1  1.401124  0  0.237107  0.46696  0  4.13405  0
C  C98  1  0.47635190  0.66880960  0.65177671  1  1.400611  0  0.237129  0.466661  0  4.133867  0
C  C99  1  0.02364795  0.34822883  0.33119752  1  1.400525  0  0.237157  0.466733  0  4.134051  0
C  C100  1  0.48293811  0.35420013  0.43921826  1  -0.109747  0  -0.014958  -0.025343  0  3.988862  0
C  C101  1  0.01706639  0.56078427  0.64579988  1  -0.109698  0  -0.015005  -0.025527  0  3.989309  0
C  C102  1  0.51704533  0.64571441  0.56078778  1  -0.107687  0  -0.014914  -0.025344  0  3.989229  0
C  C103  1  0.98294768  0.43920591  0.35428418  1  -0.107682  0  -0.014948  -0.025386  0  3.989072  0
C  C104  1  0.36654170  0.32760184  0.42317419  1  -0.055066  0  -0.08192  -0.100394  0  3.945996  0
C  C105  1  0.13345818  0.57682597  0.67239177  1  -0.054899  0  -0.081942  -0.100371  0  3.94643  0
C  C106  1  0.63343636  0.67232426  0.57684643  1  -0.054948  0  -0.082051  -0.100478  0  3.946216  0
C  C107  1  0.86655205  0.42314771  0.32766949  1  -0.054751  0  -0.082007  -0.100492  0  3.946295  0
C  C108  1  0.33711611  0.35223002  0.51349906  1  -0.015108  0  -0.093091  -0.083474  0  4.003495  0
C  C109  1  0.16289319  0.48650755  0.64777728  1  -0.015337  0  -0.092986  -0.083359  0  4.003566  0
C  C110  1  0.66288553  0.64774925  0.48653533  1  -0.014679  0  -0.093006  -0.083395  0  4.003603  0
C  C111  1  0.83710943  0.51346102  0.35224804  1  -0.015261  0  -0.09297  -0.083313  0  4.003584  0
C  C112  1  0.42274960  0.40334123  0.61946968  1  -0.078267  0  -0.083866  -0.102261  0  3.970885  0
C  C113  1  0.07726105  0.38053645  0.59667127  1  -0.078104  0  -0.083929  -0.102282  0  3.970908  0
C  C114  1  0.57726117  0.59665928  0.38056661  1  -0.078229  0  -0.083766  -0.101894  0  3.971243  0
C  C115  1  0.92273431  0.61942792  0.40333254  1  -0.07785  0  -0.083772  -0.101981  0  3.971246  0
C  C116  1  0.53958396  0.43186136  0.63636271  1  -0.036911  0  -0.016218  -0.033091  0  4.00509  0
C  C117  1  0.96042071  0.36363969  0.56813455  1  -0.036665  0  -0.016213  -0.03305  0  4.004777  0
C  C118  1  0.46042254  0.56810878  0.36365431  1  -0.03564  0  -0.016377  -0.033468  0  4.005745  0
C  C119  1  0.03957146  0.63633956  0.43189114  1  -0.036185  0  -0.016428  -0.033451  0  4.005682  0
C  C120  1  0.56834874  0.40622216  0.54576413  1  -0.01162  0  -0.076301  -0.11406  0  3.933691  0
C  C121  1  0.93165742  0.45424190  0.59377462  1  -0.011512  0  -0.07631  -0.113977  0  3.93356  0
C  C122  1  0.43163625  0.59372182  0.45424266  1  -0.014412  0  -0.076216  -0.113647  0  3.93333  0
C  C123  1  0.06835913  0.54575381  0.40628252  1  -0.013793  0  -0.076211  -0.113642  0  3.932962  0
C  C124  1  0.62870598  0.49155045  0.75216613  1  1.404934  0  0.231022  0.46202  0  4.165769  0
C  C125  1  0.87130102  0.24783424  0.50843924  1  1.404748  0  0.23108  0.462029  0  4.165852  0
C  C126  1  0.37131722  0.50841792  0.24783972  1  1.403923  0  0.231031  0.46179  0  4.165805  0
C  C127  1  0.12867515  0.75215568  0.49158191  1  1.403513  0  0.230981  0.46172  0  4.165825  0
C  C128  1  0.82983611  0.62126122  0.87371538  1  0.289361  0  -0.063786  -0.145573  0  3.919627  0
C  C129  1  0.67016943  0.12628020  0.37873085  1  0.28938  0  -0.063811  -0.145616  0  3.919543  0
C  C130  1  0.17016909  0.37873328  0.12627253  1  0.289721  0  -0.063831  -0.145553  0  3.919792  0
C  C131  1  0.32981748  0.87372342  0.62126476  1  0.28999  0  -0.06389  -0.145754  0  3.91992  0
C  C132  1  0.87220464  0.74386957  0.90525145  1  1.586477  0  0.198501  0.602004  0  4.178501  0
C  C133  1  0.62778927  0.09474915  0.25611977  1  1.587317  0  0.198498  0.602084  0  4.178367  0
C  C134  1  0.12778422  0.25611270  0.09473376  1  1.586233  0  0.19849  0.602028  0  4.178522  0
C  C135  1  0.37221352  0.90526758  0.74388996  1  1.586624  0  0.198491  0.602155  0  4.178362  0
N  N136  1  0.18909690  0.98944129  0.20433216  1  -1.214498  0  -0.364631  -0.290534  0  3.569925  0
N  N137  1  0.31090052  0.79566106  0.01055812  1  -1.214676  0  -0.364547  -0.29044  0  3.569872  0
N  N138  1  0.81096927  0.01068861  0.79575992  1  -1.214496  0  -0.364532  -0.290026  0  3.570283  0
N  N139  1  0.68902612  0.20424545  0.98931095  1  -1.214313  0  -0.364462  -0.290035  0  3.57032  0
N  N140  1  0.29723874  0.96810946  0.33573534  1  -1.268051  0  -0.229976  0.019446  0  3.811538  0
N  N141  1  0.20276427  0.66426514  0.03189671  1  -1.268386  0  -0.22994  0.019559  0  3.811503  0
N  N142  1  0.70282307  0.03199169  0.66433590  1  -1.267148  0  -0.230471  0.018552  0  3.812698  0
N  N143  1  0.79718392  0.33567349  0.96802043  1  -1.267013  0  -0.2304  0.018793  0  3.812471  0
N  N144  1  0.40995485  0.14794049  0.53754468  1  -1.271645  0  -0.536454  -0.52404  0  3.367989  0
N  N145  1  0.09004750  0.46244888  0.85206464  1  -1.271514  0  -0.536392  -0.524005  0  3.368149  0
N  N146  1  0.59012928  0.85222959  0.46257491  1  -1.271029  0  -0.536729  -0.523832  0  3.369784  0
N  N147  1  0.90987199  0.53743697  0.14776743  1  -1.270764  0  -0.536677  -0.523746  0  3.369515  0
N  N148  1  0.44792306  0.30638714  0.24874034  1  -1.214576  0  -0.422031  -0.334183  0  3.603014  0
N  N149  1  0.05207695  0.75125853  0.69360921  1  -1.214723  0  -0.422032  -0.334208  0  3.603183  0
N  N150  1  0.55206808  0.69356746  0.75126745  1  -1.214829  0  -0.422121  -0.334121  0  3.602411  0
N  N151  1  0.94793039  0.24873217  0.30642564  1  -1.214815  0  -0.422135  -0.334197  0  3.602629  0
N  N152  1  0.73622777  0.55194821  0.76724573  1  -1.231666  0  -0.423444  -0.334113  0  3.605091  0
N  N153  1  0.76378070  0.23275079  0.44804356  1  -1.231791  0  -0.423469  -0.334223  0  3.605375  0
N  N154  1  0.26376399  0.44805361  0.23272872  1  -1.231516  0  -0.423421  -0.333858  0  3.605431  0
N  N155  1  0.23622527  0.76726581  0.55194728  1  -1.231495  0  -0.423291  -0.333675  0  3.605318  0
O  O156  1  0.34299659  0.08767617  0.10014221  1  -1.187709  0  -0.31604  -0.559174  0  2.355992  0
O  O157  1  0.15700621  0.89985580  0.91232064  1  -1.187117  0  -0.316102  -0.559272  0  2.355997  0
O  O158  1  0.65699136  0.91229428  0.89978608  1  -1.187781  0  -0.316114  -0.559579  0  2.356191  0
O  O159  1  0.84299779  0.10020426  0.08768683  1  -1.187535  0  -0.316031  -0.559469  0  2.355945  0
O  O160  1  0.62454070  0.33728248  0.36542864  1  -1.165586  0  -0.304515  -0.50746  0  2.163527  0
O  O161  1  0.87546346  0.63456901  0.66272003  1  -1.165677  0  -0.304468  -0.50744  0  2.163349  0
O  O162  1  0.37546029  0.66268754  0.63456590  1  -1.165742  0  -0.304562  -0.507355  0  2.163297  0
O  O163  1  0.12453833  0.36544389  0.33732882  1  -1.165794  0  -0.304601  -0.507395  0  2.163491  0
O  O164  1  0.60234431  0.48630044  0.82866635  1  -1.160847  0  -0.328943  -0.528124  0  2.089846  0
O  O165  1  0.89766972  0.17133480  0.51369431  1  -1.160881  0  -0.329014  -0.528203  0  2.089671  0
O  O166  1  0.39770561  0.51364168  0.17134345  1  -1.160688  0  -0.328958  -0.52807  0  2.089615  0
O  O167  1  0.10227499  0.82864477  0.48635326  1  -1.160487  0  -0.328898  -0.528027  0  2.089579  0
O  O168  1  0.79829958  0.77508935  0.85797104  1  -1.185675  0  -0.340527  -0.585252  0  2.299988  0
O  O169  1  0.70168772  0.14202814  0.22489526  1  -1.186358  0  -0.340538  -0.585348  0  2.299879  0
O  O170  1  0.20166956  0.22485607  0.14199508  1  -1.18628  0  -0.340461  -0.585304  0  2.299797  0
O  O171  1  0.29833216  0.85800099  0.77514479  1  -1.186398  0  -0.340478  -0.58536  0  2.299755  0
O  O172  1  0.97281355  0.80490754  0.97481899  1  -1.194119  0  -0.324374  -0.557998  0  2.183915  0
O  O173  1  0.52717982  0.02518640  0.19509162  1  -1.194003  0  -0.324397  -0.558061  0  2.183986  0
O  O174  1  0.02718648  0.19509502  0.02514797  1  -1.192959  0  -0.324512  -0.55808  0  2.18405  0
O  O175  1  0.47281155  0.97485153  0.80490153  1  -1.193189  0  -0.324467  -0.558083  0  2.18405  0
O  O176  1  0.46305917  0.10650157  0.01744465  1  -1.1699  0  -0.329488  -0.58388  0  2.355668  0
O  O177  1  0.03693484  0.98254309  0.89349616  1  -1.17117  0  -0.329505  -0.583846  0  2.355795  0
O  O178  1  0.53695991  0.89350668  0.98252836  1  -1.17146  0  -0.329637  -0.584125  0  2.355496  0
O  O179  1  0.96302494  0.01745810  0.10648899  1  -1.171417  0  -0.329582  -0.583971  0  2.355437  0
