# generated using pymatgen
data_ZnH14C20(NO4)2
_symmetry_space_group_name_H-M   'P 1'
_cell_length_a   9.89404745
_cell_length_b   10.88985809
_cell_length_c   23.62897147
_cell_angle_alpha   91.44903599
_cell_angle_beta   88.74664776
_cell_angle_gamma   91.84334306
_symmetry_Int_Tables_number   1
_chemical_formula_structural   ZnH14C20(NO4)2
_chemical_formula_sum   'Zn2 H28 C40 N4 O16'
_cell_volume   2543.20185167
_cell_formula_units_Z   2
loop_
 _symmetry_equiv_pos_site_id
 _symmetry_equiv_pos_as_xyz
  1  'x, y, z'
loop_
 _atom_site_type_symbol
 _atom_site_label
 _atom_site_symmetry_multiplicity
 _atom_site_fract_x
 _atom_site_fract_y
 _atom_site_fract_z
 _atom_site_occupancy
 _atom_site_pbe_bader_charge
 _atom_site_pbe_bader_spin_density
 _atom_site_pbe_cm5_charge
 _atom_site_pbe_ddec_charge
 _atom_site_pbe_ddec_spin_density
 _atom_site_pbe_ddec_sum_bond_order
 _atom_site_pbe_magmom
Zn  Zn0  1  0.64963467  0.48273362  0.49243748  1  1.29017  0  0.666171  0.855396  0  2.385562  0
Zn  Zn1  1  0.36932842  0.48535386  0.51265567  1  1.288572  0  0.67673  0.817441  0  2.427551  0
H  H2  1  0.71546845  0.73402863  0.94874274  1  0.118895  0  0.116628  0.125192  0  0.97854  0
H  H3  1  0.75478565  0.40662620  0.67922290  1  0.053627  0  0.097459  0.091062  0  1.013949  0
H  H4  1  0.33165795  0.48154527  0.68341578  1  0.133937  0  0.108051  0.113233  0  0.999446  0
H  H5  1  0.33263172  0.49041121  0.78964632  1  0.099207  0  0.110159  0.116748  0  0.979137  0
H  H6  1  0.55419950  0.06410473  0.46101673  1  0.077179  0  0.106768  0.130075  0  0.998866  0
H  H7  1  0.31788079  0.86878258  0.54039735  1  0.114661  0  0.107049  0.10896  0  0.986356  0
H  H8  1  0.62212669  0.89748650  0.51201412  1  0.100438  0  0.106176  0.125537  0  0.993963  0
H  H9  1  0.85687820  0.41312240  0.56630569  1  0.148804  0  0.130427  0.101582  0  1.006485  0
H  H10  1  0.91713796  0.51329825  0.45498814  1  0.49331  0  0.317166  0.301457  0  0.941021  0
H  H11  1  0.68209261  0.75784891  0.05473404  1  0.110045  0  0.116981  0.125056  0  0.978404  0
H  H12  1  0.56969995  0.35694843  0.21591004  1  0.090762  0  0.110884  0.120813  0  0.977708  0
H  H13  1  0.57433922  0.36749018  0.32161914  1  0.066214  0  0.110121  0.115306  0  0.983212  0
H  H14  1  0.33805104  0.68456772  0.21826834  1  0.07387  0  0.110429  0.122624  0  0.985426  0
H  H15  1  0.75546295  0.40920689  0.78529668  1  0.077486  0  0.111063  0.120146  0  0.97833  0
H  H16  1  0.39160066  0.02296066  0.64272975  1  0.027535  0  0.083916  0.10903  0  1.008705  0
H  H17  1  0.46767730  0.16909309  0.62848870  1  0.037043  0  0.083673  0.114232  0  1.009707  0
H  H18  1  0.30324689  0.15953038  0.65967595  1  0.01963  0  0.084655  0.112296  0  1.00229  0
H  H19  1  0.28911942  0.20627189  0.55675556  1  0.088032  0  0.090282  0.099418  0  1.028404  0
H  H20  1  0.21402773  0.05952523  0.57006646  1  0.003352  0  0.090274  0.083433  0  0.975308  0
H  H21  1  0.03415197  0.38209841  0.61189707  1  0.614178  0  0.356529  0.380335  0  0.856655  0
H  H22  1  0.20981562  0.53515025  0.42983107  1  0.656398  0  0.32161  0.355813  0  0.967286  0
H  H23  1  0.27087532  0.25245175  0.10123908  1  0.649997  0  0.309427  0.352606  0  0.961568  0
H  H24  1  0.33371259  0.20689013  0.90445763  1  0.652851  0  0.309249  0.354148  0  0.959312  0
H  H25  1  0.49014892  0.78285215  0.38569981  1  0.029651  0  0.085165  0.118561  0  1.013614  0
H  H26  1  0.49296585  0.85793936  0.31975198  1  0.034354  0  0.087693  0.115461  0  0.997473  0
H  H27  1  0.37550412  0.90137771  0.37436684  1  0.066678  0  0.087544  0.116302  0  1.000836  0
H  H28  1  0.25727686  0.77251475  0.30059708  1  0.003404  0  0.093772  0.087795  0  0.976226  0
H  H29  1  0.25585679  0.69652456  0.36567896  1  0.051208  0  0.091529  0.090988  0  0.999333  0
C  C30  1  0.51849125  0.71800006  0.51970843  1  1.507998  0  0.206943  0.636681  0  4.181562  0
C  C31  1  0.65348482  0.66807456  0.97262266  1  0.029314  0  -0.070387  -0.08372  0  3.954387  0
C  C32  1  0.63486723  0.68135539  0.03109050  1  -0.011201  0  -0.069591  -0.08161  0  3.95236  0
C  C33  1  0.55453862  0.59561378  0.06089453  1  -0.015586  0  -0.008568  -0.063802  0  3.987594  0
C  C34  1  0.49174274  0.49526635  0.03196251  1  0.012247  0  -0.002749  0.043173  0  4.049009  0
C  C35  1  0.40963079  0.40752214  0.06149435  1  0.015827  0  -0.034535  -0.227228  0  4.063518  0
C  C36  1  0.34677236  0.30732501  0.03300029  1  0.658112  0  0.112881  0.242955  0  4.011423  0
C  C37  1  0.36659592  0.29314434  0.97235665  1  0.606398  0  0.113139  0.243419  0  4.009712  0
C  C38  1  0.53840336  0.60970147  0.12301125  1  1.315453  0  0.24522  0.437622  0  4.07296  0
C  C39  1  0.39087268  0.41933985  0.12259406  1  1.28463  0  0.243543  0.450602  0  4.088629  0
C  C40  1  0.51938390  0.42994304  0.23973448  1  0.064166  0  -0.088037  -0.162703  0  4.000824  0
C  C41  1  0.46949591  0.52594895  0.39217650  1  1.564141  0  0.228384  0.619806  0  4.137665  0
C  C42  1  0.52119566  0.43568823  0.29842513  1  -0.018414  0  -0.079418  -0.072348  0  3.994566  0
C  C43  1  0.45598293  0.52930325  0.32917908  1  -0.04329  0  -0.013422  -0.092577  0  3.917799  0
C  C44  1  0.38701398  0.62027985  0.30076425  1  -0.013232  0  0.004895  0.12617  0  3.904507  0
C  C45  1  0.38760221  0.61384912  0.24140179  1  0.022299  0  -0.084311  -0.213666  0  3.939845  0
C  C46  1  0.45282087  0.52038734  0.21157195  1  0.311738  0  0.087926  0.19576  0  4.033084  0
C  C47  1  0.66307016  0.42517515  0.76271572  1  -0.080947  0  -0.082598  -0.150637  0  3.973936  0
C  C48  1  0.66228906  0.42368789  0.70368390  1  0.062107  0  -0.081225  -0.079358  0  3.985493  0
C  C49  1  0.54279476  0.44387627  0.67511200  1  -0.050346  0  -0.01237  -0.026228  0  3.951802  0
C  C50  1  0.42365709  0.46623988  0.70634879  1  -0.018067  0  -0.076632  -0.0734  0  3.96513  0
C  C51  1  0.42435539  0.47074321  0.76511693  1  -0.084027  0  -0.083128  -0.15185  0  3.982876  0
C  C52  1  0.49597378  0.25041287  0.48531771  1  1.57427  0  0.21188  0.656142  0  4.161361  0
C  C53  1  0.54397396  0.44960530  0.79298833  1  0.369633  0  0.091815  0.199747  0  4.007482  0
C  C54  1  0.40448644  0.05300782  0.52630020  1  -0.076645  0  0.0005  0.15094  0  3.958322  0
C  C55  1  0.48446145  0.11476434  0.48863771  1  -0.000993  0  -0.094882  -0.29287  0  3.841777  0
C  C56  1  0.41153134  0.91956480  0.52914296  1  -0.01729  0  -0.066985  -0.063287  0  3.962387  0
C  C57  1  0.52326957  0.85373193  0.52034735  1  -0.073039  0  -0.098312  -0.242295  0  3.924068  0
C  C58  1  0.91937519  0.44582347  0.53030063  1  0.693257  0  0.104497  0.095263  0  3.898506  0
C  C59  1  0.06560651  0.44682259  0.53785172  1  1.202212  0  0.224335  0.337758  0  4.055739  0
C  C60  1  0.53791680  0.44569955  0.61165040  1  1.597221  0  0.216094  0.588042  0  4.181636  0
C  C61  1  0.46382309  0.36628641  0.88233269  1  1.269771  0  0.243005  0.455997  0  4.093089  0
C  C62  1  0.61106289  0.55709417  0.88111930  1  1.317632  0  0.243941  0.442663  0  4.077337  0
C  C63  1  0.59205799  0.56876906  0.94315775  1  -0.051665  0  -0.010305  -0.06632  0  3.991054  0
C  C64  1  0.51078814  0.48164064  0.97247233  1  -0.013682  0  -0.002853  0.043214  0  4.048985  0
C  C65  1  0.44755442  0.38023761  0.94339628  1  0.064302  0  -0.034998  -0.227124  0  4.064093  0
C  C66  1  0.31067503  0.11288548  0.56916608  1  -0.012491  0  -0.165593  -0.158376  0  3.964806  0
C  C67  1  0.37152034  0.11581808  0.62851525  1  -0.064591  0  -0.242642  -0.339676  0  3.95306  0
C  C68  1  0.32211789  0.72827177  0.33077848  1  0.007655  0  -0.160465  -0.148203  0  3.981736  0
C  C69  1  0.42638417  0.82313671  0.35398893  1  -0.097783  0  -0.241538  -0.345566  0  3.944756  0
N  N70  1  0.54144669  0.45554730  0.85409573  1  -1.214817  0  -0.226517  -0.21536  0  3.569118  0
N  N71  1  0.45716532  0.51724403  0.15041525  1  -1.227908  0  -0.225097  -0.193451  0  3.545248  0
N  N72  1  0.85569293  0.48210841  0.48742256  1  -1.198476  0  -0.440139  -0.364936  0  3.228539  0
N  N73  1  0.15999566  0.48210690  0.50232317  1  -0.610379  0  -0.224026  -0.103952  0  3.392661  0
O  O74  1  0.62821100  0.66583378  0.50501169  1  -1.159637  0  -0.326154  -0.55462  0  2.284151  0
O  O75  1  0.68022125  0.62937947  0.85285598  1  -1.091294  0  -0.274724  -0.431527  0  2.068505  0
O  O76  1  0.59187008  0.69377383  0.15085567  1  -1.105034  0  -0.272594  -0.428648  0  2.071345  0
O  O77  1  0.31851775  0.34354150  0.14985731  1  -1.112441  0  -0.27553  -0.451687  0  2.114082  0
O  O78  1  0.40653727  0.66266656  0.53260509  1  -1.168349  0  -0.328758  -0.555371  0  2.322038  0
O  O79  1  0.58482253  0.50034164  0.40982676  1  -1.158992  0  -0.306165  -0.535559  0  2.298811  0
O  O80  1  0.36644554  0.54587715  0.42475632  1  -1.190629  0  -0.310309  -0.574454  0  2.377496  0
O  O81  1  0.61598672  0.29688154  0.48565221  1  -1.155291  0  -0.323673  -0.552224  0  2.263911  0
O  O82  1  0.38809303  0.31114406  0.48284510  1  -1.166914  0  -0.323615  -0.560208  0  2.328918  0
O  O83  1  0.64809443  0.45975651  0.58341002  1  -1.173755  0  -0.31725  -0.566602  0  2.302216  0
O  O84  1  0.42003441  0.43441580  0.59104134  1  -1.163277  0  -0.315444  -0.539064  0  2.363675  0
O  O85  1  0.40935409  0.27776843  0.85530099  1  -1.109952  0  -0.277995  -0.456483  0  2.114697  0
O  O86  1  0.11078726  0.40863922  0.58818477  1  -1.093086  0  -0.315697  -0.424086  0  2.268382  0
O  O87  1  0.11885939  0.52005140  0.45076473  1  -0.724724  0  -0.235516  -0.320366  0  2.209863  0
O  O88  1  0.26957628  0.22395674  0.05939242  1  -1.128841  0  -0.316115  -0.377627  0  2.258676  0
O  O89  1  0.30613906  0.19765275  0.94634945  1  -1.12478  0  -0.315711  -0.377931  0  2.2596  0
