# generated using pymatgen
data_Cu2H21C23(NO)6
_symmetry_space_group_name_H-M   'P 1'
_cell_length_a   8.67997726
_cell_length_b   9.97432426
_cell_length_c   16.67190552
_cell_angle_alpha   89.60002045
_cell_angle_beta   77.55877941
_cell_angle_gamma   77.42528467
_symmetry_Int_Tables_number   1
_chemical_formula_structural   Cu2H21C23(NO)6
_chemical_formula_sum   'Cu4 H42 C46 N12 O12'
_cell_volume   1374.49004536
_cell_formula_units_Z   2
loop_
 _symmetry_equiv_pos_site_id
 _symmetry_equiv_pos_as_xyz
  1  'x, y, z'
loop_
 _atom_site_type_symbol
 _atom_site_label
 _atom_site_symmetry_multiplicity
 _atom_site_fract_x
 _atom_site_fract_y
 _atom_site_fract_z
 _atom_site_occupancy
 _atom_site_pbe_bader_charge
 _atom_site_pbe_bader_spin_density
 _atom_site_pbe_cm5_charge
 _atom_site_pbe_ddec_charge
 _atom_site_pbe_ddec_spin_density
 _atom_site_pbe_ddec_sum_bond_order
 _atom_site_pbe_magmom
Cu  Cu0  1  0.31517450  0.00493582  0.34536794  1  1.024635  2.1e-05  0.72127  0.749903  3.2e-05  2.335646  0.0
Cu  Cu1  1  0.68483031  0.99506159  0.65463083  1  1.024958  -0.000152  0.721219  0.749809  -0.000214  2.335628  0.0
Cu  Cu2  1  0.30764920  0.98976365  0.70199422  1  1.036339  -7.1e-05  0.745792  0.774315  -9.6e-05  2.335788  0.0
Cu  Cu3  1  0.69235089  0.01023379  0.29800629  1  1.036271  0.000124  0.745864  0.774383  0.000198  2.335766  0.0
H  H4  1  0.96727525  0.72769656  0.50136673  1  0.514648  0.0  0.304182  0.265175  0.0  1.030025  0.0
H  H5  1  0.03272642  0.27230394  0.49863299  1  0.514632  -0.0  0.304182  0.265092  0.0  1.030062  0.0
H  H6  1  0.95685977  0.72758680  0.61290543  1  0.482136  0.0  0.298465  0.247601  0.0  1.060518  0.0
H  H7  1  0.04314045  0.27241475  0.38709385  1  0.482142  0.0  0.298475  0.247612  0.0  1.060539  0.0
H  H8  1  0.37339751  0.12971770  0.52036018  1  0.143247  -1e-06  0.138692  0.111047  -0.0  0.981079  0.0
H  H9  1  0.62660297  0.87028282  0.47963968  1  0.143234  -0.0  0.138692  0.111083  -0.0  0.981056  0.0
H  H10  1  0.23374081  0.81438271  0.22987029  1  0.081135  0.0  0.106043  0.090848  0.0  0.981265  0.0
H  H11  1  0.76625783  0.18561578  0.77012858  1  0.081121  0.0  0.106038  0.09086  0.0  0.981258  0.0
H  H12  1  0.02546785  0.87750061  0.27267716  1  0.047656  -0.0  0.098212  0.065347  -0.0  1.013956  0.0
H  H13  1  0.97452935  0.12249890  0.72732307  1  0.047667  -1e-06  0.098215  0.065356  -1e-06  1.013979  0.0
H  H14  1  0.23160502  0.59495811  0.29653711  1  0.039145  -1e-06  0.088115  0.085315  -0.0  1.041825  0.0
H  H15  1  0.76839192  0.40504243  0.70346315  1  0.03912  1e-06  0.088117  0.085323  1e-06  1.041867  0.0
H  H16  1  0.06371902  0.63238186  0.24787367  1  0.063042  -1e-06  0.101029  0.11399  -1e-06  0.98938  0.0
H  H17  1  0.93627725  0.36761664  0.75212607  1  0.063081  2e-06  0.101017  0.113988  1e-06  0.989288  0.0
H  H18  1  0.87301742  0.70563677  0.37471339  1  0.079551  -1e-06  0.099861  0.070825  -0.0  1.007829  0.0
H  H19  1  0.12698019  0.29436582  0.62528679  1  0.079581  -0.0  0.099864  0.070817  -0.0  1.007878  0.0
H  H20  1  0.00146843  0.55249796  0.39786137  1  0.067681  -0.0  0.106714  0.087854  -0.0  0.982964  0.0
H  H21  1  0.99852852  0.44750258  0.60213949  1  0.06768  0.0  0.106724  0.087886  0.0  0.982908  0.0
H  H22  1  0.08500485  0.89905416  0.84550340  1  0.036391  -1e-06  0.109726  0.089706  -0.0  0.964261  0.0
H  H23  1  0.91499604  0.10094944  0.15449521  1  0.036423  -0.0  0.10974  0.089745  -0.0  0.964278  0.0
H  H24  1  0.19857493  0.73113142  0.81731577  1  0.041797  0.0  0.102941  0.077151  0.0  0.992881  0.0
H  H25  1  0.80142387  0.26887115  0.18268487  1  0.041805  -1e-06  0.102935  0.0772  -1e-06  0.992909  0.0
H  H26  1  0.91996868  0.71029630  0.86414320  1  0.043051  2e-06  0.103044  0.109381  1e-06  0.961597  0.0
H  H27  1  0.08002696  0.28970938  0.13585599  1  0.042998  -1e-06  0.103038  0.109373  -1e-06  0.961595  0.0
H  H28  1  0.84705941  0.84935516  0.80516032  1  0.078435  0.0  0.093593  0.100791  0.0  1.036895  0.0
H  H29  1  0.15294121  0.15064947  0.19483771  1  0.078475  -0.0  0.093608  0.100829  -0.0  1.036923  0.0
H  H30  1  0.05979854  0.56877736  0.73708917  1  0.077334  1e-06  0.106589  0.082957  1e-06  0.983138  0.0
H  H31  1  0.94019907  0.43122522  0.26291161  1  0.077285  -1e-06  0.106581  0.082942  -1e-06  0.983174  0.0
H  H32  1  0.85632459  0.63575993  0.73004692  1  0.058162  1e-06  0.112899  0.090329  1e-06  0.976587  0.0
H  H33  1  0.14367250  0.36424472  0.26995271  1  0.058162  -1e-06  0.112907  0.090334  -0.0  0.976564  0.0
H  H34  1  0.32982467  0.51099813  0.47749345  1  0.112338  0.0  0.102094  0.106171  0.0  1.007109  0.0
H  H35  1  0.67017475  0.48899726  0.52250714  1  0.112368  -0.0  0.102088  0.106188  -0.0  1.006994  0.0
H  H36  1  0.46253522  0.70709880  0.43692878  1  0.07283  0.0  0.09984  0.102362  0.0  1.020155  0.0
H  H37  1  0.53747250  0.29289652  0.56307386  1  0.073222  -0.0  0.099813  0.102365  -0.0  1.020147  0.0
H  H38  1  0.66930211  0.51691621  0.19646852  1  0.100834  -2e-06  0.105066  0.107536  -1e-06  1.00023  0.0
H  H39  1  0.33070102  0.48308325  0.80353403  1  0.100784  2e-06  0.105033  0.107513  2e-06  1.000265  0.0
H  H40  1  0.53992463  0.31612392  0.23823800  1  0.082167  -1e-06  0.104624  0.10958  -0.0  1.015252  0.0
H  H41  1  0.46007258  0.68387559  0.76176223  1  0.082124  0.0  0.104622  0.109576  0.0  1.015246  0.0
H  H42  1  0.26967479  0.94953829  0.10393957  1  0.097414  -1e-06  0.106332  0.108193  -0.0  1.012381  0.0
H  H43  1  0.73032492  0.05046531  0.89606036  1  0.097396  1e-06  0.106325  0.108173  1e-06  1.012414  0.0
H  H44  1  0.73010161  0.06218261  0.04661944  1  0.091263  -1e-06  0.104815  0.109339  -0.0  1.004077  0.0
H  H45  1  0.26989836  0.93781997  0.95337987  1  0.091237  -0.0  0.104822  0.109333  -0.0  1.00405  0.0
C  C46  1  0.30607459  0.04950670  0.52554694  1  1.025739  -1e-06  0.144982  0.185383  0.0  3.981073  0.0
C  C47  1  0.69392707  0.95049382  0.47445158  1  1.025859  -0.0  0.144953  0.185215  0.0  3.981094  0.0
C  C48  1  0.17227737  0.89319520  0.57929848  1  0.407647  -1e-06  0.083652  0.025404  -0.0  3.931023  0.0
C  C49  1  0.82772625  0.10680222  0.42069982  1  0.407642  1e-06  0.083658  0.025412  1e-06  3.93104  0.0
C  C50  1  0.17531054  0.89649023  0.49477285  1  0.37375  1e-06  0.083029  0.016576  1e-06  3.955256  0.0
C  C51  1  0.82469400  0.10350821  0.50522535  1  0.37374  -1e-06  0.083069  0.016583  -1e-06  3.955205  0.0
C  C52  1  0.12631961  0.82855100  0.42884904  1  1.208685  -0.0  0.244026  0.334389  -0.0  4.119426  0.0
C  C53  1  0.87368350  0.17144847  0.57115051  1  1.208686  0.0  0.244023  0.334288  -0.0  4.119418  0.0
C  C54  1  0.13743986  0.81076447  0.28409390  1  0.291619  2e-06  -0.066113  0.010949  2e-06  3.916634  0.0
C  C55  1  0.86255760  0.18923402  0.71590571  1  0.29167  -1e-06  -0.066079  0.010941  -1e-06  3.916669  0.0
C  C56  1  0.11414152  0.66447217  0.29764146  1  -0.005349  1e-06  -0.166171  -0.210502  1e-06  3.928972  0.0
C  C57  1  0.88585476  0.33552633  0.70235828  1  -0.005437  -0.0  -0.166166  -0.210495  0.0  3.928927  0.0
C  C58  1  0.99764821  0.65893623  0.37942632  1  0.261058  -0.0  -0.059485  0.011036  -0.0  3.879409  0.0
C  C59  1  0.00234992  0.34106430  0.62057440  1  0.261065  0.0  -0.059506  0.010961  0.0  3.879325  0.0
C  C60  1  0.11555095  0.82326124  0.65483460  1  1.164665  -1e-06  0.245891  0.336399  -1e-06  4.102382  0.0
C  C61  1  0.88445123  0.17673721  0.34516447  1  1.16471  -1e-06  0.245941  0.336505  -0.0  4.102337  0.0
C  C62  1  0.10391614  0.81276310  0.80113590  1  0.343288  0.0  -0.064277  0.000398  0.0  3.950597  0.0
C  C63  1  0.89608357  0.18724051  0.19886344  1  0.34318  2e-06  -0.064321  0.000202  2e-06  3.950627  0.0
C  C64  1  0.94855492  0.76215144  0.80623947  1  -0.040208  0.0  -0.164638  -0.211234  1e-06  3.933955  0.0
C  C65  1  0.05144452  0.23785320  0.19375990  1  -0.040182  1e-06  -0.164644  -0.211221  1e-06  3.933998  0.0
C  C66  1  0.97026770  0.66414081  0.73295210  1  0.283428  1e-06  -0.057403  0.005315  1e-06  3.883811  0.0
C  C67  1  0.02973056  0.33586384  0.26704739  1  0.283391  -1e-06  -0.057402  0.005396  -0.0  3.883668  0.0
C  C68  1  0.33825829  0.28950121  0.38162799  1  1.550768  0.0  0.21245  0.579882  0.0  4.19464  0.0
C  C69  1  0.66174061  0.71049624  0.61837205  1  1.550391  -0.0  0.212395  0.57986  -1e-06  4.194604  0.0
C  C70  1  0.42793155  0.40182809  0.36013823  1  -0.016897  1e-06  -0.01922  -0.036672  1e-06  3.977024  0.0
C  C71  1  0.57206658  0.59817244  0.63986189  1  -0.016613  -1e-06  -0.019246  -0.036728  -1e-06  3.977047  0.0
C  C72  1  0.40627665  0.51155933  0.41645545  1  0.021792  -0.0  -0.08569  -0.095698  0.0  3.977451  0.0
C  C73  1  0.59372056  0.48844018  0.58354598  1  0.021823  -0.0  -0.085656  -0.095652  -0.0  3.977266  0.0
C  C74  1  0.47979183  0.62106917  0.39362017  1  -0.100277  1e-06  -0.087025  -0.09598  1e-06  3.97033  0.0
C  C75  1  0.52020775  0.37893031  0.60638219  1  -0.100661  0.0  -0.087002  -0.095943  0.0  3.970334  0.0
C  C76  1  0.57372000  0.62359762  0.31407556  1  -0.059294  1e-06  -0.013121  -0.015085  1e-06  3.940672  0.0
C  C77  1  0.42628062  0.37639775  0.68592610  1  -0.059224  -0.0  -0.013191  -0.015253  -0.0  3.940706  0.0
C  C78  1  0.59589089  0.51315345  0.25808223  1  -0.023127  -1e-06  -0.085897  -0.103192  -1e-06  3.981944  0.0
C  C79  1  0.40411184  0.48684294  0.74191978  1  -0.022803  2e-06  -0.085844  -0.103131  1e-06  3.981908  0.0
C  C80  1  0.52439275  0.40258698  0.28106938  1  -0.09015  -1e-06  -0.087592  -0.102862  -1e-06  3.987645  0.0
C  C81  1  0.47560776  0.59741353  0.71893227  1  -0.090411  1e-06  -0.087611  -0.102891  1e-06  3.987564  0.0
C  C82  1  0.65332737  0.74126571  0.28748202  1  1.555542  -0.0  0.196331  0.558797  1e-06  4.217162  0.0
C  C83  1  0.34666044  0.25873382  0.71252648  1  1.555646  -0.0  0.19646  0.55902  -0.0  4.217123  0.0
C  C84  1  0.50067111  0.01340803  0.17350967  1  1.575157  1e-06  0.221216  0.589638  2e-06  4.13091  0.0
C  C85  1  0.49933055  0.98659249  0.82648885  1  1.575084  -0.0  0.221179  0.589578  -1e-06  4.130695  0.0
C  C86  1  0.49976924  0.00722318  0.08380901  1  -0.076932  1e-06  -0.012711  -0.021967  1e-06  3.952067  0.0
C  C87  1  0.50023464  0.99277322  0.91618927  1  -0.077003  -3e-06  -0.012727  -0.021945  -3e-06  3.951951  0.0
C  C88  1  0.36968311  0.97190274  0.05791688  1  0.001688  -1e-06  -0.084421  -0.10091  -0.0  3.984865  0.0
C  C89  1  0.63031880  0.02809675  0.94208102  1  0.001661  1e-06  -0.084423  -0.100932  1e-06  3.984873  0.0
C  C90  1  0.63009571  0.03521061  0.02533057  1  -0.049537  -0.0  -0.083982  -0.094816  -0.0  3.975105  0.0
C  C91  1  0.36990646  0.96478786  0.97466610  1  -0.049374  0.0  -0.084031  -0.094867  0.0  3.975022  0.0
N  N92  1  0.25933959  0.99594255  0.46406248  1  -1.158598  3.1e-05  -0.379752  -0.330616  2.4e-05  3.670452  0.0
N  N93  1  0.74066231  0.00405695  0.53593421  1  -1.158505  -1.4e-05  -0.37984  -0.330607  -1e-05  3.670483  0.0
N  N94  1  0.25490337  0.99077145  0.59538940  1  -1.152877  9e-06  -0.3777  -0.310904  8e-06  3.647295  0.0
N  N95  1  0.74509591  0.00922909  0.40460819  1  -1.15295  3.1e-05  -0.377629  -0.310772  2.4e-05  3.64714  0.0
N  N96  1  0.17974139  0.86830752  0.35443280  1  -1.182868  2e-05  -0.402066  -0.396921  1.5e-05  3.516428  0.0
N  N97  1  0.82026146  0.13169298  0.64556678  1  -1.182862  -2.4e-05  -0.402085  -0.396874  -1.7e-05  3.516441  0.0
N  N98  1  0.03979025  0.73137039  0.44464518  1  -1.264282  1e-06  -0.42276  -0.319466  0.0  3.533156  0.0
N  N99  1  0.96021075  0.26862807  0.55535402  1  -1.264295  -0.0  -0.422757  -0.319318  -0.0  3.533049  0.0
N  N100  1  0.16434782  0.85923103  0.71959688  1  -1.184572  -6e-06  -0.396889  -0.390857  -3e-06  3.512328  0.0
N  N101  1  0.83565134  0.14076540  0.28040254  1  -1.184566  2.5e-05  -0.396872  -0.390821  2e-05  3.512168  0.0
N  N102  1  0.02369519  0.73027639  0.65652558  1  -1.222349  1e-06  -0.423952  -0.338465  1e-06  3.559622  0.0
N  N103  1  0.97630648  0.26972412  0.34347354  1  -1.222273  -0.0  -0.423978  -0.338581  0.0  3.559592  0.0
O  O104  1  0.40783221  0.17072406  0.34664270  1  -1.144666  1.2e-05  -0.330328  -0.577184  9e-06  2.473709  0.0
O  O105  1  0.59216997  0.82927440  0.65335577  1  -1.14461  -1.8e-05  -0.330317  -0.577135  -1.2e-05  2.473544  0.0
O  O106  1  0.20040804  0.32018036  0.42968282  1  -1.199103  1e-06  -0.313229  -0.556476  1e-06  2.24615  0.0
O  O107  1  0.79959009  0.67982017  0.57031791  1  -1.199099  0.0  -0.313213  -0.556498  0.0  2.246174  0.0
O  O108  1  0.58554058  0.85672061  0.33042185  1  -1.131581  2.7e-05  -0.341902  -0.591229  2.1e-05  2.467825  0.0
O  O109  1  0.41445479  0.14327686  0.66957979  1  -1.131547  -9e-06  -0.341937  -0.591265  -5e-06  2.467588  0.0
O  O110  1  0.77485611  0.72466949  0.23006858  1  -1.154054  -3e-06  -0.3267  -0.543966  -2e-06  2.089014  0.0
O  O111  1  0.22514871  0.27532791  0.76993199  1  -1.154279  0.0  -0.326721  -0.544039  1e-06  2.089507  0.0
O  O112  1  0.37238174  0.99700887  0.22307638  1  -1.152948  7e-06  -0.319237  -0.533256  5e-06  2.414423  0.0
O  O113  1  0.62762069  0.00298857  0.77692146  1  -1.153328  -1.8e-05  -0.319161  -0.533144  -1.2e-05  2.414218  0.0
O  O114  1  0.62921852  0.03435162  0.19155149  1  -1.126287  1.7e-05  -0.319211  -0.531607  1.3e-05  2.402706  0.0
O  O115  1  0.37078642  0.96564991  0.80844605  1  -1.12639  -1.1e-05  -0.319281  -0.531644  -7e-06  2.402684  0.0
