# generated using pymatgen
data_Ag2H5C5S(NO2)3
_symmetry_space_group_name_H-M   'P 1'
_cell_length_a   8.21204128
_cell_length_b   11.12575006
_cell_length_c   12.11434607
_cell_angle_alpha   117.32275630
_cell_angle_beta   90.00003495
_cell_angle_gamma   90.00001283
_symmetry_Int_Tables_number   1
_chemical_formula_structural   Ag2H5C5S(NO2)3
_chemical_formula_sum   'Ag8 H20 C20 S4 N12 O24'
_cell_volume   983.34532737
_cell_formula_units_Z   4
loop_
 _symmetry_equiv_pos_site_id
 _symmetry_equiv_pos_as_xyz
  1  'x, y, z'
loop_
 _atom_site_type_symbol
 _atom_site_label
 _atom_site_symmetry_multiplicity
 _atom_site_fract_x
 _atom_site_fract_y
 _atom_site_fract_z
 _atom_site_occupancy
 _atom_site_hle17_bader_spin_density
 _atom_site_hle17_ddec_charge
 _atom_site_hle17_ddec_spin_density
 _atom_site_hle17_ddec_sum_bond_order
 _atom_site_hle17_magmom
 _atom_site_hse06_10hf_bader_spin_density
 _atom_site_hse06_10hf_ddec_charge
 _atom_site_hse06_10hf_ddec_spin_density
 _atom_site_hse06_10hf_ddec_sum_bond_order
 _atom_site_hse06_10hf_magmom
 _atom_site_hse06_bader_spin_density
 _atom_site_hse06_ddec_charge
 _atom_site_hse06_ddec_spin_density
 _atom_site_hse06_ddec_sum_bond_order
 _atom_site_hse06_magmom
 _atom_site_pbe_bader_spin_density
 _atom_site_pbe_cm5_charge
 _atom_site_pbe_ddec_charge
 _atom_site_pbe_ddec_spin_density
 _atom_site_pbe_ddec_sum_bond_order
 _atom_site_pbe_magmom
Ag  Ag0  1  0.12832635  0.30700291  0.25216430  1  0  0.50804  0  1.630361  0  0  0.405268  0  2.099925  0  0  0.428934  0  2.050244  0  0  0.376013  0.388803  0  2.134965  0
Ag  Ag1  1  0.37167541  0.80700200  0.75216423  1  0  0.508036  0  1.630374  0  0  0.405277  0  2.099919  0  0  0.428938  0  2.050241  0  0  0.376013  0.388816  0  2.134961  0
Ag  Ag2  1  0.87167409  0.69300042  0.74783450  1  0  0.508054  0  1.630355  0  0  0.405278  0  2.099932  0  0  0.428941  0  2.050249  0  0  0.376029  0.388816  0  2.134974  0
Ag  Ag3  1  0.62832626  0.19300133  0.24783540  1  0  0.508041  0  1.630339  0  0  0.40528  0  2.099899  0  0  0.42894  0  2.05022  0  0  0.376026  0.388816  0  2.134938  0
Ag  Ag4  1  0.15612076  0.06002745  0.01365812  1  0  0.473479  0  1.619931  0  0  0.367238  0  2.101508  0  0  0.393324  0  2.045695  0  0  0.363217  0.349319  0  2.140646  0
Ag  Ag5  1  0.34387827  0.56002552  0.51365762  1  0  0.473515  0  1.619876  0  0  0.367275  0  2.101461  0  0  0.393361  0  2.045646  0  0  0.363234  0.349354  0  2.140592  0
Ag  Ag6  1  0.84387603  0.93997287  0.98634274  1  0  0.473517  0  1.619866  0  0  0.367284  0  2.101445  0  0  0.393371  0  2.045631  0  0  0.363238  0.349367  0  2.140581  0
Ag  Ag7  1  0.65612582  0.43997179  0.48634364  1  0  0.473502  0  1.619871  0  0  0.367266  0  2.101443  0  0  0.393353  0  2.045629  0  0  0.363223  0.349346  0  2.140579  0
H  H8  1  0.22901141  0.07093483  0.28311945  1  0  0.126274  0  0.98112  0  0  0.130108  0  1.052806  0  0  0.134405  0  1.049926  0  0  0.105422  0.126952  0  1.055142  0
H  H9  1  0.27098665  0.57093592  0.78312182  1  0  0.126245  0  0.981109  0  0  0.130065  0  1.052835  0  0  0.134362  0  1.049955  0  0  0.105409  0.126909  0  1.055174  0
H  H10  1  0.77098904  0.92906345  0.71687891  1  0  0.126306  0  0.981072  0  0  0.130131  0  1.052783  0  0  0.134427  0  1.049907  0  0  0.105449  0.126978  0  1.055119  0
H  H11  1  0.72901135  0.42906542  0.21687946  1  0  0.126264  0  0.981122  0  0  0.130086  0  1.052831  0  0  0.134385  0  1.049947  0  0  0.105419  0.126929  0  1.055169  0
H  H12  1  0.09704438  0.78736630  0.40437917  1  0  0.309643  0  0.897  0  0  0.285895  0  0.963453  0  0  0.29481  0  0.956412  0  0  0.319263  0.279509  0  0.968634  0
H  H13  1  0.40295629  0.28736668  0.90437775  1  0  0.309649  0  0.897015  0  0  0.2859  0  0.963476  0  0  0.294815  0  0.956432  0  0  0.319277  0.279515  0  0.968654  0
H  H14  1  0.90295484  0.21263201  0.59562168  1  0  0.309651  0  0.897019  0  0  0.285901  0  0.963479  0  0  0.294814  0  0.956439  0  0  0.319285  0.279516  0  0.968654  0
H  H15  1  0.59704537  0.71263262  0.09562187  1  0  0.309636  0  0.897034  0  0  0.285889  0  0.963491  0  0  0.294804  0  0.956446  0  0  0.319273  0.279506  0  0.968666  0
H  H16  1  0.72382396  0.96078636  0.29083380  1  0  0.135715  0  0.95077  0  0  0.141398  0  1.015746  0  0  0.145465  0  1.013449  0  0  0.111849  0.138418  0  1.017731  0
H  H17  1  0.77617529  0.46078671  0.79083395  1  0  0.135727  0  0.950785  0  0  0.141401  0  1.01576  0  0  0.14547  0  1.013462  0  0  0.111854  0.138422  0  1.017747  0
H  H18  1  0.27617526  0.03921395  0.70916624  1  0  0.135732  0  0.950788  0  0  0.141402  0  1.015762  0  0  0.145471  0  1.013464  0  0  0.111854  0.138423  0  1.017748  0
H  H19  1  0.22382516  0.53921462  0.20916650  1  0  0.135747  0  0.950744  0  0  0.141428  0  1.01572  0  0  0.145495  0  1.013421  0  0  0.111857  0.138447  0  1.017706  0
H  H20  1  0.81979038  0.81192463  0.38236666  1  0  0.102844  0  0.964561  0  0  0.106645  0  1.035516  0  0  0.109711  0  1.032736  0  0  0.125546  0.10443  0  1.037472  0
H  H21  1  0.68020891  0.31192493  0.88236676  1  0  0.102857  0  0.964552  0  0  0.106661  0  1.035505  0  0  0.109728  0  1.032723  0  0  0.125555  0.104447  0  1.03746  0
H  H22  1  0.18020763  0.18807669  0.61763379  1  0  0.10286  0  0.964531  0  0  0.106677  0  1.03547  0  0  0.109746  0  1.032686  0  0  0.125566  0.104461  0  1.037427  0
H  H23  1  0.31979154  0.68807640  0.11763369  1  0  0.102861  0  0.964543  0  0  0.10668  0  1.035488  0  0  0.109748  0  1.032705  0  0  0.12555  0.104465  0  1.037446  0
H  H24  1  0.30518995  0.91360213  0.36914651  1  0  0.10775  0  0.962248  0  0  0.10689  0  1.038326  0  0  0.110968  0  1.033917  0  0  0.127607  0.103813  0  1.04174  0
H  H25  1  0.19480951  0.41360245  0.86914744  1  0  0.107726  0  0.962267  0  0  0.106871  0  1.038338  0  0  0.110952  0  1.033925  0  0  0.127603  0.103796  0  1.041752  0
H  H26  1  0.69480927  0.08639819  0.63085435  1  0  0.107765  0  0.962266  0  0  0.10688  0  1.038344  0  0  0.11096  0  1.033933  0  0  0.127613  0.103809  0  1.04176  0
H  H27  1  0.80518972  0.58639789  0.13085425  1  0  0.107748  0  0.962248  0  0  0.106889  0  1.038323  0  0  0.11097  0  1.033911  0  0  0.127619  0.103817  0  1.041736  0
C  C28  1  0.13484237  0.01276993  0.30004227  1  0  -0.154715  0  3.67858  0  0  -0.173682  0  3.931424  0  0  -0.183196  0  3.9514  0  0  -0.086816  -0.167672  0  3.918592  0
C  C29  1  0.36515569  0.51277105  0.80004387  1  0  -0.154632  0  3.678585  0  0  -0.173633  0  3.931501  0  0  -0.183144  0  3.951474  0  0  -0.08682  -0.167625  0  3.918672  0
C  C30  1  0.86515685  0.98722631  0.69995360  1  0  -0.154673  0  3.678619  0  0  -0.173699  0  3.931531  0  0  -0.18321  0  3.951502  0  0  -0.086831  -0.16769  0  3.918708  0
C  C31  1  0.63484232  0.48723028  0.19995742  1  0  -0.154676  0  3.678588  0  0  -0.173645  0  3.931507  0  0  -0.183157  0  3.95148  0  0  -0.086797  -0.167642  0  3.918669  0
C  C32  1  0.85311582  0.95308357  0.30626440  1  0  -0.139308  0  3.644766  0  0  -0.159718  0  3.902927  0  0  -0.168084  0  3.920887  0  0  -0.08103  -0.154794  0  3.8916  0
C  C33  1  0.64688344  0.45308487  0.80626573  1  0  -0.139333  0  3.644761  0  0  -0.159718  0  3.902923  0  0  -0.168086  0  3.920884  0  0  -0.081035  -0.154798  0  3.891599  0
C  C34  1  0.14688341  0.04691267  0.69373146  1  0  -0.139351  0  3.6448  0  0  -0.159727  0  3.902962  0  0  -0.168094  0  3.920922  0  0  -0.081051  -0.154802  0  3.891639  0
C  C35  1  0.35311700  0.54691747  0.19373514  1  0  -0.13939  0  3.644673  0  0  -0.159778  0  3.90285  0  0  -0.168145  0  3.92081  0  0  -0.081055  -0.154862  0  3.891517  0
C  C36  1  0.90397042  0.86932813  0.35534802  1  0  0.152739  0  3.613456  0  0  0.108183  0  3.875418  0  0  0.118247  0  3.888667  0  0  0.060769  0.101592  0  3.866675  0
C  C37  1  0.59602886  0.36932839  0.85534807  1  0  0.152766  0  3.61346  0  0  0.108206  0  3.87542  0  0  0.118271  0  3.888667  0  0  0.060793  0.101615  0  3.866682  0
C  C38  1  0.09602881  0.13067015  0.64465034  1  0  0.152781  0  3.613493  0  0  0.108207  0  3.875449  0  0  0.118272  0  3.888695  0  0  0.060779  0.101619  0  3.866706  0
C  C39  1  0.40397280  0.63067294  0.14465239  1  0  0.152783  0  3.613411  0  0  0.1082  0  3.875388  0  0  0.118264  0  3.888637  0  0  0.060814  0.101608  0  3.866648  0
C  C40  1  0.97029846  0.02409800  0.27443870  1  0  0.177532  0  3.713137  0  0  0.185639  0  3.962299  0  0  0.196578  0  3.982544  0  0  0.015116  0.178269  0  3.94881  0
C  C41  1  0.52970064  0.52409997  0.77444051  1  0  0.177485  0  3.713226  0  0  0.185572  0  3.962404  0  0  0.196512  0  3.982642  0  0  0.015105  0.178214  0  3.948902  0
C  C42  1  0.02970198  0.97589825  0.72555799  1  0  0.177522  0  3.713248  0  0  0.185592  0  3.96246  0  0  0.196531  0  3.982708  0  0  0.015129  0.178223  0  3.948974  0
C  C43  1  0.47029859  0.47590135  0.22555994  1  0  0.177549  0  3.713196  0  0  0.185625  0  3.96239  0  0  0.196565  0  3.98263  0  0  0.015119  0.178284  0  3.948855  0
C  C44  1  0.17933451  0.92739409  0.34886299  1  0  0.156014  0  3.603941  0  0  0.115234  0  3.861144  0  0  0.124984  0  3.875059  0  0  0.062044  0.108665  0  3.852176  0
C  C45  1  0.32066493  0.42739547  0.84886359  1  0  0.156086  0  3.604057  0  0  0.115322  0  3.861242  0  0  0.125072  0  3.875155  0  0  0.062097  0.108754  0  3.85228  0
C  C46  1  0.82066471  0.07260420  0.65113620  1  0  0.155947  0  3.604159  0  0  0.115254  0  3.861296  0  0  0.125004  0  3.875207  0  0  0.062028  0.108678  0  3.85234  0
C  C47  1  0.67933551  0.57260487  0.15113810  1  0  0.156049  0  3.60399  0  0  0.115253  0  3.861234  0  0  0.125001  0  3.875148  0  0  0.062035  0.108677  0  3.852275  0
S  S48  1  0.91501134  0.12419978  0.20270427  1  0  -0.364702  0  2.814056  0  0  -0.289244  0  3.316619  0  0  -0.31154  0  3.289311  0  0  -0.19449  -0.274258  0  3.335924  0
S  S49  1  0.58498773  0.62420077  0.70270569  1  0  -0.36475  0  2.81422  0  0  -0.289269  0  3.316777  0  0  -0.311569  0  3.28947  0  0  -0.194504  -0.274288  0  3.336083  0
S  S50  1  0.08498910  0.87579747  0.79729202  1  0  -0.364747  0  2.814313  0  0  -0.289237  0  3.316823  0  0  -0.311531  0  3.289515  0  0  -0.194493  -0.274251  0  3.336137  0
S  S51  1  0.41501150  0.37579954  0.29729351  1  0  -0.36477  0  2.814203  0  0  -0.28929  0  3.31677  0  0  -0.311588  0  3.28946  0  0  -0.194527  -0.274315  0  3.336062  0
N  N52  1  0.06385896  0.85696472  0.37391227  1  0  -0.228864  0  3.495513  0  0  -0.156233  0  3.721091  0  0  -0.172245  0  3.737562  0  0  -0.350608  -0.145745  0  3.710189  0
N  N53  1  0.43614048  0.35696615  0.87391294  1  0  -0.228911  0  3.495624  0  0  -0.156285  0  3.721201  0  0  -0.172299  0  3.737678  0  0  -0.350639  -0.145794  0  3.710302  0
N  N54  1  0.93614026  0.14303357  0.62608693  1  0  -0.228884  0  3.495672  0  0  -0.156281  0  3.721248  0  0  -0.172294  0  3.737721  0  0  -0.350642  -0.145789  0  3.71035  0
N  N55  1  0.56385996  0.64303417  0.12608710  1  0  -0.228918  0  3.495638  0  0  -0.156276  0  3.721231  0  0  -0.172291  0  3.73771  0  0  -0.350651  -0.145786  0  3.710331  0
N  N56  1  0.02795291  0.32911069  0.00566769  1  0  0.69491  0  4.122095  0  0  0.734876  0  4.399176  0  0  0.749117  0  4.426901  0  0  0.095451  0.714916  0  4.394631  0
N  N57  1  0.47204620  0.82911085  0.50566893  1  0  0.694932  0  4.122163  0  0  0.734902  0  4.399272  0  0  0.749183  0  4.426942  0  0  0.095474  0.714943  0  4.394726  0
N  N58  1  0.97204632  0.67088761  0.99433234  1  0  0.694755  0  4.122203  0  0  0.734889  0  4.39907  0  0  0.749095  0  4.426847  0  0  0.095457  0.71493  0  4.394525  0
N  N59  1  0.52795424  0.17088746  0.49433192  1  0  0.694845  0  4.122125  0  0  0.73491  0  4.399091  0  0  0.749134  0  4.426841  0  0  0.09546  0.714952  0  4.394546  0
N  N60  1  0.92541818  0.58189272  0.42065531  1  0  0.689657  0  4.114085  0  0  0.714155  0  4.406505  0  0  0.743446  0  4.41401  0  0  0.089596  0.694456  0  4.400616  0
N  N61  1  0.57458229  0.08189196  0.92065575  1  0  0.689742  0  4.113969  0  0  0.714224  0  4.406372  0  0  0.743513  0  4.413878  0  0  0.089615  0.694532  0  4.400482  0
N  N62  1  0.07458348  0.41810861  0.57934514  1  0  0.689498  0  4.114216  0  0  0.714054  0  4.40653  0  0  0.743344  0  4.414036  0  0  0.089569  0.694356  0  4.400643  0
N  N63  1  0.42541815  0.91810734  0.07934386  1  0  0.689808  0  4.114071  0  0  0.714274  0  4.406499  0  0  0.743562  0  4.414007  0  0  0.089634  0.694577  0  4.400608  0
O  O64  1  0.15987547  0.25879884  0.97825490  1  0  -0.507073  0  1.861715  0  0  -0.487062  0  2.115265  0  0  -0.501328  0  2.112693  0  0  -0.219974  -0.473073  0  2.12061  0
O  O65  1  0.34012283  0.75880057  0.47825483  1  0  -0.507  0  1.861706  0  0  -0.487012  0  2.11526  0  0  -0.501278  0  2.112643  0  0  -0.21994  -0.473023  0  2.120602  0
O  O66  1  0.84012132  0.74119745  0.02174511  1  0  -0.506967  0  1.861664  0  0  -0.487038  0  2.115186  0  0  -0.501293  0  2.112624  0  0  -0.219941  -0.473048  0  2.120528  0
O  O67  1  0.65987883  0.24119773  0.52174519  1  0  -0.506999  0  1.86165  0  0  -0.487043  0  2.115191  0  0  -0.501303  0  2.112624  0  0  -0.219943  -0.473055  0  2.120535  0
O  O68  1  0.95837607  0.35136952  0.92495285  1  0  -0.429084  0  1.760864  0  0  -0.423157  0  1.970052  0  0  -0.433054  0  1.97322  0  0  -0.173824  -0.412281  0  1.972069  0
O  O69  1  0.54162814  0.85136811  0.42495465  1  0  -0.429138  0  1.760955  0  0  -0.423183  0  1.970097  0  0  -0.433084  0  1.973233  0  0  -0.173878  -0.412305  0  1.972112  0
O  O70  1  0.04162681  0.64862978  0.07504676  1  0  -0.429019  0  1.760874  0  0  -0.423158  0  1.970013  0  0  -0.433043  0  1.973193  0  0  -0.173837  -0.41228  0  1.97203  0
O  O71  1  0.45837352  0.14863020  0.57504620  1  0  -0.429038  0  1.760908  0  0  -0.423137  0  1.970043  0  0  -0.433034  0  1.973224  0  0  -0.173822  -0.412264  0  1.972062  0
O  O72  1  0.97206415  0.37629883  0.11540695  1  0  -0.45752  0  1.854475  0  0  -0.430076  0  2.088402  0  0  -0.444286  0  2.08752  0  0  -0.188678  -0.416293  0  2.092775  0
O  O73  1  0.52793492  0.87629879  0.61540875  1  0  -0.457581  0  1.854519  0  0  -0.430132  0  2.088429  0  0  -0.444362  0  2.087543  0  0  -0.188678  -0.416353  0  2.092808  0
O  O74  1  0.02793508  0.62370148  0.88459308  1  0  -0.457534  0  1.854553  0  0  -0.430139  0  2.088413  0  0  -0.444327  0  2.087532  0  0  -0.188707  -0.416363  0  2.092793  0
O  O75  1  0.47206431  0.12370154  0.38459294  1  0  -0.457577  0  1.854553  0  0  -0.430175  0  2.08844  0  0  -0.444367  0  2.087559  0  0  -0.188733  -0.416398  0  2.092819  0
O  O76  1  0.89712189  0.45579295  0.38918268  1  0  -0.480994  0  1.952247  0  0  -0.441304  0  2.226964  0  0  -0.464534  0  2.217206  0  0  -0.211547  -0.425322  0  2.233759  0
O  O77  1  0.60287866  0.95579393  0.88918329  1  0  -0.48103  0  1.952256  0  0  -0.441365  0  2.227047  0  0  -0.464591  0  2.217287  0  0  -0.211563  -0.425376  0  2.233818  0
O  O78  1  0.10287855  0.54420839  0.61081860  1  0  -0.4809  0  1.95236  0  0  -0.441254  0  2.227132  0  0  -0.46449  0  2.217385  0  0  -0.211518  -0.425253  0  2.233891  0
O  O79  1  0.39712178  0.04420638  0.11081674  1  0  -0.481073  0  1.952251  0  0  -0.441404  0  2.227034  0  0  -0.464631  0  2.217276  0  0  -0.21159  -0.425415  0  2.233825  0
O  O80  1  0.82240973  0.66992630  0.48362278  1  0  -0.433085  0  1.781439  0  0  -0.424312  0  2.016526  0  0  -0.439053  0  2.010488  0  0  -0.175895  -0.414047  0  2.020272  0
O  O81  1  0.67759083  0.16992557  0.98362163  1  0  -0.433113  0  1.78138  0  0  -0.424324  0  2.016445  0  0  -0.439067  0  2.010415  0  0  -0.175894  -0.414059  0  2.020188  0
O  O82  1  0.17759559  0.33007708  0.51638099  1  0  -0.433069  0  1.781318  0  0  -0.424307  0  2.016357  0  0  -0.439048  0  2.010325  0  0  -0.175923  -0.414047  0  2.020105  0
O  O83  1  0.32240962  0.83007373  0.01637799  1  0  -0.433118  0  1.781456  0  0  -0.424325  0  2.016532  0  0  -0.439066  0  2.010499  0  0  -0.175891  -0.414061  0  2.020279  0
O  O84  1  0.05791035  0.61143399  0.38647820  1  0  -0.439265  0  1.839144  0  0  -0.416734  0  2.065894  0  0  -0.432668  0  2.05874  0  0  -0.16905  -0.405662  0  2.070851  0
O  O85  1  0.44208903  0.11143340  0.88647803  1  0  -0.439281  0  1.839039  0  0  -0.416746  0  2.065788  0  0  -0.432683  0  2.058643  0  0  -0.16906  -0.405678  0  2.070749  0
O  O86  1  0.94209131  0.38856530  0.61352059  1  0  -0.439209  0  1.839192  0  0  -0.416687  0  2.065908  0  0  -0.432619  0  2.058757  0  0  -0.169024  -0.405614  0  2.070866  0
O  O87  1  0.55791019  0.88856590  0.11352158  1  0  -0.439296  0  1.839103  0  0  -0.416745  0  2.065849  0  0  -0.43268  0  2.058703  0  0  -0.169048  -0.405681  0  2.070816  0
