# generated using pymatgen
data_CaZnH10C6NCl3O2
_symmetry_space_group_name_H-M   'P 1'
_cell_length_a   6.84598355
_cell_length_b   7.98696128
_cell_length_c   10.70776057
_cell_angle_alpha   86.19640483
_cell_angle_beta   79.10730670
_cell_angle_gamma   90.35776460
_symmetry_Int_Tables_number   1
_chemical_formula_structural   CaZnH10C6NCl3O2
_chemical_formula_sum   'Ca2 Zn2 H20 C12 N2 Cl6 O4'
_cell_volume   573.56483167
_cell_formula_units_Z   2
loop_
 _symmetry_equiv_pos_site_id
 _symmetry_equiv_pos_as_xyz
  1  'x, y, z'
loop_
 _atom_site_type_symbol
 _atom_site_label
 _atom_site_symmetry_multiplicity
 _atom_site_fract_x
 _atom_site_fract_y
 _atom_site_fract_z
 _atom_site_occupancy
 _atom_site_hle17_bader_spin_density
 _atom_site_hle17_ddec_charge
 _atom_site_hle17_ddec_spin_density
 _atom_site_hle17_ddec_sum_bond_order
 _atom_site_hle17_magmom
 _atom_site_hse06_10hf_bader_spin_density
 _atom_site_hse06_10hf_ddec_charge
 _atom_site_hse06_10hf_ddec_spin_density
 _atom_site_hse06_10hf_ddec_sum_bond_order
 _atom_site_hse06_10hf_magmom
 _atom_site_hse06_bader_spin_density
 _atom_site_hse06_ddec_charge
 _atom_site_hse06_ddec_spin_density
 _atom_site_hse06_ddec_sum_bond_order
 _atom_site_hse06_magmom
 _atom_site_pbe_bader_spin_density
 _atom_site_pbe_cm5_charge
 _atom_site_pbe_ddec_charge
 _atom_site_pbe_ddec_spin_density
 _atom_site_pbe_ddec_sum_bond_order
 _atom_site_pbe_magmom
Ca  Ca0  1  0.68447170  0.17300977  0.08634659  1  0  1.434903  0  1.161656  0  0  1.309701  0  1.495858  0  0  1.350476  0  1.460009  0  0  0.68706  1.278596  0  1.521507  0
Ca  Ca1  1  0.31553219  0.82698406  0.91365452  1  0  1.434822  0  1.161769  0  0  1.309672  0  1.495876  0  0  1.350437  0  1.460039  0  0  0.687039  1.278559  0  1.521536  0
Zn  Zn2  1  0.39526639  0.26582097  0.85202878  1  0  0.894681  0  2.164183  0  0  0.739508  0  2.67052  0  0  0.781358  0  2.617622  0  0  0.524266  0.70983  0  2.707392  0
Zn  Zn3  1  0.60473308  0.73417525  0.14797469  1  0  0.89468  0  2.164182  0  0  0.739489  0  2.670545  0  0  0.781334  0  2.617669  0  0  0.524244  0.709812  0  2.707421  0
H  H4  1  0.37385370  0.39267226  0.20488815  1  0  0.237201  0  0.945555  0  0  0.233237  0  1.004329  0  0  0.237548  0  1.002118  0  0  0.277177  0.230114  0  1.006032  0
H  H5  1  0.62615458  0.60732420  0.79511040  1  0  0.237191  0  0.945653  0  0  0.23322  0  1.004444  0  0  0.237531  0  1.00223  0  0  0.277174  0.230097  0  1.006147  0
H  H6  1  0.24986850  0.04455502  0.28678583  1  0  0.078879  0  0.905891  0  0  0.089837  0  0.967902  0  0  0.091132  0  0.967694  0  0  0.118679  0.088844  0  0.968219  0
H  H7  1  0.75012806  0.95544111  0.71321990  1  0  0.078893  0  0.905869  0  0  0.089827  0  0.967899  0  0  0.091124  0  0.967687  0  0  0.118685  0.088832  0  0.968216  0
H  H8  1  0.57663038  0.37703508  0.35960701  1  0  0.055623  0  0.951278  0  0  0.070724  0  1.019612  0  0  0.071244  0  1.01964  0  0  0.097379  0.070219  0  1.01973  0
H  H9  1  0.42337349  0.62296126  0.64039400  1  0  0.055613  0  0.951306  0  0  0.070718  0  1.019631  0  0  0.071238  0  1.019661  0  0  0.097386  0.070214  0  1.01975  0
H  H10  1  0.47869864  0.17270889  0.41145988  1  0  0.060859  0  0.943033  0  0  0.076693  0  1.009039  0  0  0.077457  0  1.00871  0  0  0.093993  0.075963  0  1.009608  0
H  H11  1  0.52129337  0.82729094  0.58854444  1  0  0.060845  0  0.943043  0  0  0.076654  0  1.009083  0  0  0.077422  0  1.008751  0  0  0.093992  0.075925  0  1.00965  0
H  H12  1  0.24143338  0.49745377  0.42319788  1  0  0.062202  0  0.956379  0  0  0.081446  0  1.016623  0  0  0.082062  0  1.017064  0  0  0.082748  0.080867  0  1.016511  0
H  H13  1  0.75857020  0.50255272  0.57679529  1  0  0.062218  0  0.956362  0  0  0.08148  0  1.016596  0  0  0.082097  0  1.017033  0  0  0.082788  0.0809  0  1.016484  0
H  H14  1  0.30456031  0.37844243  0.55528474  1  0  0.071856  0  0.949736  0  0  0.089201  0  1.01244  0  0  0.089883  0  1.01287  0  0  0.08408  0.088568  0  1.012386  0
H  H15  1  0.69543744  0.62156388  0.44471295  1  0  0.071836  0  0.949744  0  0  0.089189  0  1.012465  0  0  0.089868  0  1.012895  0  0  0.084072  0.088553  0  1.012415  0
H  H16  1  0.95339375  0.31099360  0.53057368  1  0  0.06606  0  0.952646  0  0  0.085075  0  1.011378  0  0  0.086034  0  1.01153  0  0  0.085446  0.08415  0  1.01149  0
H  H17  1  0.04660235  0.68902028  0.46942019  1  0  0.06608  0  0.95276  0  0  0.08508  0  1.011442  0  0  0.086042  0  1.011593  0  0  0.085487  0.084158  0  1.011553  0
H  H18  1  0.10703427  0.13497087  0.51355045  1  0  0.062971  0  0.940324  0  0  0.082278  0  1.001728  0  0  0.082861  0  1.002429  0  0  0.082526  0.081682  0  1.001447  0
H  H19  1  0.89295750  0.86504035  0.48644784  1  0  0.062969  0  0.940503  0  0  0.082265  0  1.001852  0  0  0.082849  0  1.002555  0  0  0.082538  0.08167  0  1.001567  0
H  H20  1  0.90947998  0.15240305  0.34096482  1  0  0.073901  0  0.96812  0  0  0.089464  0  1.035121  0  0  0.090654  0  1.034958  0  0  0.088295  0.088589  0  1.035248  0
H  H21  1  0.09051918  0.84760710  0.65903067  1  0  0.07391  0  0.968048  0  0  0.089421  0  1.035087  0  0  0.090613  0  1.034923  0  0  0.08828  0.088547  0  1.03521  0
H  H22  1  0.99687405  0.36065373  0.29367448  1  0  0.079535  0  0.95152  0  0  0.096173  0  1.015607  0  0  0.0973  0  1.015786  0  0  0.085347  0.095306  0  1.015538  0
H  H23  1  0.00313402  0.63935285  0.70631902  1  0  0.079547  0  0.951512  0  0  0.096179  0  1.015576  0  0  0.097309  0  1.015743  0  0  0.085341  0.095282  0  1.015539  0
C  C24  1  0.21798763  0.17184492  0.24881241  1  0  0.014848  0  3.620339  0  0  0.002515  0  3.858551  0  0  0.000835  0  3.872007  0  0  0.00543  0.003489  0  3.84949  0
C  C25  1  0.78201465  0.82815394  0.75118591  1  0  0.01484  0  3.620443  0  0  0.002541  0  3.858586  0  0  0.000859  0  3.872041  0  0  0.005447  0.003519  0  3.849507  0
C  C26  1  0.44261452  0.29671787  0.37181975  1  0  0.032605  0  3.655346  0  0  -0.022101  0  3.924025  0  0  -0.0185  0  3.936228  0  0  -0.079784  -0.024439  0  3.915417  0
C  C27  1  0.55738478  0.70328094  0.62817897  1  0  0.032618  0  3.655487  0  0  -0.022084  0  3.924204  0  0  -0.018484  0  3.936397  0  0  -0.079793  -0.02442  0  3.915594  0
C  C28  1  0.26766873  0.36932666  0.46041566  1  0  -0.136053  0  3.683484  0  0  -0.173325  0  3.939662  0  0  -0.174969  0  3.954291  0  0  -0.173848  -0.171933  0  3.929373  0
C  C29  1  0.73233351  0.63068099  0.53958231  1  0  -0.136042  0  3.683706  0  0  -0.173394  0  3.939891  0  0  -0.175051  0  3.954555  0  0  -0.173937  -0.171997  0  3.929595  0
C  C30  1  0.08176289  0.25911457  0.46857932  1  0  -0.092163  0  3.672133  0  0  -0.130816  0  3.93202  0  0  -0.13173  0  3.94616  0  0  -0.169008  -0.129862  0  3.921967  0
C  C31  1  0.91823625  0.74089433  0.53141529  1  0  -0.092304  0  3.672635  0  0  -0.130822  0  3.932297  0  0  -0.13174  0  3.946438  0  0  -0.169053  -0.129868  0  3.922233  0
C  C32  1  0.03646873  0.23898936  0.33576925  1  0  -0.155725  0  3.677789  0  0  -0.20089  0  3.934841  0  0  -0.20196  0  3.94805  0  0  -0.169587  -0.199804  0  3.925347  0
C  C33  1  0.96353188  0.76101583  0.66422437  1  0  -0.155606  0  3.677766  0  0  -0.200727  0  3.934696  0  0  -0.201792  0  3.947901  0  0  -0.169485  -0.199626  0  3.925222  0
C  C34  1  0.18762085  0.14882309  0.11322148  1  0  0.705605  0  3.748611  0  0  0.654403  0  4.044987  0  0  0.689045  0  4.034974  0  0  0.251642  0.630518  0  4.051338  0
C  C35  1  0.81237697  0.85117443  0.88677749  1  0  0.70557  0  3.748349  0  0  0.65433  0  4.044796  0  0  0.688967  0  4.03478  0  0  0.251588  0.630446  0  4.051142  0
N  N36  1  0.40093442  0.27496010  0.24253465  1  0  -0.514078  0  3.211527  0  0  -0.463926  0  3.46056  0  0  -0.480961  0  3.473563  0  0  -0.548936  -0.45135  0  3.45094  0
N  N37  1  0.59906939  0.72503753  0.75746445  1  0  -0.51408  0  3.21174  0  0  -0.463929  0  3.46072  0  0  -0.480969  0  3.473754  0  0  -0.548939  -0.451349  0  3.451099  0
Cl  Cl38  1  0.72895141  0.30230359  0.83490597  1  0  -0.553482  0  0.993793  0  0  -0.491758  0  1.27572  0  0  -0.509135  0  1.251675  0  0  -0.246509  -0.478999  0  1.292326  0
Cl  Cl39  1  0.27104802  0.69770016  0.16509721  1  0  -0.553479  0  0.993832  0  0  -0.491748  0  1.275741  0  0  -0.509117  0  1.251687  0  0  -0.246502  -0.478986  0  1.29235  0
Cl  Cl40  1  0.20931897  0.49082620  0.87687653  1  0  -0.545841  0  1.105308  0  0  -0.483608  0  1.415903  0  0  -0.502042  0  1.391774  0  0  -0.238258  -0.470173  0  1.432749  0
Cl  Cl41  1  0.79067475  0.50916730  0.12313342  1  0  -0.545877  0  1.105342  0  0  -0.48363  0  1.415938  0  0  -0.502065  0  1.39181  0  0  -0.238252  -0.470201  0  1.432789  0
Cl  Cl42  1  0.33608720  0.07812467  0.71721828  1  0  -0.538008  0  1.057103  0  0  -0.474207  0  1.349525  0  0  -0.491428  0  1.324031  0  0  -0.231073  -0.461733  0  1.367561  0
Cl  Cl43  1  0.66391077  0.92187403  0.28278530  1  0  -0.537997  0  1.057088  0  0  -0.47419  0  1.34952  0  0  -0.49141  0  1.324029  0  0  -0.231058  -0.461718  0  1.367558  0
O  O44  1  0.01977530  0.14824681  0.08510891  1  0  -0.63998  0  2.040113  0  0  -0.586433  0  2.294684  0  0  -0.612852  0  2.285382  0  0  -0.344628  -0.567757  0  2.300689  0
O  O45  1  0.98022721  0.85173818  0.91489461  1  0  -0.639962  0  2.039939  0  0  -0.586415  0  2.294525  0  0  -0.612828  0  2.28523  0  0  -0.344597  -0.567737  0  2.300528  0
O  O46  1  0.35082068  0.12532401  0.02939693  1  0  -0.75635  0  2.116834  0  0  -0.673181  0  2.389022  0  0  -0.704279  0  2.376399  0  0  -0.362447  -0.65067  0  2.396672  0
O  O47  1  0.64918330  0.87466352  0.97060629  1  0  -0.756336  0  2.116706  0  0  -0.673134  0  2.388831  0  0  -0.704265  0  2.376297  0  0  -0.362435  -0.650626  0  2.396483  0
