# generated using pymatgen
data_AgH12C11S3N2O5F3
_symmetry_space_group_name_H-M   'P 1'
_cell_length_a   12.05546042
_cell_length_b   12.72182917
_cell_length_c   12.89702050
_cell_angle_alpha   90.00011463
_cell_angle_beta   89.99968786
_cell_angle_gamma   118.46018386
_symmetry_Int_Tables_number   1
_chemical_formula_structural   AgH12C11S3N2O5F3
_chemical_formula_sum   'Ag4 H48 C44 S12 N8 O20 F12'
_cell_volume   1738.94155255
_cell_formula_units_Z   4
loop_
 _symmetry_equiv_pos_site_id
 _symmetry_equiv_pos_as_xyz
  1  'x, y, z'
loop_
 _atom_site_type_symbol
 _atom_site_label
 _atom_site_symmetry_multiplicity
 _atom_site_fract_x
 _atom_site_fract_y
 _atom_site_fract_z
 _atom_site_occupancy
 _atom_site_hle17_bader_spin_density
 _atom_site_hle17_ddec_charge
 _atom_site_hle17_ddec_spin_density
 _atom_site_hle17_ddec_sum_bond_order
 _atom_site_hle17_magmom
 _atom_site_hse06_10hf_bader_spin_density
 _atom_site_hse06_10hf_ddec_charge
 _atom_site_hse06_10hf_ddec_spin_density
 _atom_site_hse06_10hf_ddec_sum_bond_order
 _atom_site_hse06_10hf_magmom
 _atom_site_hse06_bader_spin_density
 _atom_site_hse06_ddec_charge
 _atom_site_hse06_ddec_spin_density
 _atom_site_hse06_ddec_sum_bond_order
 _atom_site_hse06_magmom
 _atom_site_pbe_bader_spin_density
 _atom_site_pbe_cm5_charge
 _atom_site_pbe_ddec_charge
 _atom_site_pbe_ddec_spin_density
 _atom_site_pbe_ddec_sum_bond_order
 _atom_site_pbe_magmom
Ag  Ag0  1  0.30287181  0.97788809  0.88770910  1  0  0.502281  0  1.660422  0  0  0.396934  0  2.149557  0  0  0.410492  0  2.107033  0  0  0.449461  0.388319  0  2.17865  0
Ag  Ag1  1  0.19712905  0.02210904  0.38771387  1  0  0.502239  0  1.66064  0  0  0.396934  0  2.149594  0  0  0.410489  0  2.107071  0  0  0.449478  0.388319  0  2.178684  0
Ag  Ag2  1  0.69711592  0.02211506  0.11229317  1  0  0.502325  0  1.660483  0  0  0.396917  0  2.149491  0  0  0.410473  0  2.106969  0  0  0.449417  0.388299  0  2.178583  0
Ag  Ag3  1  0.80287856  0.97788900  0.61228684  1  0  0.502272  0  1.660464  0  0  0.396928  0  2.149589  0  0  0.410482  0  2.107067  0  0  0.449457  0.388311  0  2.178685  0
H  H4  1  0.18296343  0.66044186  0.83860395  1  0  0.116047  0  0.932507  0  0  0.130456  0  0.990461  0  0  0.131664  0  0.990716  0  0  0.108262  0.129548  0  0.990371  0
H  H5  1  0.31703842  0.33956509  0.33860641  1  0  0.11613  0  0.932468  0  0  0.130485  0  0.990456  0  0  0.131696  0  0.990709  0  0  0.108259  0.129577  0  0.990366  0
H  H6  1  0.81703800  0.33955878  0.16139677  1  0  0.116135  0  0.932393  0  0  0.13046  0  0.990459  0  0  0.13167  0  0.990712  0  0  0.108281  0.129552  0  0.990368  0
H  H7  1  0.68296526  0.66044179  0.66139430  1  0  0.116057  0  0.932486  0  0  0.130455  0  0.99046  0  0  0.131664  0  0.990715  0  0  0.108241  0.129547  0  0.990371  0
H  H8  1  0.11433110  0.69006460  0.94897461  1  0  0.126938  0  0.940659  0  0  0.143771  0  0.996487  0  0  0.14544  0  0.995565  0  0  0.11025  0.142418  0  0.997362  0
H  H9  1  0.38566830  0.30993869  0.44897511  1  0  0.126967  0  0.940742  0  0  0.143814  0  0.996501  0  0  0.145481  0  0.995583  0  0  0.110254  0.142459  0  0.997378  0
H  H10  1  0.88566915  0.30993869  0.05102611  1  0  0.126875  0  0.940793  0  0  0.143747  0  0.996538  0  0  0.145414  0  0.99562  0  0  0.110246  0.142394  0  0.997414  0
H  H11  1  0.61433317  0.69006372  0.55102483  1  0  0.126965  0  0.94069  0  0  0.143801  0  0.996502  0  0  0.145469  0  0.995583  0  0  0.110256  0.142447  0  0.997377  0
H  H12  1  0.97179180  0.48316426  0.88073630  1  0  0.071477  0  0.928125  0  0  0.089024  0  0.986096  0  0  0.088945  0  0.985866  0  0  0.100615  0.089069  0  0.986355  0
H  H13  1  0.52820883  0.51683524  0.38073749  1  0  0.071479  0  0.928105  0  0  0.089034  0  0.986085  0  0  0.088952  0  0.985851  0  0  0.100617  0.089079  0  0.986345  0
H  H14  1  0.02820791  0.51683458  0.11926364  1  0  0.071493  0  0.928119  0  0  0.089006  0  0.986124  0  0  0.088928  0  0.985896  0  0  0.100617  0.089053  0  0.986382  0
H  H15  1  0.47179510  0.48316543  0.61926246  1  0  0.071487  0  0.928116  0  0  0.089037  0  0.986083  0  0  0.088954  0  0.985849  0  0  0.100619  0.089082  0  0.986343  0
H  H16  1  0.89991226  0.57873315  0.87328137  1  0  0.051649  0  0.965559  0  0  0.061592  0  1.041398  0  0  0.061901  0  1.04066  0  0  0.095788  0.061366  0  1.04194  0
H  H17  1  0.60008885  0.42126725  0.37328045  1  0  0.051652  0  0.965578  0  0  0.061603  0  1.041416  0  0  0.06191  0  1.040677  0  0  0.095774  0.061381  0  1.041954  0
H  H18  1  0.10008961  0.42126838  0.12672012  1  0  0.051654  0  0.965646  0  0  0.061605  0  1.041456  0  0  0.061915  0  1.040721  0  0  0.095783  0.061384  0  1.041994  0
H  H19  1  0.39991380  0.57873251  0.62672027  1  0  0.051683  0  0.965588  0  0  0.061632  0  1.041406  0  0  0.061936  0  1.040665  0  0  0.095812  0.061402  0  1.04195  0
H  H20  1  0.77870497  0.51981308  0.73490780  1  0  0.05654  0  0.935725  0  0  0.070462  0  1.002441  0  0  0.070951  0  1.001402  0  0  0.099469  0.070157  0  1.003203  0
H  H21  1  0.72129700  0.48018743  0.23490637  1  0  0.056552  0  0.935696  0  0  0.070448  0  1.002422  0  0  0.070932  0  1.00138  0  0  0.099466  0.070142  0  1.003184  0
H  H22  1  0.22129773  0.48018847  0.26509292  1  0  0.056552  0  0.935708  0  0  0.070472  0  1.002423  0  0  0.070959  0  1.001382  0  0  0.099468  0.070167  0  1.003185  0
H  H23  1  0.27870522  0.51981144  0.76509357  1  0  0.056565  0  0.935725  0  0  0.070488  0  1.002446  0  0  0.070974  0  1.001407  0  0  0.099489  0.070183  0  1.003207  0
H  H24  1  0.79265401  0.38557070  0.72606218  1  0  0.060286  0  0.916307  0  0  0.075343  0  0.97924  0  0  0.075504  0  0.978508  0  0  0.098758  0.075264  0  0.979797  0
H  H25  1  0.70734634  0.61442979  0.22605954  1  0  0.06025  0  0.916416  0  0  0.075357  0  0.979233  0  0  0.075511  0  0.978502  0  0  0.098767  0.075277  0  0.979789  0
H  H26  1  0.20734575  0.61442991  0.27394164  1  0  0.060323  0  0.916304  0  0  0.075378  0  0.979231  0  0  0.075535  0  0.978501  0  0  0.098779  0.075299  0  0.979786  0
H  H27  1  0.29265714  0.38556998  0.77394040  1  0  0.060298  0  0.916289  0  0  0.075383  0  0.979204  0  0  0.075541  0  0.978475  0  0  0.098777  0.075305  0  0.979759  0
H  H28  1  0.88925751  0.44930474  0.54940724  1  0  0.044867  0  0.946042  0  0  0.053083  0  1.023595  0  0  0.053424  0  1.023252  0  0  0.093499  0.052793  0  1.023949  0
H  H29  1  0.61074605  0.55069680  0.04940652  1  0  0.044873  0  0.946045  0  0  0.053075  0  1.023635  0  0  0.053414  0  1.023294  0  0  0.093498  0.052784  0  1.02399  0
H  H30  1  0.11074519  0.55069680  0.45059425  1  0  0.04487  0  0.946076  0  0  0.053098  0  1.023623  0  0  0.053438  0  1.023281  0  0  0.093493  0.052808  0  1.023977  0
H  H31  1  0.38925744  0.44930297  0.95059265  1  0  0.044878  0  0.946001  0  0  0.053067  0  1.023569  0  0  0.053407  0  1.023224  0  0  0.093488  0.052777  0  1.023924  0
H  H32  1  0.73028451  0.42194626  0.55870356  1  0  0.05909  0  0.91755  0  0  0.074075  0  0.978227  0  0  0.074393  0  0.977339  0  0  0.0982  0.073882  0  0.978846  0
H  H33  1  0.76971644  0.57805347  0.05870053  1  0  0.059107  0  0.917556  0  0  0.074091  0  0.97826  0  0  0.074405  0  0.977377  0  0  0.098211  0.073897  0  0.978882  0
H  H34  1  0.26971608  0.57805437  0.44129871  1  0  0.059133  0  0.917582  0  0  0.074122  0  0.978253  0  0  0.074437  0  0.977367  0  0  0.098213  0.073926  0  0.978873  0
H  H35  1  0.23028572  0.42194362  0.94129786  1  0  0.059064  0  0.917632  0  0  0.074088  0  0.978222  0  0  0.074404  0  0.977334  0  0  0.098211  0.073892  0  0.978841  0
H  H36  1  0.79448755  0.57993017  0.40038559  1  0  0.050386  0  0.93368  0  0  0.066973  0  0.998238  0  0  0.06625  0  0.999  0  0  0.100746  0.067413  0  0.997802  0
H  H37  1  0.70551168  0.42006841  0.90038487  1  0  0.050367  0  0.933704  0  0  0.066984  0  0.998225  0  0  0.066264  0  0.998984  0  0  0.100757  0.067425  0  0.997791  0
H  H38  1  0.20551481  0.42007403  0.59961512  1  0  0.050335  0  0.933655  0  0  0.066965  0  0.998167  0  0  0.066247  0  0.99892  0  0  0.100733  0.067405  0  0.997728  0
H  H39  1  0.29448671  0.57992774  0.09961585  1  0  0.050367  0  0.933663  0  0  0.066964  0  0.998217  0  0  0.066245  0  0.998973  0  0  0.100742  0.067405  0  0.997778  0
H  H40  1  0.93472401  0.56752224  0.41211816  1  0  0.054086  0  0.935961  0  0  0.065733  0  1.005661  0  0  0.066726  0  1.004589  0  0  0.097981  0.064913  0  1.006546  0
H  H41  1  0.56527646  0.43247902  0.91211895  1  0  0.054051  0  0.935942  0  0  0.065671  0  1.005673  0  0  0.066662  0  1.004599  0  0  0.097961  0.064858  0  1.006548  0
H  H42  1  0.06527658  0.43247839  0.58788255  1  0  0.054063  0  0.935948  0  0  0.065697  0  1.005659  0  0  0.066684  0  1.004586  0  0  0.097966  0.064879  0  1.006542  0
H  H43  1  0.43472452  0.56752073  0.08788176  1  0  0.054088  0  0.935839  0  0  0.065734  0  1.005547  0  0  0.066728  0  1.004474  0  0  0.097996  0.064915  0  1.006431  0
H  H44  1  0.91321944  0.79899983  0.43933326  1  0  0.119883  0  0.938042  0  0  0.134687  0  0.997973  0  0  0.135652  0  0.99859  0  0  0.104477  0.133974  0  0.997597  0
H  H45  1  0.58677331  0.20099954  0.93933581  1  0  0.119868  0  0.938054  0  0  0.134691  0  0.997959  0  0  0.135631  0  0.998604  0  0  0.104472  0.133981  0  0.997584  0
H  H46  1  0.08678203  0.20100259  0.56066746  1  0  0.119824  0  0.938094  0  0  0.134639  0  0.997983  0  0  0.135606  0  0.9986  0  0  0.104441  0.133929  0  0.997604  0
H  H47  1  0.41321801  0.79899743  0.06066878  1  0  0.119815  0  0.9381  0  0  0.134657  0  0.997957  0  0  0.135622  0  0.998573  0  0  0.104442  0.133944  0  0.997581  0
H  H48  1  0.97599392  0.75826943  0.33067075  1  0  0.120339  0  0.945057  0  0  0.136099  0  1.005462  0  0  0.137534  0  1.004629  0  0  0.106415  0.134918  0  1.006235  0
H  H49  1  0.52400363  0.24172830  0.83067138  1  0  0.120546  0  0.944798  0  0  0.136156  0  1.005369  0  0  0.137591  0  1.004532  0  0  0.106443  0.134965  0  1.006161  0
H  H50  1  0.02400500  0.24173118  0.66933074  1  0  0.120546  0  0.944768  0  0  0.136101  0  1.005409  0  0  0.137537  0  1.004576  0  0  0.106422  0.134914  0  1.006195  0
H  H51  1  0.47599475  0.75826786  0.16933011  1  0  0.120522  0  0.944804  0  0  0.136087  0  1.005431  0  0  0.137522  0  1.004598  0  0  0.106411  0.134907  0  1.006204  0
C  C52  1  0.09073118  0.82887228  0.60020743  1  0  -0.050296  0  3.80605  0  0  -0.043836  0  4.070411  0  0  -0.04265  0  4.082558  0  0  0.008326  -0.045254  0  4.063085  0
C  C53  1  0.40926066  0.17112672  0.10020754  1  0  -0.050275  0  3.806015  0  0  -0.043892  0  4.070464  0  0  -0.042722  0  4.082648  0  0  0.008344  -0.045308  0  4.06313  0
C  C54  1  0.90927687  0.17112666  0.39979018  1  0  -0.050229  0  3.805891  0  0  -0.04376  0  4.070424  0  0  -0.042592  0  4.082603  0  0  0.008335  -0.045177  0  4.063089  0
C  C55  1  0.59072825  0.82887377  0.89978852  1  0  -0.050249  0  3.806126  0  0  -0.043729  0  4.070495  0  0  -0.042538  0  4.082641  0  0  0.008375  -0.045146  0  4.063166  0
C  C56  1  0.13681460  0.78664409  0.67769726  1  0  0.003214  0  3.796545  0  0  0.004415  0  4.061363  0  0  0.012924  0  4.071535  0  0  0.028214  -0.001858  0  4.055121  0
C  C57  1  0.36317456  0.21335038  0.17770002  1  0  0.003242  0  3.796458  0  0  0.004506  0  4.061281  0  0  0.013022  0  4.071449  0  0  0.028233  -0.001766  0  4.055031  0
C  C58  1  0.86319055  0.21335570  0.32230113  1  0  0.003304  0  3.796169  0  0  0.004254  0  4.061392  0  0  0.012769  0  4.071567  0  0  0.028196  -0.002015  0  4.055144  0
C  C59  1  0.63681259  0.78664654  0.82230070  1  0  0.003302  0  3.796488  0  0  0.004327  0  4.061567  0  0  0.012833  0  4.071741  0  0  0.028198  -0.001946  0  4.055325  0
C  C60  1  0.10214180  0.67051794  0.86561893  1  0  -0.176829  0  3.601213  0  0  -0.215678  0  3.860735  0  0  -0.215482  0  3.869931  0  0  -0.142428  -0.215782  0  3.854574  0
C  C61  1  0.39785732  0.32948718  0.36562019  1  0  -0.177041  0  3.601388  0  0  -0.215792  0  3.860804  0  0  -0.215602  0  3.869999  0  0  -0.142433  -0.215898  0  3.854647  0
C  C62  1  0.89785795  0.32948268  0.13438101  1  0  -0.176839  0  3.601191  0  0  -0.21564  0  3.860674  0  0  -0.215443  0  3.869872  0  0  -0.142441  -0.215746  0  3.854517  0
C  C63  1  0.60214419  0.67051701  0.63437898  1  0  -0.176881  0  3.601197  0  0  -0.215728  0  3.860732  0  0  -0.215537  0  3.869923  0  0  -0.142423  -0.215831  0  3.85457  0
C  C64  1  0.97593522  0.56280128  0.84269270  1  0  0.082112  0  3.664751  0  0  0.022591  0  3.93329  0  0  0.029193  0  3.941673  0  0  -0.078127  0.018113  0  3.927169  0
C  C65  1  0.52406524  0.43719914  0.34269297  1  0  0.082107  0  3.664693  0  0  0.022533  0  3.933255  0  0  0.029145  0  3.941623  0  0  -0.078163  0.018049  0  3.927133  0
C  C66  1  0.02406704  0.43719937  0.15730724  1  0  0.082091  0  3.664648  0  0  0.02256  0  3.933197  0  0  0.029154  0  3.941592  0  0  -0.078149  0.018075  0  3.927077  0
C  C67  1  0.47593746  0.56280240  0.65730697  1  0  0.082022  0  3.664726  0  0  0.022518  0  3.933247  0  0  0.029139  0  3.941604  0  0  -0.078187  0.018042  0  3.927128  0
C  C68  1  0.83385176  0.47976131  0.70061210  1  0  0.058739  0  3.662316  0  0  -0.004352  0  3.937898  0  0  0.002676  0  3.943804  0  0  -0.074174  -0.009275  0  3.933648  0
C  C69  1  0.66614954  0.52023744  0.20061026  1  0  0.058589  0  3.662475  0  0  -0.004416  0  3.938004  0  0  0.002638  0  3.943871  0  0  -0.07421  -0.00934  0  3.93375  0
C  C70  1  0.16614878  0.52023754  0.29938939  1  0  0.058699  0  3.662363  0  0  -0.004412  0  3.937955  0  0  0.002629  0  3.943838  0  0  -0.074212  -0.009336  0  3.933701  0
C  C71  1  0.33385312  0.47976232  0.79938968  1  0  0.058713  0  3.662382  0  0  -0.004439  0  3.938022  0  0  0.002594  0  3.943916  0  0  -0.07422  -0.009363  0  3.933772  0
C  C72  1  0.82795480  0.48246723  0.58400767  1  0  0.062925  0  3.671335  0  0  0.004205  0  3.946025  0  0  0.011033  0  3.951826  0  0  -0.0734  -0.000448  0  3.941919  0
C  C73  1  0.67204678  0.51753071  0.08400657  1  0  0.062974  0  3.671433  0  0  0.004196  0  3.946197  0  0  0.011022  0  3.951985  0  0  -0.073404  -0.000456  0  3.942092  0
C  C74  1  0.17204658  0.51753163  0.41599383  1  0  0.06284  0  3.671472  0  0  0.004088  0  3.946217  0  0  0.010917  0  3.952005  0  0  -0.073399  -0.000562  0  3.942108  0
C  C75  1  0.32795582  0.48246728  0.91599337  1  0  0.062892  0  3.671353  0  0  0.004244  0  3.945989  0  0  0.011082  0  3.951776  0  0  -0.073377  -0.000404  0  3.94188  0
C  C76  1  0.88606355  0.61644953  0.44119404  1  0  0.10357  0  3.668878  0  0  0.046474  0  3.937066  0  0  0.053127  0  3.945042  0  0  -0.072453  0.042078  0  3.931348  0
C  C77  1  0.61393582  0.38354813  0.94119449  1  0  0.103555  0  3.668871  0  0  0.046483  0  3.937039  0  0  0.053139  0  3.945005  0  0  -0.07246  0.042093  0  3.931326  0
C  C78  1  0.11393743  0.38355021  0.55880745  1  0  0.10363  0  3.668868  0  0  0.046563  0  3.936994  0  0  0.053218  0  3.944967  0  0  -0.072418  0.042172  0  3.931276  0
C  C79  1  0.38606428  0.61644982  0.05880623  1  0  0.103567  0  3.668709  0  0  0.046484  0  3.936889  0  0  0.053137  0  3.944866  0  0  -0.072464  0.042089  0  3.931172  0
C  C80  1  0.96083447  0.74790295  0.41481269  1  0  -0.183053  0  3.598211  0  0  -0.22439  0  3.859824  0  0  -0.2241  0  3.86922  0  0  -0.146675  -0.224593  0  3.853534  0
C  C81  1  0.53916173  0.25209470  0.91481326  1  0  -0.18303  0  3.597983  0  0  -0.224444  0  3.859817  0  0  -0.224133  0  3.869217  0  0  -0.146706  -0.224657  0  3.853565  0
C  C82  1  0.03916656  0.25209858  0.58518880  1  0  -0.182997  0  3.598045  0  0  -0.22433  0  3.859788  0  0  -0.224043  0  3.869182  0  0  -0.14663  -0.224534  0  3.853512  0
C  C83  1  0.46083504  0.74790322  0.08518823  1  0  -0.182999  0  3.59806  0  0  -0.224373  0  3.859845  0  0  -0.224084  0  3.869241  0  0  -0.146647  -0.22458  0  3.853562  0
C  C84  1  0.01745207  0.88480995  0.62405271  1  0  0.33428  0  3.747864  0  0  0.310314  0  4.026139  0  0  0.323633  0  4.040359  0  0  0.208135  0.300969  0  4.017399  0
C  C85  1  0.48254006  0.11518992  0.12405389  1  0  0.334331  0  3.747778  0  0  0.310364  0  4.026077  0  0  0.323686  0  4.040301  0  0  0.208136  0.301017  0  4.017332  0
C  C86  1  0.98255220  0.11518805  0.37594413  1  0  0.334287  0  3.747812  0  0  0.310309  0  4.026119  0  0  0.323633  0  4.040344  0  0  0.208194  0.300962  0  4.017374  0
C  C87  1  0.51744845  0.88481145  0.87594528  1  0  0.334255  0  3.74781  0  0  0.310295  0  4.026069  0  0  0.323612  0  4.040294  0  0  0.208172  0.300948  0  4.017326  0
C  C88  1  0.20939245  0.72909196  0.65400007  1  0  0.276185  0  3.776856  0  0  0.254361  0  4.071533  0  0  0.263078  0  4.086104  0  0  0.188048  0.248213  0  4.062559  0
C  C89  1  0.29059823  0.27090699  0.15400331  1  0  0.276166  0  3.777194  0  0  0.254305  0  4.071807  0  0  0.263021  0  4.086374  0  0  0.188062  0.248157  0  4.062835  0
C  C90  1  0.79061227  0.27090694  0.34599832  1  0  0.276219  0  3.776882  0  0  0.254423  0  4.071675  0  0  0.263141  0  4.086245  0  0  0.188071  0.248272  0  4.062699  0
C  C91  1  0.70939200  0.72909618  0.84599430  1  0  0.276136  0  3.776908  0  0  0.254343  0  4.071672  0  0  0.263062  0  4.086244  0  0  0.18806  0.248196  0  4.0627  0
C  C92  1  0.04025472  0.88528995  0.10361850  1  0  0.583889  0  3.690665  0  0  0.514603  0  4.061276  0  0  0.542771  0  4.033641  0  0  0.281133  0.494371  0  4.081299  0
C  C93  1  0.45974378  0.11470912  0.60361122  1  0  0.58429  0  3.689676  0  0  0.514332  0  4.061576  0  0  0.542486  0  4.033966  0  0  0.280978  0.4941  0  4.081598  0
C  C94  1  0.95974372  0.11470798  0.89638377  1  0  0.584015  0  3.690302  0  0  0.514515  0  4.061314  0  0  0.542694  0  4.033655  0  0  0.281072  0.494282  0  4.081338  0
C  C95  1  0.54025852  0.88529330  0.39638717  1  0  0.584434  0  3.689484  0  0  0.514424  0  4.061441  0  0  0.542583  0  4.033819  0  0  0.281007  0.494192  0  4.081464  0
S  S96  1  0.10962266  0.80466610  0.80843064  1  0  0.115647  0  2.662871  0  0  0.125134  0  3.065573  0  0  0.119121  0  3.057054  0  0  0.05836  0.129066  0  3.071606  0
S  S97  1  0.39037216  0.19533635  0.30843245  1  0  0.115762  0  2.66305  0  0  0.125188  0  3.065689  0  0  0.119176  0  3.057169  0  0  0.058392  0.12912  0  3.071716  0
S  S98  1  0.89037621  0.19533273  0.19156619  1  0  0.115387  0  2.663206  0  0  0.125187  0  3.065568  0  0  0.119174  0  3.057048  0  0  0.058368  0.129116  0  3.071597  0
S  S99  1  0.60962563  0.80466869  0.69156439  1  0  0.115621  0  2.662796  0  0  0.125199  0  3.065512  0  0  0.119185  0  3.056995  0  0  0.058374  0.129132  0  3.071543  0
S  S100  1  0.12126695  0.81817219  0.46780777  1  0  0.094907  0  2.618706  0  0  0.108069  0  3.014318  0  0  0.103935  0  3.005954  0  0  0.047875  0.110844  0  3.020356  0
S  S101  1  0.37872851  0.18182838  0.96780802  1  0  0.094833  0  2.618654  0  0  0.108068  0  3.014272  0  0  0.103937  0  3.005907  0  0  0.047866  0.110847  0  3.020315  0
S  S102  1  0.87873738  0.18182760  0.53218907  1  0  0.094787  0  2.618678  0  0  0.108017  0  3.01426  0  0  0.103887  0  3.005904  0  0  0.047853  0.11079  0  3.020302  0
S  S103  1  0.62126506  0.81817483  0.03218960  1  0  0.094806  0  2.618685  0  0  0.108035  0  3.014201  0  0  0.1039  0  3.005839  0  0  0.047886  0.11081  0  3.020244  0
S  S104  1  0.15326103  0.83170230  0.14581628  1  0  1.124145  0  5.824559  0  0  1.027602  0  6.356924  0  0  1.070273  0  6.338806  0  0  0.480908  0.998275  0  6.36851  0
S  S105  1  0.34674059  0.16829856  0.64581356  1  0  1.124276  0  5.82417  0  0  1.02761  0  6.356803  0  0  1.070281  0  6.338686  0  0  0.480912  0.998287  0  6.368385  0
S  S106  1  0.84673868  0.16829654  0.85418366  1  0  1.124196  0  5.824454  0  0  1.027656  0  6.356831  0  0  1.070321  0  6.338711  0  0  0.4809  0.998333  0  6.368415  0
S  S107  1  0.65326083  0.83170208  0.35418483  1  0  1.124269  0  5.824228  0  0  1.027589  0  6.356896  0  0  1.070266  0  6.338777  0  0  0.480872  0.998263  0  6.368478  0
N  N108  1  0.95560415  0.93137539  0.63818076  1  0  -0.371357  0  2.839804  0  0  -0.327848  0  3.135533  0  0  -0.338371  0  3.138797  0  0  -0.325862  -0.321511  0  3.134134  0
N  N109  1  0.54438581  0.06862148  0.13817943  1  0  -0.371354  0  2.839669  0  0  -0.327835  0  3.135402  0  0  -0.338356  0  3.138663  0  0  -0.32584  -0.321497  0  3.133998  0
N  N110  1  0.04440307  0.06862353  0.36181686  1  0  -0.371525  0  2.839803  0  0  -0.327891  0  3.135364  0  0  -0.338412  0  3.138627  0  0  -0.325966  -0.321554  0  3.133961  0
N  N111  1  0.45559800  0.93137539  0.86181663  1  0  -0.371372  0  2.839747  0  0  -0.327851  0  3.135465  0  0  -0.338375  0  3.138733  0  0  -0.325928  -0.321514  0  3.134063  0
N  N112  1  0.27026565  0.68133800  0.64017420  1  0  -0.341957  0  2.56722  0  0  -0.329242  0  2.812758  0  0  -0.335972  0  2.824179  0  0  -0.2706  -0.325478  0  2.805873  0
N  N113  1  0.22973782  0.31866822  0.14017706  1  0  -0.342094  0  2.567766  0  0  -0.329253  0  2.813143  0  0  -0.335984  0  2.824567  0  0  -0.270637  -0.32549  0  2.806263  0
N  N114  1  0.72973858  0.31865822  0.35982574  1  0  -0.341981  0  2.567418  0  0  -0.329256  0  2.812972  0  0  -0.335987  0  2.824396  0  0  -0.270619  -0.325492  0  2.806087  0
N  N115  1  0.77026389  0.68134309  0.85982443  1  0  -0.341924  0  2.567317  0  0  -0.329221  0  2.812884  0  0  -0.335953  0  2.824308  0  0  -0.270618  -0.325457  0  2.806002  0
O  O116  1  0.96256234  0.54522880  0.73322790  1  0  -0.303751  0  2.255661  0  0  -0.22699  0  2.50135  0  0  -0.245886  0  2.505859  0  0  -0.22589  -0.212859  0  2.497281  0
O  O117  1  0.53744091  0.45477261  0.23322659  1  0  -0.303651  0  2.255549  0  0  -0.2269  0  2.501233  0  0  -0.24581  0  2.50573  0  0  -0.225853  -0.212771  0  2.497162  0
O  O118  1  0.03743992  0.45477184  0.26677437  1  0  -0.303712  0  2.255578  0  0  -0.226917  0  2.501231  0  0  -0.245817  0  2.505739  0  0  -0.225851  -0.212787  0  2.497161  0
O  O119  1  0.46256346  0.54522895  0.76677258  1  0  -0.303758  0  2.255572  0  0  -0.226981  0  2.501247  0  0  -0.245886  0  2.505749  0  0  -0.22588  -0.21285  0  2.497177  0
O  O120  1  0.86783238  0.60240467  0.55030610  1  0  -0.310183  0  2.243156  0  0  -0.238598  0  2.488432  0  0  -0.255958  0  2.491964  0  0  -0.233384  -0.22602  0  2.485318  0
O  O121  1  0.63216735  0.39759416  0.05030652  1  0  -0.310191  0  2.243135  0  0  -0.238551  0  2.488417  0  0  -0.255909  0  2.491944  0  0  -0.233364  -0.225973  0  2.485303  0
O  O122  1  0.13216777  0.39759506  0.44969539  1  0  -0.310161  0  2.243164  0  0  -0.238583  0  2.488475  0  0  -0.255939  0  2.492001  0  0  -0.233394  -0.226005  0  2.485358  0
O  O123  1  0.36783275  0.60240380  0.94969497  1  0  -0.310152  0  2.243137  0  0  -0.238593  0  2.488426  0  0  -0.25596  0  2.491957  0  0  -0.233396  -0.226015  0  2.48531  0
O  O124  1  0.22010585  0.90837668  0.23372020  1  0  -0.626417  0  2.088946  0  0  -0.589205  0  2.374728  0  0  -0.609231  0  2.360933  0  0  -0.351104  -0.574972  0  2.383617  0
O  O125  1  0.27989597  0.09162057  0.73371768  1  0  -0.626495  0  2.08872  0  0  -0.589241  0  2.374637  0  0  -0.609265  0  2.360842  0  0  -0.351112  -0.575003  0  2.383526  0
O  O126  1  0.77989381  0.09162038  0.76628051  1  0  -0.626381  0  2.088785  0  0  -0.589225  0  2.374702  0  0  -0.60925  0  2.360909  0  0  -0.351097  -0.574989  0  2.383593  0
O  O127  1  0.72010374  0.90837827  0.26627994  1  0  -0.626649  0  2.08913  0  0  -0.589188  0  2.374673  0  0  -0.609216  0  2.360881  0  0  -0.35109  -0.574954  0  2.383562  0
O  O128  1  0.06980508  0.70680761  0.17083532  1  0  -0.587909  0  1.958702  0  0  -0.556472  0  2.196836  0  0  -0.574672  0  2.185427  0  0  -0.334595  -0.543738  0  2.204255  0
O  O129  1  0.43019555  0.29319322  0.67083475  1  0  -0.587946  0  1.958517  0  0  -0.556461  0  2.1968  0  0  -0.57466  0  2.185388  0  0  -0.334604  -0.543728  0  2.204219  0
O  O130  1  0.93019463  0.29319122  0.82916462  1  0  -0.587887  0  1.958684  0  0  -0.556452  0  2.196833  0  0  -0.57465  0  2.185422  0  0  -0.334562  -0.543718  0  2.204253  0
O  O131  1  0.56980504  0.70680741  0.32916519  1  0  -0.587924  0  1.958523  0  0  -0.556466  0  2.196836  0  0  -0.574665  0  2.185426  0  0  -0.33458  -0.543733  0  2.204256  0
O  O132  1  0.23324239  0.85200311  0.05426084  1  0  -0.629491  0  2.074903  0  0  -0.58666  0  2.354308  0  0  -0.606706  0  2.340389  0  0  -0.345976  -0.572424  0  2.363323  0
O  O133  1  0.26675941  0.14799870  0.55426081  1  0  -0.629565  0  2.074981  0  0  -0.586621  0  2.354364  0  0  -0.606662  0  2.340446  0  0  -0.345953  -0.572384  0  2.363378  0
O  O134  1  0.76675732  0.14799573  0.94573988  1  0  -0.629661  0  2.074998  0  0  -0.586716  0  2.354257  0  0  -0.606759  0  2.340333  0  0  -0.346007  -0.57248  0  2.363273  0
O  O135  1  0.73324285  0.85200195  0.44573758  1  0  -0.629538  0  2.0749  0  0  -0.586588  0  2.354295  0  0  -0.606632  0  2.340374  0  0  -0.345927  -0.572351  0  2.363308  0
F  F136  1  0.10101890  0.00408464  0.08084865  1  0  -0.238178  0  1.22613  0  0  -0.201839  0  1.406385  0  0  -0.211515  0  1.390549  0  0  -0.102107  -0.194788  0  1.417425  0
F  F137  1  0.39897562  0.99591618  0.58083722  1  0  -0.238012  0  1.225768  0  0  -0.201793  0  1.406495  0  0  -0.211467  0  1.390664  0  0  -0.10208  -0.194741  0  1.417535  0
F  F138  1  0.89897576  0.99591236  0.91915051  1  0  -0.238063  0  1.225927  0  0  -0.20181  0  1.406398  0  0  -0.211487  0  1.390557  0  0  -0.102061  -0.194757  0  1.417438  0
F  F139  1  0.60102453  0.00408355  0.41916428  1  0  -0.237986  0  1.225703  0  0  -0.201783  0  1.406459  0  0  -0.211456  0  1.390623  0  0  -0.102055  -0.194732  0  1.417499  0
F  F140  1  0.97681016  0.82514065  0.01749538  1  0  -0.231474  0  1.23222  0  0  -0.192053  0  1.409044  0  0  -0.201831  0  1.39342  0  0  -0.096469  -0.184953  0  1.419972  0
F  F141  1  0.52318864  0.17486264  0.51748735  1  0  -0.231337  0  1.23188  0  0  -0.191911  0  1.409045  0  0  -0.201687  0  1.393425  0  0  -0.096369  -0.184813  0  1.419969  0
F  F142  1  0.02318485  0.17485369  0.98250844  1  0  -0.231057  0  1.23197  0  0  -0.192025  0  1.409073  0  0  -0.201806  0  1.393443  0  0  -0.096465  -0.184925  0  1.419999  0
F  F143  1  0.47680984  0.82513708  0.48251026  1  0  -0.23145  0  1.2319  0  0  -0.192049  0  1.40909  0  0  -0.201827  0  1.393468  0  0  -0.096471  -0.184951  0  1.420016  0
F  F144  1  0.95425819  0.86708353  0.17885523  1  0  -0.222688  0  1.206468  0  0  -0.178842  0  1.371967  0  0  -0.188269  0  1.355934  0  0  -0.091663  -0.172014  0  1.383168  0
F  F145  1  0.54574314  0.13291167  0.67884157  1  0  -0.223089  0  1.206419  0  0  -0.178773  0  1.372077  0  0  -0.188195  0  1.356049  0  0  -0.091635  -0.171946  0  1.383277  0
F  F146  1  0.04574230  0.13291354  0.82114936  1  0  -0.223178  0  1.206526  0  0  -0.178815  0  1.371947  0  0  -0.188245  0  1.355909  0  0  -0.091649  -0.171987  0  1.383148  0
F  F147  1  0.45426088  0.86709255  0.32115526  1  0  -0.22313  0  1.206388  0  0  -0.178774  0  1.372042  0  0  -0.1882  0  1.35601  0  0  -0.09162  -0.171949  0  1.383241  0
