# generated using pymatgen
data_HoH7C8SO9
_symmetry_space_group_name_H-M   'P 1'
_cell_length_a   6.34940045
_cell_length_b   8.56094286
_cell_length_c   10.58858183
_cell_angle_alpha   90.37640332
_cell_angle_beta   100.00866960
_cell_angle_gamma   107.68093949
_symmetry_Int_Tables_number   1
_chemical_formula_structural   HoH7C8SO9
_chemical_formula_sum   'Ho2 H14 C16 S2 O18'
_cell_volume   538.94685376
_cell_formula_units_Z   2
loop_
 _symmetry_equiv_pos_site_id
 _symmetry_equiv_pos_as_xyz
  1  'x, y, z'
loop_
 _atom_site_type_symbol
 _atom_site_label
 _atom_site_symmetry_multiplicity
 _atom_site_fract_x
 _atom_site_fract_y
 _atom_site_fract_z
 _atom_site_occupancy
 _atom_site_hle17_bader_spin_density
 _atom_site_hle17_ddec_charge
 _atom_site_hle17_ddec_spin_density
 _atom_site_hle17_ddec_sum_bond_order
 _atom_site_hle17_magmom
 _atom_site_hse06_10hf_bader_spin_density
 _atom_site_hse06_10hf_ddec_charge
 _atom_site_hse06_10hf_ddec_spin_density
 _atom_site_hse06_10hf_ddec_sum_bond_order
 _atom_site_hse06_10hf_magmom
 _atom_site_hse06_bader_spin_density
 _atom_site_hse06_ddec_charge
 _atom_site_hse06_ddec_spin_density
 _atom_site_hse06_ddec_sum_bond_order
 _atom_site_hse06_magmom
 _atom_site_pbe_bader_spin_density
 _atom_site_pbe_cm5_charge
 _atom_site_pbe_ddec_charge
 _atom_site_pbe_ddec_spin_density
 _atom_site_pbe_ddec_sum_bond_order
 _atom_site_pbe_magmom
Ho  Ho0  1  0.15346111  0.24854086  0.61655558  1  0  2.312238  0  1.592227  0  0  2.251284  0  1.909376  0  0  2.295828  0  1.870343  0  0  1.548912  2.140968  0  2.082632  0
Ho  Ho1  1  0.84653983  0.75145998  0.38344470  1  0  2.312245  0  1.592241  0  0  2.251288  0  1.909387  0  0  2.295833  0  1.87035  0  0  1.54892  2.140975  0  2.082643  0
H  H2  1  0.61768020  0.41125498  0.14390044  1  0  0.109752  0  0.940474  0  0  0.117085  0  1.004622  0  0  0.120722  0  1.002633  0  0  0.114988  0.114555  0  1.005813  0
H  H3  1  0.38231914  0.58874585  0.85609873  1  0  0.109772  0  0.940464  0  0  0.117118  0  1.004591  0  0  0.120749  0  1.00262  0  0  0.115013  0.114587  0  1.005782  0
H  H4  1  0.65686138  0.36475602  0.91882515  1  0  0.116246  0  0.946869  0  0  0.127867  0  1.004467  0  0  0.131497  0  1.001766  0  0  0.115094  0.124822  0  1.007136  0
H  H5  1  0.34313744  0.63524358  0.08117490  1  0  0.116259  0  0.946855  0  0  0.127889  0  1.004441  0  0  0.13152  0  1.001737  0  0  0.115109  0.124845  0  1.007113  0
H  H6  1  0.18299710  0.15358730  0.05636967  1  0  0.125831  0  0.946711  0  0  0.133297  0  1.008174  0  0  0.137108  0  1.005878  0  0  0.115569  0.130166  0  1.010606  0
H  H7  1  0.81700120  0.84641108  0.94362938  1  0  0.12583  0  0.9467  0  0  0.133286  0  1.008183  0  0  0.137098  0  1.005883  0  0  0.115564  0.130154  0  1.010614  0
H  H8  1  0.52589174  0.08556530  0.67728389  1  0  0.464587  0  0.806998  0  0  0.437449  0  0.864861  0  0  0.447102  0  0.850638  0  0  0.320381  0.429925  0  0.875821  0
H  H9  1  0.47410972  0.91443676  0.32271645  1  0  0.464601  0  0.806979  0  0  0.437464  0  0.864838  0  0  0.447117  0  0.850614  0  0  0.320392  0.429941  0  0.875798  0
H  H10  1  0.29792727  0.95567843  0.60772422  1  0  0.449178  0  0.847616  0  0  0.417601  0  0.912482  0  0  0.427979  0  0.897272  0  0  0.305257  0.409878  0  0.923543  0
H  H11  1  0.70207527  0.04432240  0.39227623  1  0  0.449161  0  0.847639  0  0  0.417586  0  0.912503  0  0  0.427964  0  0.897293  0  0  0.305252  0.409866  0  0.923561  0
H  H12  1  0.65363659  0.35686376  0.70938235  1  0  0.449175  0  0.845869  0  0  0.421706  0  0.903142  0  0  0.432339  0  0.887659  0  0  0.304239  0.413544  0  0.914886  0
H  H13  1  0.34636595  0.64313707  0.29061809  1  0  0.449171  0  0.845877  0  0  0.421703  0  0.903149  0  0  0.432334  0  0.887669  0  0  0.304236  0.413539  0  0.914895  0
H  H14  1  0.58208418  0.50772359  0.64831373  1  0  0.445781  0  0.847504  0  0  0.417546  0  0.906034  0  0  0.427528  0  0.891459  0  0  0.305891  0.410023  0  0.916807  0
H  H15  1  0.41791624  0.49227602  0.35168649  1  0  0.445764  0  0.847526  0  0  0.417531  0  0.906054  0  0  0.427512  0  0.891479  0  0  0.305884  0.410008  0  0.916826  0
C  C16  1  0.02313353  0.22438417  0.20090041  1  0  -0.13231  0  3.685521  0  0  -0.114839  0  3.935645  0  0  -0.121525  0  3.956393  0  0  -0.007559  -0.111005  0  3.923322  0
C  C17  1  0.97686740  0.77561667  0.79909798  1  0  -0.132275  0  3.685476  0  0  -0.114766  0  3.935544  0  0  -0.121449  0  3.956291  0  0  -0.007564  -0.110927  0  3.923211  0
C  C18  1  0.86862045  0.30302187  0.22748629  1  0  -0.036695  0  3.667073  0  0  -0.027696  0  3.900485  0  0  -0.029325  0  3.918695  0  0  0.006987  -0.027009  0  3.890079  0
C  C19  1  0.13138049  0.69697896  0.77251304  1  0  -0.036737  0  3.667082  0  0  -0.027751  0  3.900507  0  0  -0.029378  0  3.918712  0  0  0.006984  -0.027065  0  3.890095  0
C  C20  1  0.73760395  0.35103316  0.12360573  1  0  -0.044613  0  3.675156  0  0  -0.068667  0  3.93217  0  0  -0.071028  0  3.950474  0  0  -0.067264  -0.067525  0  3.92042  0
C  C21  1  0.26239435  0.64896522  0.87639332  1  0  -0.044594  0  3.675084  0  0  -0.068668  0  3.932141  0  0  -0.07103  0  3.95044  0  0  -0.067258  -0.067526  0  3.920388  0
C  C22  1  0.76062277  0.32551936  0.99738741  1  0  -0.038192  0  3.655629  0  0  -0.064904  0  3.900821  0  0  -0.06229  0  3.918175  0  0  -0.065597  -0.066531  0  3.890294  0
C  C23  1  0.23937342  0.67447779  0.00261141  1  0  -0.038267  0  3.655685  0  0  -0.064982  0  3.900887  0  0  -0.062369  0  3.91824  0  0  -0.065667  -0.066608  0  3.890365  0
C  C24  1  0.92436088  0.25639496  0.97320901  1  0  -0.043911  0  3.727977  0  0  -0.018001  0  3.959579  0  0  -0.02668  0  3.982414  0  0  -0.006657  -0.013254  0  3.945545  0
C  C25  1  0.07563531  0.74360219  0.02679075  1  0  -0.043824  0  3.728032  0  0  -0.017899  0  3.959621  0  0  -0.026577  0  3.982457  0  0  -0.006628  -0.013166  0  3.945609  0
C  C26  1  0.05360476  0.20486657  0.07540125  1  0  -0.050623  0  3.694748  0  0  -0.087747  0  3.943245  0  0  -0.085641  0  3.962266  0  0  -0.068289  -0.089277  0  3.931968  0
C  C27  1  0.94639355  0.79513181  0.92459780  1  0  -0.050655  0  3.69474  0  0  -0.087785  0  3.943217  0  0  -0.085678  0  3.962236  0  0  -0.068275  -0.089313  0  3.93194  0
C  C28  1  0.84623585  0.34614458  0.36163312  1  0  0.747107  0  3.813914  0  0  0.696894  0  4.112316  0  0  0.733136  0  4.097381  0  0  0.249634  0.671354  0  4.117869  0
C  C29  1  0.15376510  0.65385626  0.63836811  1  0  0.747083  0  3.813891  0  0  0.696876  0  4.112287  0  0  0.733118  0  4.097344  0  0  0.249609  0.671337  0  4.117834  0
C  C30  1  0.98328417  0.24788512  0.84362414  1  0  0.64484  0  3.923931  0  0  0.593506  0  4.231497  0  0  0.627231  0  4.223748  0  0  0.201052  0.571876  0  4.227206  0
C  C31  1  0.01671465  0.75211449  0.15637496  1  0  0.644828  0  3.923911  0  0  0.593464  0  4.231513  0  0  0.627185  0  4.223769  0  0  0.201038  0.571834  0  4.227225  0
S  S32  1  0.21104032  0.16302740  0.32171823  1  0  1.359059  0  5.556853  0  0  1.258665  0  6.07716  0  0  1.307397  0  6.051891  0  0  0.542905  1.224335  0  6.085396  0
S  S33  1  0.78895902  0.83697344  0.67827999  1  0  1.358975  0  5.556844  0  0  1.25856  0  6.077164  0  0  1.307288  0  6.051898  0  0  0.542871  1.224227  0  6.085386  0
O  O34  1  0.08247098  0.02168056  0.38534828  1  0  -0.805876  0  2.188896  0  0  -0.766268  0  2.480646  0  0  -0.787552  0  2.464544  0  0  -0.408883  -0.735859  0  2.487803  0
O  O35  1  0.91753048  0.97832150  0.61465206  1  0  -0.805845  0  2.188808  0  0  -0.766247  0  2.480569  0  0  -0.787541  0  2.464494  0  0  -0.408898  -0.73584  0  2.487723  0
O  O36  1  0.30675260  0.30481361  0.41930343  1  0  -0.759116  0  2.060474  0  0  -0.707485  0  2.315177  0  0  -0.728314  0  2.299159  0  0  -0.375452  -0.684039  0  2.326977  0
O  O37  1  0.69324622  0.69518600  0.58069662  1  0  -0.759081  0  2.060515  0  0  -0.707442  0  2.315221  0  0  -0.728269  0  2.299204  0  0  -0.375441  -0.684001  0  2.327021  0
O  O38  1  0.37513229  0.12649284  0.25727472  1  0  -0.615541  0  1.975914  0  0  -0.556415  0  2.210456  0  0  -0.579251  0  2.200359  0  0  -0.303574  -0.54158  0  2.218581  0
O  O39  1  0.62486813  0.87350677  0.74272361  1  0  -0.615508  0  1.975912  0  0  -0.55637  0  2.210452  0  0  -0.579201  0  2.200351  0  0  -0.303549  -0.541536  0  2.218574  0
O  O40  1  0.85658939  0.24375522  0.44820412  1  0  -0.74135  0  2.08055  0  0  -0.697469  0  2.326009  0  0  -0.721541  0  2.311973  0  0  -0.383977  -0.67059  0  2.338255  0
O  O41  1  0.14341103  0.75624439  0.55179610  1  0  -0.741326  0  2.080529  0  0  -0.697441  0  2.325981  0  0  -0.721512  0  2.311945  0  0  -0.383972  -0.670564  0  2.338226  0
O  O42  1  0.81914858  0.48317664  0.38200432  1  0  -0.707562  0  2.086816  0  0  -0.672569  0  2.354713  0  0  -0.697701  0  2.342346  0  0  -0.394847  -0.642712  0  2.365971  0
O  O43  1  0.18085346  0.51682296  0.61799889  1  0  -0.707533  0  2.086736  0  0  -0.672544  0  2.354628  0  0  -0.697699  0  2.342313  0  0  -0.394819  -0.642687  0  2.365885  0
O  O44  1  0.17075063  0.22524422  0.83664296  1  0  -0.694713  0  1.975508  0  0  -0.658741  0  2.216785  0  0  -0.683613  0  2.208847  0  0  -0.390761  -0.631711  0  2.222495  0
O  O45  1  0.82924767  0.77475416  0.16335608  1  0  -0.694755  0  1.975468  0  0  -0.658771  0  2.216756  0  0  -0.683644  0  2.208818  0  0  -0.390794  -0.631739  0  2.222465  0
O  O46  1  0.85498402  0.26642082  0.74054005  1  0  -0.71365  0  2.045703  0  0  -0.666274  0  2.282683  0  0  -0.690684  0  2.272339  0  0  -0.346371  -0.641375  0  2.288847  0
O  O47  1  0.14501532  0.73358002  0.25945912  1  0  -0.713617  0  2.045641  0  0  -0.666254  0  2.282678  0  0  -0.690672  0  2.272348  0  0  -0.346354  -0.641352  0  2.288837  0
O  O48  1  0.37203816  0.07393511  0.63466481  1  0  -0.924068  0  1.888681  0  0  -0.885624  0  2.084347  0  0  -0.903396  0  2.052291  0  0  -0.658769  -0.862443  0  2.113413  0
O  O49  1  0.62796278  0.92606572  0.36533546  1  0  -0.924055  0  1.888688  0  0  -0.88561  0  2.084353  0  0  -0.903382  0  2.052296  0  0  -0.658764  -0.862432  0  2.113416  0
O  O50  1  0.52850043  0.40628585  0.69322230  1  0  -0.915599  0  1.857125  0  0  -0.880231  0  2.051558  0  0  -0.899333  0  2.020462  0  0  -0.6529  -0.856559  0  2.079391  0
O  O51  1  0.47150052  0.59371498  0.30677987  1  0  -0.915592  0  1.857165  0  0  -0.880206  0  2.051561  0  0  -0.89931  0  2.020463  0  0  -0.652898  -0.856534  0  2.079395  0
