# generated using pymatgen
data_Gd2H15C12(NO4)3
_symmetry_space_group_name_H-M   'P 1'
_cell_length_a   11.68998640
_cell_length_b   19.00225603
_cell_length_c   18.99925321
_cell_angle_alpha   84.57165386
_cell_angle_beta   72.09010567
_cell_angle_gamma   72.07598799
_symmetry_Int_Tables_number   1
_chemical_formula_structural   Gd2H15C12(NO4)3
_chemical_formula_sum   'Gd16 H120 C96 N24 O96'
_cell_volume   3820.99439289
_cell_formula_units_Z   8
loop_
 _symmetry_equiv_pos_site_id
 _symmetry_equiv_pos_as_xyz
  1  'x, y, z'
loop_
 _atom_site_type_symbol
 _atom_site_label
 _atom_site_symmetry_multiplicity
 _atom_site_fract_x
 _atom_site_fract_y
 _atom_site_fract_z
 _atom_site_occupancy
 _atom_site_pbe_bader_charge
 _atom_site_pbe_bader_spin_density
 _atom_site_pbe_cm5_charge
 _atom_site_pbe_ddec_charge
 _atom_site_pbe_ddec_spin_density
 _atom_site_pbe_ddec_sum_bond_order
 _atom_site_pbe_magmom
Gd  Gd0  1  0.94100394  0.10580640  0.52180574  1  2.129843  0  1.462797  1.913871  0  2.300824  0
Gd  Gd1  1  0.06859278  0.39417854  0.97817510  1  2.128431  0  1.462681  1.913891  0  2.301992  0
Gd  Gd2  1  0.46292757  0.47819431  0.60576059  1  2.128265  0  1.46289  1.914115  0  2.302022  0
Gd  Gd3  1  0.04672651  0.02181738  0.89418730  1  2.126373  0  1.462646  1.914357  0  2.300507  0
Gd  Gd4  1  0.05899779  0.89419759  0.47819504  1  2.129915  0  1.462782  1.913901  0  2.300839  0
Gd  Gd5  1  0.93140678  0.60581937  0.02182640  1  2.128475  0  1.462697  1.913823  0  2.302146  0
Gd  Gd6  1  0.53707632  0.52180470  0.39423426  1  2.128579  0  1.462906  1.914162  0  2.301983  0
Gd  Gd7  1  0.95327153  0.97818053  0.10581124  1  2.12656  0  1.462688  1.914379  0  2.300441  0
Gd  Gd8  1  0.67078314  0.13493448  0.70188795  1  2.166064  0  1.516246  2.013935  0  2.23318  0
Gd  Gd9  1  0.00761389  0.36510118  0.79807143  1  2.171049  0  1.516603  2.0163  0  2.22991  0
Gd  Gd10  1  0.37281463  0.29812980  0.63489238  1  2.170569  0  1.517459  2.015105  0  2.233564  0
Gd  Gd11  1  0.80577778  0.20191283  0.86504397  1  2.169237  0  1.516882  2.016765  0  2.228973  0
Gd  Gd12  1  0.32921785  0.86506730  0.29811109  1  2.166214  0  1.516224  2.013994  0  2.23288  0
Gd  Gd13  1  0.99238542  0.63489894  0.20192832  1  2.171109  0  1.516586  2.016278  0  2.229905  0
Gd  Gd14  1  0.62718850  0.70187087  0.36510509  1  2.170606  0  1.517451  2.015059  0  2.233565  0
Gd  Gd15  1  0.19422203  0.79808563  0.13495700  1  2.169107  0  1.516862  2.016676  0  2.229163  0
H  H16  1  0.51675056  0.03017557  0.74426089  1  0.428853  0  0.314207  0.264037  0  0.933997  0
H  H17  1  0.79116559  0.46993522  0.75564340  1  0.425159  0  0.314661  0.264938  0  0.931994  0
H  H18  1  0.26145098  0.25553857  0.53011617  1  0.425693  0  0.314304  0.263739  0  0.933948  0
H  H19  1  0.54721688  0.24440646  0.96987642  1  0.426203  0  0.314713  0.264887  0  0.933073  0
H  H20  1  0.48324661  0.96982566  0.25574044  1  0.42887  0  0.314222  0.263999  0  0.934061  0
H  H21  1  0.20883251  0.53006600  0.24435880  1  0.425123  0  0.314624  0.264859  0  0.932055  0
H  H22  1  0.73854905  0.74446155  0.46988375  1  0.42569  0  0.314295  0.263787  0  0.93389  0
H  H23  1  0.45278306  0.75559532  0.03012367  1  0.426234  0  0.314728  0.264967  0  0.93298  0
H  H24  1  0.16874908  0.14122432  0.51720260  1  0.415551  0  0.31093  0.255377  0  0.942094  0
H  H25  1  0.32722012  0.35876102  0.98272974  1  0.42286  0  0.310665  0.255251  0  0.940602  0
H  H26  1  0.68630662  0.48262041  0.64110920  1  0.428919  0  0.310448  0.256246  0  0.940805  0
H  H27  1  0.30999187  0.01727344  0.85875441  1  0.419893  0  0.310807  0.255657  0  0.940809  0
H  H28  1  0.83125285  0.85877691  0.48280115  1  0.415496  0  0.310865  0.255381  0  0.942057  0
H  H29  1  0.67277341  0.64124352  0.01727177  1  0.422805  0  0.310638  0.255251  0  0.940563  0
H  H30  1  0.31368953  0.51737915  0.35889039  1  0.428893  0  0.310424  0.25624  0  0.940774  0
H  H31  1  0.69000835  0.98272447  0.14124465  1  0.419957  0  0.310824  0.255703  0  0.940802  0
H  H32  1  0.64076222  0.92159338  0.64977315  1  0.091018  0  0.11799  0.122979  0  0.94882  0
H  H33  1  0.71211302  0.57849310  0.85016714  1  0.084823  0  0.118153  0.123394  0  0.948449  0
H  H34  1  0.29069199  0.35001068  0.42146799  1  0.07309  0  0.117751  0.122698  0  0.949233  0
H  H35  1  0.56241064  0.14994327  0.07852439  1  0.088237  0  0.117645  0.121747  0  0.947679  0
H  H36  1  0.35924025  0.07840729  0.35022676  1  0.090982  0  0.117984  0.122964  0  0.948852  0
H  H37  1  0.28788531  0.42150647  0.14983297  1  0.084827  0  0.11817  0.123393  0  0.948429  0
H  H38  1  0.70930690  0.64999055  0.57852984  1  0.073196  0  0.117736  0.122699  0  0.949281  0
H  H39  1  0.43758724  0.85005574  0.92147554  1  0.088287  0  0.117641  0.121778  0  0.947641  0
H  H40  1  0.69711404  0.93770287  0.72179297  1  0.09407  0  0.131322  0.136863  0  0.948998  0
H  H41  1  0.85668383  0.56236212  0.77818931  1  0.101839  0  0.132107  0.138474  0  0.947334  0
H  H42  1  0.41925800  0.27814488  0.43759568  1  0.104984  0  0.131838  0.137926  0  0.947863  0
H  H43  1  0.63522799  0.22181024  0.06232906  1  0.097624  0  0.131551  0.137055  0  0.948191  0
H  H44  1  0.30288424  0.06229614  0.27820836  1  0.093798  0  0.131359  0.136909  0  0.948939  0
H  H45  1  0.14331572  0.43763579  0.22181219  1  0.101772  0  0.1321  0.138407  0  0.947343  0
H  H46  1  0.58074351  0.72185469  0.56240127  1  0.105032  0  0.131842  0.137929  0  0.947866  0
H  H47  1  0.36477060  0.77818932  0.93767436  1  0.097647  0  0.131582  0.137088  0  0.948119  0
H  H48  1  0.86788298  0.13514221  0.38001008  1  0.424575  0  0.301034  0.241586  0  0.977139  0
H  H49  1  0.88297172  0.36485728  0.11995432  1  0.386618  0  0.30141  0.241425  0  0.977123  0
H  H50  1  0.24807554  0.61994877  0.63505188  1  0.422668  0  0.301195  0.241709  0  0.97692  0
H  H51  1  0.00304404  0.88005739  0.86494999  1  0.423506  0  0.301266  0.241906  0  0.977174  0
H  H52  1  0.13212729  0.86485846  0.61999102  1  0.424363  0  0.301086  0.241696  0  0.977054  0
H  H53  1  0.11702335  0.63514007  0.88004475  1  0.386603  0  0.301399  0.241357  0  0.977204  0
H  H54  1  0.75192804  0.38004969  0.36494803  1  0.422628  0  0.301166  0.241665  0  0.976915  0
H  H55  1  0.99694541  0.11994051  0.13505172  1  0.423547  0  0.301243  0.241879  0  0.977127  0
H  H56  1  0.04126139  0.23338548  0.59409973  1  0.128306  0  0.12649  0.131078  0  0.986255  0
H  H57  1  0.36887303  0.26652380  0.90591184  1  0.089054  0  0.126117  0.130919  0  0.987134  0
H  H58  1  0.63545785  0.40582333  0.73335868  1  0.12987  0  0.126649  0.13189  0  0.986289  0
H  H59  1  0.27468073  0.09413994  0.76654336  1  0.126677  0  0.126375  0.13154  0  0.987235  0
H  H60  1  0.95874089  0.76661740  0.40590105  1  0.127917  0  0.126481  0.131005  0  0.986278  0
H  H61  1  0.63111909  0.73347854  0.09409037  1  0.089081  0  0.126122  0.131004  0  0.987078  0
H  H62  1  0.36454067  0.59417347  0.26663724  1  0.129738  0  0.126649  0.131924  0  0.986321  0
H  H63  1  0.72531644  0.90585797  0.23345693  1  0.126466  0  0.126369  0.131572  0  0.987143  0
H  H64  1  0.13303928  0.18173608  0.65220636  1  0.089607  0  0.116957  0.127018  0  0.990741  0
H  H65  1  0.46704775  0.31817167  0.84773665  1  0.088395  0  0.117173  0.127935  0  0.98972  0
H  H66  1  0.78530405  0.34761731  0.68173633  1  0.070797  0  0.117577  0.129001  0  0.988988  0
H  H67  1  0.31468609  0.15228803  0.81821494  1  0.112567  0  0.117247  0.128658  0  0.990215  0
H  H68  1  0.86695715  0.81826570  0.34779811  1  0.089193  0  0.11698  0.127008  0  0.990657  0
H  H69  1  0.53294798  0.68183177  0.15226590  1  0.088339  0  0.117189  0.127955  0  0.989728  0
H  H70  1  0.21469845  0.65238170  0.31826079  1  0.070814  0  0.117577  0.128993  0  0.989029  0
H  H71  1  0.68532142  0.84770601  0.18178148  1  0.112581  0  0.11724  0.128689  0  0.990221  0
H  H72  1  0.42767972  0.02491780  0.64860899  1  0.105937  0  0.114702  0.120124  0  0.994746  0
H  H73  1  0.60129678  0.47519937  0.85123497  1  0.101129  0  0.115157  0.121153  0  0.995271  0
H  H74  1  0.07672946  0.35127123  0.52474020  1  0.119351  0  0.114741  0.120437  0  0.997  0
H  H75  1  0.45288410  0.14866083  0.97524140  1  0.098922  0  0.115076  0.121169  0  0.995461  0
H  H76  1  0.57231944  0.97508342  0.35139215  1  0.105933  0  0.114708  0.120144  0  0.994749  0
H  H77  1  0.39870324  0.52479853  0.14876339  1  0.101145  0  0.115155  0.121131  0  0.995233  0
H  H78  1  0.92327275  0.64873221  0.47526127  1  0.119792  0  0.114743  0.120461  0  0.997046  0
H  H79  1  0.54711460  0.85134261  0.02475730  1  0.099006  0  0.115068  0.121139  0  0.995462  0
H  H80  1  0.55940088  0.04594468  0.58294306  1  0.105904  0  0.130954  0.143478  0  0.955264  0
H  H81  1  0.68821478  0.45419927  0.91694351  1  0.127033  0  0.130915  0.143988  0  0.955779  0
H  H82  1  0.14275768  0.41687748  0.54581910  1  0.124745  0  0.13098  0.143573  0  0.955841  0
H  H83  1  0.60569079  0.08308190  0.95399768  1  0.130008  0  0.130834  0.143827  0  0.954943  0
H  H84  1  0.44060117  0.95405433  0.41705720  1  0.105899  0  0.13093  0.143449  0  0.955296  0
H  H85  1  0.31178237  0.54579975  0.08305625  1  0.126902  0  0.130905  0.143949  0  0.955775  0
H  H86  1  0.85724720  0.58312209  0.45418255  1  0.124648  0  0.130993  0.143626  0  0.955716  0
H  H87  1  0.39430488  0.91692154  0.04600225  1  0.129906  0  0.130861  0.143887  0  0.954844  0
H  H88  1  0.67534110  0.21287894  0.40531998  1  0.074274  0  0.119101  0.119972  0  0.969862  0
H  H89  1  0.79352963  0.28714370  0.09458067  1  0.071956  0  0.118267  0.119242  0  0.969927  0
H  H90  1  0.08081924  0.59464844  0.71276451  1  0.079081  0  0.118168  0.118685  0  0.969888  0
H  H91  1  0.88796563  0.90529198  0.78740143  1  0.072753  0  0.118217  0.118719  0  0.971913  0
H  H92  1  0.32466724  0.78711344  0.59467643  1  0.074505  0  0.119139  0.119974  0  0.969993  0
H  H93  1  0.20647271  0.71285421  0.90541628  1  0.071919  0  0.118262  0.119228  0  0.969966  0
H  H94  1  0.91918653  0.40534946  0.28723260  1  0.079006  0  0.11819  0.118668  0  0.96988  0
H  H95  1  0.11203110  0.09470814  0.21259641  1  0.072755  0  0.118222  0.118749  0  0.971925  0
H  H96  1  0.72639478  0.28014852  0.43581842  1  0.049786  0  0.11987  0.116444  0  0.962753  0
H  H97  1  0.94235667  0.21985158  0.06411457  1  0.05597  0  0.119949  0.116799  0  0.961512  0
H  H98  1  0.16226324  0.56429379  0.78010921  1  0.049394  0  0.120121  0.116145  0  0.962567  0
H  H99  1  0.00615547  0.93571413  0.71996540  1  0.053515  0  0.120188  0.117377  0  0.961222  0
H  H100  1  0.27360343  0.71985326  0.56417802  1  0.049791  0  0.119855  0.11645  0  0.962737  0
H  H101  1  0.05764443  0.78014853  0.93588430  1  0.055995  0  0.119944  0.116819  0  0.96143  0
H  H102  1  0.83773821  0.43570522  0.21988896  1  0.049362  0  0.120103  0.116156  0  0.962536  0
H  H103  1  0.99384327  0.06428489  0.28003279  1  0.053532  0  0.120193  0.117391  0  0.961228  0
H  H104  1  0.16479657  0.04605881  0.64792845  1  0.089099  0  0.122923  0.132608  0  0.962172  0
H  H105  1  0.35853131  0.45388134  0.85191210  1  0.080354  0  0.123011  0.132572  0  0.961732  0
H  H106  1  0.81253315  0.35180558  0.54595945  1  0.083473  0  0.123049  0.133264  0  0.961499  0
H  H107  1  0.21065524  0.14804089  0.95387956  1  0.08752  0  0.123365  0.133615  0  0.96136  0
H  H108  1  0.83520779  0.95394297  0.35207530  1  0.089064  0  0.122959  0.132642  0  0.962121  0
H  H109  1  0.64146546  0.54611988  0.14808783  1  0.080364  0  0.123019  0.132574  0  0.961725  0
H  H110  1  0.18747541  0.64819785  0.45403572  1  0.083395  0  0.123086  0.133299  0  0.961432  0
H  H111  1  0.78934135  0.85195701  0.04611864  1  0.087441  0  0.123389  0.13367  0  0.961345  0
H  H112  1  0.29733000  0.05213420  0.57452312  1  0.085508  0  0.109573  0.108812  0  0.986901  0
H  H113  1  0.42412203  0.44778075  0.92512081  1  0.097941  0  0.109803  0.108884  0  0.986849  0
H  H114  1  0.87213364  0.42496129  0.55207635  1  0.070695  0  0.109222  0.108237  0  0.987767  0
H  H115  1  0.34935700  0.07477979  0.94781277  1  0.069116  0  0.109827  0.109285  0  0.987004  0
H  H116  1  0.70267061  0.94786702  0.42547837  1  0.085535  0  0.109568  0.108817  0  0.986919  0
H  H117  1  0.57587271  0.55222269  0.07487825  1  0.098162  0  0.10977  0.10886  0  0.986889  0
H  H118  1  0.12786333  0.57504602  0.44792304  1  0.070565  0  0.109236  0.108228  0  0.987775  0
H  H119  1  0.65064184  0.92522089  0.05218628  1  0.06908  0  0.109826  0.109261  0  0.987022  0
H  H120  1  0.91036712  0.26227055  0.33914801  1  -0.001774  0  0.095356  0.085104  0  1.003075  0
H  H121  1  0.01170229  0.23769291  0.16080422  1  0.020304  0  0.095089  0.08458  0  1.003786  0
H  H122  1  0.24960736  0.66091484  0.76212428  1  0.025754  0  0.095552  0.085549  0  1.003187  0
H  H123  1  0.17244976  0.83924681  0.73767656  1  0.024291  0  0.095334  0.085644  0  1.003226  0
H  H124  1  0.08963720  0.73773013  0.66085364  1  -0.00185  0  0.095335  0.085033  0  1.002976  0
H  H125  1  0.98828664  0.76230721  0.83919958  1  0.020389  0  0.095103  0.084627  0  1.003836  0
H  H126  1  0.75040126  0.33907975  0.23787702  1  0.025686  0  0.095536  0.085516  0  1.003179  0
H  H127  1  0.82754561  0.16074888  0.26232303  1  0.024395  0  0.095285  0.085632  0  1.00328  0
H  H128  1  0.03593871  0.18104614  0.34044277  1  0.10781  0  0.116199  0.116401  0  0.98726  0
H  H129  1  0.05727190  0.31890672  0.15960786  1  0.080741  0  0.115926  0.116194  0  0.988019  0
H  H130  1  0.37666743  0.65940892  0.68096563  1  0.084101  0  0.116405  0.116658  0  0.987062  0
H  H131  1  0.21689325  0.84048618  0.81889967  1  0.103252  0  0.116218  0.116633  0  0.987528  0
H  H132  1  0.96406429  0.81895729  0.65955434  1  0.110897  0  0.116203  0.116379  0  0.987255  0
H  H133  1  0.94271969  0.68109284  0.84039715  1  0.080505  0  0.115896  0.116207  0  0.987979  0
H  H134  1  0.62333690  0.34058843  0.31903498  1  0.084138  0  0.116392  0.116627  0  0.98705  0
H  H135  1  0.78309967  0.15951007  0.18110657  1  0.103206  0  0.116223  0.116601  0  0.987567  0
C  C136  1  0.67128637  0.96193398  0.67190032  1  0.266147  0  -0.058988  -0.185486  0  3.915421  0
C  C137  1  0.80511335  0.53814630  0.82804436  1  0.269341  0  -0.059439  -0.187097  0  3.915263  0
C  C138  1  0.34337933  0.32797001  0.46181330  1  0.268968  0  -0.059465  -0.186687  0  3.91568  0
C  C139  1  0.63335178  0.17197940  0.03814905  1  0.270245  0  -0.058836  -0.183232  0  3.912513  0
C  C140  1  0.32871780  0.03806724  0.32809941  1  0.266547  0  -0.05903  -0.185509  0  3.915422  0
C  C141  1  0.19488503  0.46185106  0.17195679  1  0.269317  0  -0.059408  -0.186915  0  3.915265  0
C  C142  1  0.65662164  0.67202955  0.53818418  1  0.269212  0  -0.059527  -0.186779  0  3.915985  0
C  C143  1  0.36664614  0.82802072  0.96185297  1  0.270208  0  -0.058812  -0.18322  0  3.912466  0
C  C144  1  0.43379016  0.13857207  0.64520378  1  1.534654  0  0.216261  0.637837  0  4.148715  0
C  C145  1  0.71757859  0.36151298  0.85471474  1  1.565371  0  0.216642  0.637524  0  4.148727  0
C  C146  1  0.07935404  0.35464816  0.63845303  1  1.566718  0  0.217315  0.639437  0  4.146353  0
C  C147  1  0.57237551  0.14541384  0.86147239  1  1.539093  0  0.216841  0.63844  0  4.147499  0
C  C148  1  0.56620988  0.86142805  0.35479614  1  1.534689  0  0.216212  0.63769  0  4.148827  0
C  C149  1  0.28241965  0.63848493  0.14528449  1  1.565818  0  0.216627  0.637494  0  4.148649  0
C  C150  1  0.92064738  0.64535251  0.36154793  1  1.566142  0  0.217253  0.639393  0  4.146319  0
C  C151  1  0.42761756  0.85459015  0.13852895  1  1.539103  0  0.216818  0.638336  0  4.147347  0
C  C152  1  0.94532246  0.17275046  0.67551201  1  1.593682  0  0.255498  0.708926  0  4.054653  0
C  C153  1  0.29365926  0.32706266  0.82445674  1  1.588085  0  0.255872  0.709904  0  4.049733  0
C  C154  1  0.62080773  0.32445108  0.67277052  1  1.594977  0  0.256407  0.711416  0  4.04965  0
C  C155  1  0.11800125  0.17552321  0.82716256  1  1.591573  0  0.256087  0.711779  0  4.050394  0
C  C156  1  0.05467698  0.82725242  0.32449070  1  1.590327  0  0.255464  0.708877  0  4.054755  0
C  C157  1  0.70634091  0.67294078  0.17554230  1  1.588104  0  0.255956  0.709979  0  4.049528  0
C  C158  1  0.37919218  0.67554572  0.32722313  1  1.594819  0  0.256478  0.711511  0  4.04976  0
C  C159  1  0.88199785  0.82447746  0.17283980  1  1.591626  0  0.256063  0.711774  0  4.050384  0
C  C160  1  0.79019771  0.97325491  0.61648489  1  1.588286  0  0.243016  0.67696  0  4.087507  0
C  C161  1  0.87981707  0.52675617  0.88353742  1  1.594399  0  0.242599  0.676704  0  4.086376  0
C  C162  1  0.40654316  0.38352032  0.47319520  1  1.597662  0  0.243044  0.676474  0  4.091306  0
C  C163  1  0.76348094  0.11648103  0.02680050  1  1.588962  0  0.241808  0.67551  0  4.092195  0
C  C164  1  0.20980626  0.02674963  0.38351519  1  1.588026  0  0.243057  0.676996  0  4.087291  0
C  C165  1  0.12018308  0.47324450  0.11646390  1  1.594379  0  0.242563  0.676584  0  4.086389  0
C  C166  1  0.59345704  0.61648146  0.52680105  1  1.597327  0  0.243049  0.67662  0  4.091266  0
C  C167  1  0.23651853  0.88351522  0.97320013  1  1.588844  0  0.24194  0.675718  0  4.091752  0
C  C168  1  0.06752056  0.17999872  0.62205105  1  0.259107  0  -0.068059  -0.199186  0  3.895634  0
C  C169  1  0.36966789  0.31988087  0.87790980  1  0.306819  0  -0.067469  -0.200903  0  3.895115  0
C  C170  1  0.68965540  0.37783799  0.67998703  1  0.278852  0  -0.068819  -0.203665  0  3.900601  0
C  C171  1  0.24749971  0.12210610  0.81992498  1  0.238978  0  -0.067509  -0.202257  0  3.898511  0
C  C172  1  0.93247673  0.82000638  0.37795271  1  0.263331  0  -0.068064  -0.199014  0  3.895542  0
C  C173  1  0.63032908  0.68012035  0.12209083  1  0.306816  0  -0.067496  -0.201045  0  3.895356  0
C  C174  1  0.31034486  0.62215825  0.32000923  1  0.279189  0  -0.068819  -0.20372  0  3.900988  0
C  C175  1  0.75250144  0.87789180  0.18007494  1  0.239181  0  -0.067484  -0.202341  0  3.898385  0
C  C176  1  0.49663862  0.05591380  0.64021439  1  0.255401  0  -0.062194  -0.188182  0  3.873706  0
C  C177  1  0.69284503  0.44416363  0.85965898  1  0.224352  0  -0.061929  -0.189053  0  3.877081  0
C  C178  1  0.13728510  0.35960493  0.55578155  1  0.202664  0  -0.062207  -0.189001  0  3.877172  0
C  C179  1  0.55277577  0.14035986  0.94413212  1  0.231023  0  -0.062643  -0.190536  0  3.87628  0
C  C180  1  0.50336179  0.94408742  0.35978640  1  0.25537  0  -0.062191  -0.188184  0  3.873791  0
C  C181  1  0.30715438  0.55583483  0.14034060  1  0.22451  0  -0.061919  -0.18892  0  3.87685  0
C  C182  1  0.86271822  0.64039630  0.44421993  1  0.202327  0  -0.062206  -0.189053  0  3.877182  0
C  C183  1  0.44722147  0.85964414  0.05586955  1  0.230968  0  -0.062661  -0.190469  0  3.876009  0
C  C184  1  0.66055446  0.21008221  0.51981662  1  1.601507  0  0.246019  0.699436  0  4.080852  0
C  C185  1  0.89047599  0.28995723  0.98010584  1  1.606339  0  0.247775  0.704502  0  4.073879  0
C  C186  1  0.18056786  0.48017650  0.71011997  1  1.60487  0  0.247913  0.702289  0  4.07672  0
C  C187  1  0.87032306  0.01980673  0.79000210  1  1.599057  0  0.247565  0.701739  0  4.080738  0
C  C188  1  0.33944749  0.78991791  0.48018050  1  1.601502  0  0.24601  0.699429  0  4.080831  0
C  C189  1  0.10952845  0.71004068  0.01989616  1  1.60636  0  0.247882  0.704605  0  4.073787  0
C  C190  1  0.81943255  0.51982141  0.28987978  1  1.604993  0  0.247912  0.702366  0  4.07652  0
C  C191  1  0.12967863  0.98019338  0.20999886  1  1.599102  0  0.247633  0.701833  0  4.080623  0
C  C192  1  0.73075722  0.22112330  0.43955921  1  0.294672  0  -0.061702  -0.176293  0  3.905774  0
C  C193  1  0.89144804  0.27888765  0.06036795  1  0.301504  0  -0.061391  -0.177212  0  3.902493  0
C  C194  1  0.17044265  0.56044973  0.72107953  1  0.30296  0  -0.061204  -0.17476  0  3.903962  0
C  C195  1  0.95160419  0.93955201  0.77901720  1  0.314614  0  -0.060532  -0.174475  0  3.904526  0
C  C196  1  0.26924627  0.77887627  0.56043756  1  0.29449  0  -0.061711  -0.176315  0  3.906051  0
C  C197  1  0.10855473  0.72111137  0.93963248  1  0.301357  0  -0.061372  -0.177267  0  3.902415  0
C  C198  1  0.82956153  0.43954817  0.27891916  1  0.302966  0  -0.061191  -0.174785  0  3.903887  0
C  C199  1  0.04839291  0.06044922  0.22098151  1  0.314617  0  -0.060586  -0.174698  0  3.904641  0
C  C200  1  0.19887758  0.05273186  0.58747589  1  0.258036  0  -0.068365  -0.172871  0  3.896626  0
C  C201  1  0.33907098  0.44719145  0.91234911  1  0.24151  0  -0.068419  -0.172308  0  3.896547  0
C  C202  1  0.78645382  0.41223068  0.55269044  1  0.261979  0  -0.067567  -0.173198  0  3.897248  0
C  C203  1  0.25152897  0.08760724  0.94720762  1  0.261304  0  -0.069232  -0.176247  0  3.897835  0
C  C204  1  0.80112183  0.94727268  0.41252961  1  0.25843  0  -0.068447  -0.172972  0  3.89669  0
C  C205  1  0.66092271  0.55281199  0.08765101  1  0.241186  0  -0.068325  -0.172277  0  3.896621  0
C  C206  1  0.21354825  0.58777275  0.44730580  1  0.262158  0  -0.067611  -0.173124  0  3.89717  0
C  C207  1  0.74846901  0.91239011  0.05279214  1  0.261347  0  -0.069267  -0.176305  0  3.897932  0
C  C208  1  0.19307193  0.98553975  0.55249229  1  1.545903  0  0.21153  0.617683  0  4.158842  0
C  C209  1  0.23104368  0.51432091  0.94749750  1  1.543117  0  0.211952  0.616706  0  4.159064  0
C  C210  1  0.74562133  0.44747292  0.48556097  1  1.574688  0  0.211796  0.618815  0  4.159461  0
C  C211  1  0.17861810  0.05251863  0.01433964  1  1.552575  0  0.213705  0.621312  0  4.156936  0
C  C212  1  0.80692921  0.01446424  0.44751356  1  1.545721  0  0.211495  0.617476  0  4.158766  0
C  C213  1  0.76895106  0.48568252  0.05250156  1  1.542992  0  0.211983  0.616964  0  4.158709  0
C  C214  1  0.25438052  0.55252886  0.51443632  1  1.574642  0  0.211666  0.618474  0  4.159457  0
C  C215  1  0.82138177  0.94747707  0.98565906  1  1.552554  0  0.213669  0.621242  0  4.157004  0
C  C216  1  0.98789121  0.25344914  0.43131995  1  1.608561  0  0.190436  0.607364  0  4.222634  0
C  C217  1  0.17259430  0.24657209  0.06875728  1  1.602438  0  0.189895  0.606171  0  4.224234  0
C  C218  1  0.41909758  0.56868465  0.75350600  1  1.600942  0  0.192139  0.609693  0  4.21821  0
C  C219  1  0.24118169  0.93134507  0.74657995  1  1.599041  0  0.191153  0.608263  0  4.221245  0
C  C220  1  0.01211905  0.74655209  0.56867732  1  1.608567  0  0.190423  0.607339  0  4.222424  0
C  C221  1  0.82740360  0.75342637  0.93124649  1  1.602202  0  0.190025  0.606433  0  4.224141  0
C  C222  1  0.58090704  0.43131159  0.24649130  1  1.602097  0  0.192132  0.609754  0  4.218394  0
C  C223  1  0.75881498  0.06864896  0.25342366  1  1.600617  0  0.191087  0.607925  0  4.221643  0
C  C224  1  0.94936573  0.21863555  0.37531603  1  0.242368  0  -0.079262  -0.191899  0  3.953312  0
C  C225  1  0.04320891  0.28134784  0.12469169  1  0.261106  0  -0.078537  -0.191479  0  3.953484  0
C  C226  1  0.32476963  0.62465641  0.71857048  1  0.236136  0  -0.079532  -0.193619  0  3.952754  0
C  C227  1  0.16783884  0.87535925  0.78134221  1  0.220789  0  -0.079434  -0.194229  0  3.953401  0
C  C228  1  0.05064080  0.78136678  0.62468438  1  0.239392  0  -0.079222  -0.191712  0  3.952904  0
C  C229  1  0.95678519  0.71865173  0.87531262  1  0.261538  0  -0.078571  -0.191631  0  3.953669  0
C  C230  1  0.67523483  0.37534095  0.28142821  1  0.236137  0  -0.079497  -0.19358  0  3.952622  0
C  C231  1  0.83215590  0.12463534  0.21866036  1  0.236366  0  -0.079348  -0.194117  0  3.953533  0
N  N232  1  0.57349041  0.03285907  0.69170144  1  -1.105868  0  -0.537176  -0.380198  0  3.53725  0
N  N233  1  0.79809867  0.46723110  0.80818921  1  -1.086699  0  -0.538165  -0.382068  0  3.53877  0
N  N234  1  0.26557587  0.30811159  0.53273813  1  -1.08092  0  -0.537832  -0.379262  0  3.537548  0
N  N235  1  0.60655284  0.19182942  0.96721345  1  -1.098935  0  -0.537815  -0.381324  0  3.537424  0
N  N236  1  0.42651125  0.96714216  0.30829900  1  -1.105873  0  -0.537173  -0.380154  0  3.537368  0
N  N237  1  0.20190116  0.53276625  0.19181229  1  -1.086634  0  -0.538108  -0.382041  0  3.538672  0
N  N238  1  0.73442696  0.69188798  0.46726108  1  -1.080949  0  -0.537747  -0.379245  0  3.537653  0
N  N239  1  0.39344551  0.80817236  0.03278822  1  -1.098879  0  -0.53784  -0.381534  0  3.537441  0
N  N240  1  0.11962769  0.12218024  0.56542434  1  -1.087769  0  -0.542024  -0.372223  0  3.562105  0
N  N241  1  0.30727148  0.37775024  0.93448453  1  -1.096754  0  -0.541874  -0.371407  0  3.561469  0
N  N242  1  0.68522427  0.43441114  0.62213352  1  -1.105957  0  -0.540958  -0.371523  0  3.561896  0
N  N243  1  0.24180871  0.06550420  0.87776638  1  -1.097341  0  -0.541272  -0.37031  0  3.560585  0
N  N244  1  0.88037104  0.87782485  0.43457977  1  -1.088003  0  -0.541937  -0.372223  0  3.562147  0
N  N245  1  0.69272494  0.62225209  0.06551610  1  -1.0967  0  -0.54188  -0.371416  0  3.561661  0
N  N246  1  0.31477567  0.56559009  0.37786326  1  -1.106305  0  -0.54097  -0.371577  0  3.562113  0
N  N247  1  0.75819126  0.93449316  0.12223319  1  -1.097469  0  -0.541258  -0.370315  0  3.560467  0
N  N248  1  0.86259844  0.17567996  0.41344357  1  -1.090892  0  -0.540325  -0.388172  0  3.571768  0
N  N249  1  0.95167241  0.32431939  0.08652503  1  -1.071356  0  -0.540018  -0.386392  0  3.570921  0
N  N250  1  0.27615589  0.58652370  0.67561407  1  -1.095485  0  -0.540034  -0.387127  0  3.57228  0
N  N251  1  0.03816388  0.91347681  0.82435980  1  -1.110906  0  -0.541025  -0.388523  0  3.572648  0
N  N252  1  0.13740736  0.82432238  0.58655668  1  -1.090815  0  -0.540383  -0.388303  0  3.571811  0
N  N253  1  0.04832745  0.67567962  0.91347472  1  -1.071247  0  -0.539961  -0.386247  0  3.570891  0
N  N254  1  0.72384741  0.41347532  0.32438584  1  -1.095432  0  -0.540063  -0.387101  0  3.572207  0
N  N255  1  0.96182858  0.08651944  0.17564243  1  -1.127954  0  -0.541017  -0.388371  0  3.572549  0
O  O256  1  0.87069777  0.91741426  0.58135714  1  -1.202941  0  -0.365287  -0.620448  0  2.283399  0
O  O257  1  0.86926008  0.58256314  0.91875772  1  -1.210028  0  -0.365851  -0.620877  0  2.281934  0
O  O258  1  0.45185621  0.41866875  0.41733519  1  -1.213081  0  -0.365593  -0.621047  0  2.284349  0
O  O259  1  0.78809206  0.08134206  0.08266715  1  -1.198279  0  -0.365048  -0.620822  0  2.284571  0
O  O260  1  0.12930906  0.08258642  0.41864380  1  -1.203013  0  -0.365267  -0.620385  0  2.283527  0
O  O261  1  0.13073954  0.41743532  0.08124256  1  -1.210047  0  -0.365907  -0.620962  0  2.28171  0
O  O262  1  0.54814832  0.58132805  0.58266280  1  -1.212967  0  -0.365609  -0.621168  0  2.284142  0
O  O263  1  0.21190120  0.91865087  0.91732966  1  -1.198305  0  -0.365147  -0.620951  0  2.284291  0
O  O264  1  0.34761131  0.17047319  0.61659867  1  -1.177741  0  -0.329891  -0.578205  0  2.170507  0
O  O265  1  0.63462571  0.32968912  0.88336180  1  -1.192114  0  -0.329103  -0.576774  0  2.168449  0
O  O266  1  0.96460030  0.38330574  0.67029335  1  -1.192632  0  -0.330208  -0.578248  0  2.167282  0
O  O267  1  0.51794010  0.11686686  0.82965051  1  -1.173441  0  -0.329734  -0.577346  0  2.169281  0
O  O268  1  0.65239056  0.82952471  0.38340142  1  -1.177774  0  -0.329895  -0.578152  0  2.170494  0
O  O269  1  0.36537506  0.67031100  0.11663829  1  -1.192604  0  -0.329102  -0.576793  0  2.168359  0
O  O270  1  0.03540566  0.61669549  0.32970550  1  -1.192262  0  -0.330176  -0.578234  0  2.167163  0
O  O271  1  0.48206213  0.88313547  0.17035150  1  -1.173522  0  -0.32965  -0.577244  0  2.168875  0
O  O272  1  0.88358214  0.14025594  0.65080348  1  -1.205699  0  -0.431626  -0.708748  0  2.397725  0
O  O273  1  0.17469335  0.35949072  0.84919205  1  -1.208721  0  -0.432452  -0.709284  0  2.395723  0
O  O274  1  0.53438927  0.34919867  0.64025985  1  -1.209375  0  -0.432848  -0.709035  0  2.392687  0
O  O275  1  0.02380382  0.15078161  0.85962517  1  -1.205389  0  -0.433057  -0.710824  0  2.395644  0
O  O276  1  0.11641274  0.85975302  0.34919627  1  -1.205885  0  -0.431609  -0.708758  0  2.397614  0
O  O277  1  0.82530649  0.64050940  0.15080717  1  -1.208715  0  -0.43247  -0.709318  0  2.395695  0
O  O278  1  0.46561195  0.65080200  0.35973325  1  -1.2092  0  -0.432823  -0.709056  0  2.392691  0
O  O279  1  0.97619516  0.84921851  0.14037581  1  -1.205365  0  -0.433066  -0.710817  0  2.395586  0
O  O280  1  0.47666540  0.17684618  0.67824212  1  -1.185911  0  -0.458301  -0.746714  0  2.47775  0
O  O281  1  0.83173549  0.32317609  0.82163943  1  -1.203896  0  -0.459083  -0.748282  0  2.475291  0
O  O282  1  0.15520674  0.32167457  0.67679584  1  -1.204258  0  -0.458811  -0.748563  0  2.477279  0
O  O283  1  0.65356631  0.17839158  0.82312858  1  -1.196035  0  -0.459027  -0.747751  0  2.47557  0
O  O284  1  0.52333582  0.82315449  0.32175814  1  -1.185897  0  -0.458257  -0.746609  0  2.477745  0
O  O285  1  0.16826643  0.67682237  0.17835944  1  -1.203831  0  -0.459097  -0.748294  0  2.475368  0
O  O286  1  0.84479737  0.67832389  0.32320355  1  -1.204129  0  -0.458797  -0.74853  0  2.477224  0
O  O287  1  0.34642384  0.82161352  0.17687155  1  -1.196046  0  -0.459076  -0.747725  0  2.475696  0
O  O288  1  0.90845831  0.20030561  0.73871458  1  -1.20482  0  -0.371347  -0.629214  0  2.345813  0
O  O289  1  0.34757250  0.29958401  0.76122786  1  -1.20344  0  -0.371515  -0.629425  0  2.346202  0
O  O290  1  0.64705621  0.26122996  0.70029452  1  -1.206227  0  -0.371608  -0.630355  0  2.345784  0
O  O291  1  0.10853638  0.23875724  0.79967339  1  -1.205898  0  -0.371477  -0.629801  0  2.344414  0
O  O292  1  0.09154147  0.79969728  0.26128691  1  -1.204589  0  -0.371316  -0.62917  0  2.345775  0
O  O293  1  0.65243217  0.70042440  0.23876959  1  -1.203507  0  -0.371601  -0.629483  0  2.346102  0
O  O294  1  0.35294397  0.73876961  0.29970017  1  -1.206202  0  -0.371596  -0.630355  0  2.345693  0
O  O295  1  0.89146110  0.76124509  0.20033335  1  -1.205966  0  -0.371449  -0.629753  0  2.344341  0
O  O296  1  0.80055629  0.03885357  0.60995102  1  -1.193531  0  -0.40435  -0.696451  0  2.436629  0
O  O297  1  0.94922073  0.46114957  0.89005282  1  -1.199883  0  -0.403999  -0.696615  0  2.438188  0
O  O298  1  0.41035413  0.39008707  0.53879580  1  -1.19075  0  -0.404018  -0.696356  0  2.439124  0
O  O299  1  0.83942583  0.10994725  0.96121089  1  -1.201349  0  -0.403538  -0.695513  0  2.439178  0
O  O300  1  0.19944366  0.96115042  0.39005064  1  -1.193312  0  -0.404373  -0.696563  0  2.436343  0
O  O301  1  0.05077847  0.53884944  0.10994938  1  -1.199813  0  -0.403945  -0.696493  0  2.438261  0
O  O302  1  0.58964508  0.60991471  0.46120412  1  -1.191027  0  -0.403986  -0.69633  0  2.439244  0
O  O303  1  0.16057068  0.89005121  0.03878800  1  -1.201253  0  -0.403598  -0.695635  0  2.439117  0
O  O304  1  0.08159652  0.98895340  0.54727012  1  -1.207921  0  -0.457368  -0.769162  0  2.390701  0
O  O305  1  0.11774365  0.51095493  0.95270347  1  -1.207184  0  -0.458069  -0.769734  0  2.391134  0
O  O306  1  0.62889157  0.45275956  0.48895429  1  -1.212443  0  -0.458716  -0.769996  0  2.391422  0
O  O307  1  0.07056076  0.04727192  0.01095184  1  -1.210369  0  -0.458307  -0.770286  0  2.391566  0
O  O308  1  0.91840606  0.01105114  0.45273223  1  -1.207915  0  -0.457261  -0.768908  0  2.390552  0
O  O309  1  0.88224889  0.48904353  0.04729578  1  -1.207017  0  -0.458079  -0.769753  0  2.391021  0
O  O310  1  0.37111263  0.54723780  0.51104108  1  -1.212568  0  -0.458664  -0.769857  0  2.391384  0
O  O311  1  0.92943506  0.95272764  0.98904897  1  -1.210036  0  -0.458281  -0.770214  0  2.391558  0
O  O312  1  0.54296935  0.23845780  0.53669533  1  -1.192205  0  -0.388375  -0.64114  0  2.32325  0
O  O313  1  0.81815788  0.26157597  0.96319200  1  -1.203609  0  -0.389783  -0.644746  0  2.321141  0
O  O314  1  0.07988667  0.46327522  0.73854463  1  -1.202442  0  -0.389569  -0.642772  0  2.320566  0
O  O315  1  0.78103617  0.03665921  0.76166764  1  -1.197683  0  -0.389206  -0.641844  0  2.322947  0
O  O316  1  0.45702977  0.76153900  0.46330268  1  -1.192238  0  -0.38836  -0.641163  0  2.323316  0
O  O317  1  0.18184682  0.73842249  0.03680948  1  -1.203617  0  -0.389872  -0.644763  0  2.321192  0
O  O318  1  0.92011453  0.53672324  0.26145407  1  -1.202415  0  -0.389555  -0.642773  0  2.320419  0
O  O319  1  0.21895883  0.96334147  0.23832985  1  -1.197656  0  -0.389228  -0.641868  0  2.323052  0
O  O320  1  0.72211241  0.17777140  0.56492591  1  -1.210488  0  -0.39845  -0.705087  0  2.398492  0
O  O321  1  0.96477124  0.32227057  0.93501972  1  -1.207692  0  -0.398613  -0.706464  0  2.397679  0
O  O322  1  0.28719715  0.43508301  0.67778861  1  -1.21184  0  -0.399145  -0.706628  0  2.397276  0
O  O323  1  0.89961103  0.06495198  0.82223444  1  -1.198635  0  -0.398801  -0.707379  0  2.399296  0
O  O324  1  0.27788669  0.82223204  0.43507418  1  -1.210576  0  -0.398482  -0.705102  0  2.398439  0
O  O325  1  0.03523153  0.67772568  0.06498299  1  -1.207822  0  -0.398636  -0.70649  0  2.397543  0
O  O326  1  0.71280175  0.56491434  0.32221202  1  -1.211935  0  -0.39918  -0.706716  0  2.3973  0
O  O327  1  0.10038630  0.93504814  0.17776549  1  -1.198601  0  -0.398828  -0.707391  0  2.399035  0
O  O328  1  0.96298843  0.22567656  0.49749125  1  -1.207126  0  -0.421606  -0.680702  0  2.272208  0
O  O329  1  0.18607721  0.27431930  0.00257387  1  -1.205049  0  -0.421659  -0.680207  0  2.272377  0
O  O330  1  0.46064861  0.50255599  0.72562169  1  -1.202867  0  -0.422615  -0.681386  0  2.270967  0
O  O331  1  0.18847145  0.99751804  0.77432746  1  -1.207611  0  -0.423113  -0.681724  0  2.272169  0
O  O332  1  0.03702948  0.77432522  0.50250528  1  -1.207077  0  -0.42161  -0.680805  0  2.272248  0
O  O333  1  0.81392387  0.72567861  0.99743059  1  -1.205127  0  -0.421714  -0.680274  0  2.272361  0
O  O334  1  0.53936346  0.49743805  0.27437645  1  -1.203764  0  -0.422595  -0.68132  0  2.271145  0
O  O335  1  0.81151962  0.00247820  0.22567704  1  -1.207752  0  -0.423126  -0.681639  0  2.272353  0
O  O336  1  0.28804710  0.93189617  0.53287592  1  -1.176464  0  -0.293361  -0.509607  0  2.132495  0
O  O337  1  0.25272246  0.56787958  0.96732452  1  -1.159922  0  -0.293623  -0.509205  0  2.133736  0
O  O338  1  0.82095622  0.46722022  0.43201394  1  -1.179713  0  -0.293427  -0.510447  0  2.132581  0
O  O339  1  0.22004234  0.03283077  0.06795316  1  -1.159602  0  -0.294775  -0.512085  0  2.132812  0
O  O340  1  0.71195480  0.06810893  0.46712504  1  -1.176497  0  -0.293388  -0.509584  0  2.132408  0
O  O341  1  0.74726471  0.43212551  0.03267230  1  -1.159885  0  -0.293689  -0.509408  0  2.133394  0
O  O342  1  0.17904733  0.53278212  0.56798317  1  -1.179517  0  -0.293368  -0.510312  0  2.132492  0
O  O343  1  0.77995971  0.96716769  0.93204379  1  -1.159648  0  -0.294795  -0.51209  0  2.132822  0
O  O344  1  0.03978117  0.30287581  0.41033366  1  -1.18365  0  -0.351401  -0.558381  0  2.040261  0
O  O345  1  0.25299060  0.19718175  0.08976754  1  -1.180999  0  -0.351282  -0.557855  0  2.041072  0
O  O346  1  0.44965820  0.58963183  0.80312387  1  -1.174503  0  -0.352634  -0.560024  0  2.038975  0
O  O347  1  0.34259467  0.91038460  0.69718782  1  -1.17637  0  -0.351279  -0.55841  0  2.041532  0
O  O348  1  0.96022413  0.69712818  0.58966536  1  -1.183564  0  -0.351342  -0.558297  0  2.040195  0
O  O349  1  0.74700795  0.80281395  0.91023606  1  -1.18087  0  -0.351357  -0.557986  0  2.041037  0
O  O350  1  0.55035084  0.41036165  0.19687219  1  -1.17475  0  -0.352641  -0.560126  0  2.03903  0
O  O351  1  0.65740302  0.08960501  0.30281876  1  -1.176588  0  -0.351213  -0.558233  0  2.041588  0
