# generated using pymatgen
data_AgH5C7O3
_symmetry_space_group_name_H-M   'P 1'
_cell_length_a   7.46385116
_cell_length_b   8.69661726
_cell_length_c   10.68080238
_cell_angle_alpha   90.00001966
_cell_angle_beta   108.23294824
_cell_angle_gamma   90.00009167
_symmetry_Int_Tables_number   1
_chemical_formula_structural   AgH5C7O3
_chemical_formula_sum   'Ag4 H20 C28 O12'
_cell_volume   658.48493647
_cell_formula_units_Z   4
loop_
 _symmetry_equiv_pos_site_id
 _symmetry_equiv_pos_as_xyz
  1  'x, y, z'
loop_
 _atom_site_type_symbol
 _atom_site_label
 _atom_site_symmetry_multiplicity
 _atom_site_fract_x
 _atom_site_fract_y
 _atom_site_fract_z
 _atom_site_occupancy
 _atom_site_hle17_bader_spin_density
 _atom_site_hle17_ddec_charge
 _atom_site_hle17_ddec_spin_density
 _atom_site_hle17_ddec_sum_bond_order
 _atom_site_hle17_magmom
 _atom_site_hse06_10hf_bader_spin_density
 _atom_site_hse06_10hf_ddec_charge
 _atom_site_hse06_10hf_ddec_spin_density
 _atom_site_hse06_10hf_ddec_sum_bond_order
 _atom_site_hse06_10hf_magmom
 _atom_site_hse06_bader_spin_density
 _atom_site_hse06_ddec_charge
 _atom_site_hse06_ddec_spin_density
 _atom_site_hse06_ddec_sum_bond_order
 _atom_site_hse06_magmom
 _atom_site_pbe_bader_spin_density
 _atom_site_pbe_cm5_charge
 _atom_site_pbe_ddec_charge
 _atom_site_pbe_ddec_spin_density
 _atom_site_pbe_ddec_sum_bond_order
 _atom_site_pbe_magmom
Ag  Ag0  1  0.56485022  0.87589270  0.08437217  1  0  0.550639  0  1.48308  0  0  0.450995  0  1.923926  0  0  0.475966  0  1.878757  0  0  0.431595  0.433916  0  1.954465  0
Ag  Ag1  1  0.43514646  0.37589367  0.41562641  1  0  0.550681  0  1.483072  0  0  0.451044  0  1.92393  0  0  0.476019  0  1.878751  0  0  0.431622  0.433967  0  1.954469  0
Ag  Ag2  1  0.43515065  0.12410621  0.91562678  1  0  0.550637  0  1.483044  0  0  0.450992  0  1.92387  0  0  0.475965  0  1.878698  0  0  0.431602  0.433916  0  1.954408  0
Ag  Ag3  1  0.56485300  0.62410639  0.58437317  1  0  0.550632  0  1.483074  0  0  0.450971  0  1.92395  0  0  0.475954  0  1.878758  0  0  0.431586  0.433891  0  1.954488  0
H  H4  1  0.00894666  0.64968366  0.04004207  1  0  0.107509  0  0.934421  0  0  0.117939  0  0.993822  0  0  0.121342  0  0.991114  0  0  0.108288  0.115368  0  0.996006  0
H  H5  1  0.99105229  0.14968426  0.45995132  1  0  0.107442  0  0.934406  0  0  0.117875  0  0.993826  0  0  0.121264  0  0.991134  0  0  0.108285  0.115303  0  0.996009  0
H  H6  1  0.99105420  0.35031755  0.95995595  1  0  0.107517  0  0.934401  0  0  0.117941  0  0.993817  0  0  0.121344  0  0.991109  0  0  0.108293  0.115371  0  0.995999  0
H  H7  1  0.00894573  0.85031694  0.54004421  1  0  0.107495  0  0.934422  0  0  0.117917  0  0.99384  0  0  0.12132  0  0.99113  0  0  0.108286  0.115344  0  0.996025  0
H  H8  1  0.49589986  0.90825018  0.68929567  1  0  0.123769  0  0.956647  0  0  0.135073  0  1.014937  0  0  0.138086  0  1.014055  0  0  0.105698  0.132992  0  1.015671  0
H  H9  1  0.50410160  0.40824775  0.81070483  1  0  0.123765  0  0.956538  0  0  0.135075  0  1.014828  0  0  0.138087  0  1.013949  0  0  0.105689  0.132994  0  1.015559  0
H  H10  1  0.50409961  0.09174988  0.31070579  1  0  0.123777  0  0.956495  0  0  0.135083  0  1.014794  0  0  0.138096  0  1.013912  0  0  0.105699  0.133002  0  1.015526  0
H  H11  1  0.49589927  0.59175116  0.18929412  1  0  0.123719  0  0.956477  0  0  0.135029  0  1.014775  0  0  0.138041  0  1.013894  0  0  0.105671  0.132949  0  1.015507  0
H  H12  1  0.41862271  0.69193961  0.81528945  1  0  0.115941  0  0.954108  0  0  0.123667  0  1.01301  0  0  0.12712  0  1.010514  0  0  0.105284  0.12105  0  1.014943  0
H  H13  1  0.58137685  0.19193379  0.68470965  1  0  0.115935  0  0.954103  0  0  0.123632  0  1.013054  0  0  0.127084  0  1.010557  0  0  0.10526  0.121014  0  1.014987  0
H  H14  1  0.58137676  0.30806275  0.18471201  1  0  0.115915  0  0.954173  0  0  0.123669  0  1.013042  0  0  0.12712  0  1.010548  0  0  0.105278  0.121052  0  1.014974  0
H  H15  1  0.41862119  0.80806282  0.31528870  1  0  0.115941  0  0.954099  0  0  0.123665  0  1.013007  0  0  0.127117  0  1.01051  0  0  0.105277  0.121046  0  1.014941  0
H  H16  1  0.67821911  0.56002187  0.99321337  1  0  0.108355  0  0.961122  0  0  0.117981  0  1.021026  0  0  0.121179  0  1.020244  0  0  0.100986  0.115603  0  1.021843  0
H  H17  1  0.32178016  0.06002021  0.50678562  1  0  0.108323  0  0.961151  0  0  0.11795  0  1.021047  0  0  0.121152  0  1.020265  0  0  0.100976  0.115572  0  1.021866  0
H  H18  1  0.32178178  0.43997819  0.00678839  1  0  0.108324  0  0.961132  0  0  0.117955  0  1.021039  0  0  0.121149  0  1.020252  0  0  0.100963  0.115575  0  1.021864  0
H  H19  1  0.67821789  0.93997755  0.49321460  1  0  0.108406  0  0.961177  0  0  0.118041  0  1.021047  0  0  0.121238  0  1.020263  0  0  0.100996  0.115665  0  1.021863  0
H  H20  1  0.97425118  0.03296882  0.75873280  1  0  0.385901  0  0.898491  0  0  0.357322  0  0.973355  0  0  0.369082  0  0.961598  0  0  0.302396  0.349073  0  0.98145  0
H  H21  1  0.02575087  0.53296602  0.74126771  1  0  0.385926  0  0.898443  0  0  0.357365  0  0.973283  0  0  0.369124  0  0.961527  0  0  0.302411  0.349118  0  0.981378  0
H  H22  1  0.02574545  0.96703354  0.24126524  1  0  0.385949  0  0.8984  0  0  0.357392  0  0.973231  0  0  0.369154  0  0.961469  0  0  0.302412  0.349141  0  0.98133  0
H  H23  1  0.97425141  0.46703174  0.25873248  1  0  0.385903  0  0.898471  0  0  0.357321  0  0.973339  0  0  0.36908  0  0.961585  0  0  0.302398  0.349072  0  0.981434  0
C  C24  1  0.14101097  0.87642612  0.92496003  1  0  0.658503  0  3.887824  0  0  0.60203  0  4.178535  0  0  0.638777  0  4.172598  0  0  0.206224  0.577001  0  4.181835  0
C  C25  1  0.85898759  0.37642408  0.57503890  1  0  0.658643  0  3.887691  0  0  0.602129  0  4.178416  0  0  0.638875  0  4.172477  0  0  0.20628  0.577098  0  4.181716  0
C  C26  1  0.85898429  0.12357049  0.07504146  1  0  0.658482  0  3.8878  0  0  0.601991  0  4.178541  0  0  0.638735  0  4.172608  0  0  0.206225  0.576963  0  4.181837  0
C  C27  1  0.14101186  0.62357943  0.42495975  1  0  0.658565  0  3.88768  0  0  0.602022  0  4.178454  0  0  0.638766  0  4.172518  0  0  0.206225  0.576992  0  4.181753  0
C  C28  1  0.79645771  0.89824767  0.79061682  1  0  0.343959  0  3.787703  0  0  0.325511  0  4.049487  0  0  0.340961  0  4.064934  0  0  0.091428  0.315341  0  4.038959  0
C  C29  1  0.20354512  0.39824594  0.70938116  1  0  0.344001  0  3.787581  0  0  0.325495  0  4.049398  0  0  0.340944  0  4.064843  0  0  0.091411  0.31533  0  4.038869  0
C  C30  1  0.20354600  0.10175124  0.20938461  1  0  0.344066  0  3.787528  0  0  0.325582  0  4.04937  0  0  0.34103  0  4.064817  0  0  0.091443  0.315411  0  4.038846  0
C  C31  1  0.79645573  0.60175412  0.29061591  1  0  0.344046  0  3.787569  0  0  0.325474  0  4.049473  0  0  0.340923  0  4.064916  0  0  0.091419  0.315302  0  4.03895  0
C  C32  1  0.89511823  0.70363302  0.96255701  1  0  -0.005266  0  3.708655  0  0  -0.036038  0  3.965733  0  0  -0.029002  0  3.981027  0  0  -0.078686  -0.040336  0  3.955344  0
C  C33  1  0.10488416  0.20363453  0.53743989  1  0  -0.005098  0  3.70863  0  0  -0.035903  0  3.965674  0  0  -0.02886  0  3.980979  0  0  -0.078658  -0.0402  0  3.955285  0
C  C34  1  0.10488267  0.29636704  0.03744570  1  0  -0.005237  0  3.708695  0  0  -0.036001  0  3.965783  0  0  -0.028963  0  3.981068  0  0  -0.078677  -0.040298  0  3.955392  0
C  C35  1  0.89511810  0.79636668  0.46255749  1  0  -0.005233  0  3.70879  0  0  -0.036018  0  3.965821  0  0  -0.028984  0  3.981116  0  0  -0.078722  -0.040315  0  3.955434  0
C  C36  1  0.60833406  0.84778193  0.76300647  1  0  -0.252869  0  3.795075  0  0  -0.265323  0  4.058906  0  0  -0.273404  0  4.074314  0  0  -0.131034  -0.260191  0  4.048443  0
C  C37  1  0.39166299  0.34777932  0.73698745  1  0  -0.25289  0  3.795113  0  0  -0.265349  0  4.058995  0  0  -0.27343  0  4.074401  0  0  -0.131038  -0.260217  0  4.048528  0
C  C38  1  0.39166114  0.15221927  0.23698846  1  0  -0.252861  0  3.795032  0  0  -0.265336  0  4.058952  0  0  -0.273416  0  4.074359  0  0  -0.131037  -0.260206  0  4.048491  0
C  C39  1  0.60833788  0.65222189  0.26301150  1  0  -0.252825  0  3.794993  0  0  -0.265272  0  4.058901  0  0  -0.273353  0  4.07431  0  0  -0.131035  -0.26014  0  4.048439  0
C  C40  1  0.94200790  0.82408677  0.89123596  1  0  -0.210959  0  3.73208  0  0  -0.190957  0  3.971833  0  0  -0.20531  0  3.99371  0  0  -0.038617  -0.181604  0  3.957265  0
C  C41  1  0.05799053  0.32408250  0.60876106  1  0  -0.211102  0  3.732143  0  0  -0.191005  0  3.971839  0  0  -0.205354  0  3.993707  0  0  -0.03866  -0.181652  0  3.95727  0
C  C42  1  0.05799017  0.17591559  0.10876520  1  0  -0.211095  0  3.73194  0  0  -0.191108  0  3.971764  0  0  -0.205458  0  3.993639  0  0  -0.038692  -0.181756  0  3.957199  0
C  C43  1  0.94200892  0.67591986  0.39123665  1  0  -0.211096  0  3.732175  0  0  -0.190979  0  3.971888  0  0  -0.205328  0  3.99376  0  0  -0.038679  -0.181629  0  3.957324  0
C  C44  1  0.56522232  0.72797902  0.83658599  1  0  -0.066081  0  3.815952  0  0  -0.07606  0  4.072113  0  0  -0.071388  0  4.085107  0  0  -0.104232  -0.079208  0  4.062968  0
C  C45  1  0.43478156  0.22797988  0.66341404  1  0  -0.066137  0  3.815964  0  0  -0.076119  0  4.072141  0  0  -0.071447  0  4.085143  0  0  -0.104227  -0.079269  0  4.063006  0
C  C46  1  0.43478137  0.27201874  0.16341450  1  0  -0.066147  0  3.815896  0  0  -0.07616  0  4.072079  0  0  -0.07149  0  4.085077  0  0  -0.104232  -0.079309  0  4.062941  0
C  C47  1  0.56522073  0.77202018  0.33658615  1  0  -0.06612  0  3.815943  0  0  -0.076108  0  4.072117  0  0  -0.071436  0  4.085112  0  0  -0.104242  -0.079255  0  4.062973  0
C  C48  1  0.70915413  0.65525546  0.93696539  1  0  -0.141705  0  3.800252  0  0  -0.155904  0  4.067087  0  0  -0.162913  0  4.086212  0  0  -0.120811  -0.151368  0  4.053881  0
C  C49  1  0.29084533  0.15525493  0.56303086  1  0  -0.141652  0  3.800097  0  0  -0.155831  0  4.066908  0  0  -0.162846  0  4.086033  0  0  -0.120763  -0.151294  0  4.053694  0
C  C50  1  0.29084111  0.34474575  0.06303422  1  0  -0.141623  0  3.800037  0  0  -0.155819  0  4.066873  0  0  -0.162819  0  4.085992  0  0  -0.120776  -0.151285  0  4.053664  0
C  C51  1  0.70915413  0.84474742  0.43696873  1  0  -0.141724  0  3.800178  0  0  -0.155914  0  4.06699  0  0  -0.162922  0  4.086111  0  0  -0.12071  -0.151373  0  4.053771  0
O  O52  1  0.26443318  0.81084764  0.01852865  1  0  -0.585117  0  2.081175  0  0  -0.514569  0  2.34585  0  0  -0.544949  0  2.336233  0  0  -0.31671  -0.493535  0  2.3516  0
O  O53  1  0.73556336  0.31084676  0.48146989  1  0  -0.585212  0  2.081138  0  0  -0.514645  0  2.345816  0  0  -0.545022  0  2.336193  0  0  -0.316773  -0.493613  0  2.351568  0
O  O54  1  0.73556915  0.18914437  0.98147623  1  0  -0.585031  0  2.08127  0  0  -0.514445  0  2.345888  0  0  -0.54482  0  2.336273  0  0  -0.316639  -0.493414  0  2.351636  0
O  O55  1  0.26443612  0.68915905  0.51853157  1  0  -0.585126  0  2.080996  0  0  -0.51457  0  2.345721  0  0  -0.544952  0  2.336105  0  0  -0.316723  -0.493537  0  2.35147  0
O  O56  1  0.17316341  0.98902623  0.85507531  1  0  -0.632312  0  2.134192  0  0  -0.548674  0  2.390185  0  0  -0.580497  0  2.380477  0  0  -0.324303  -0.526616  0  2.396172  0
O  O57  1  0.82683822  0.48902533  0.64492525  1  0  -0.632364  0  2.134173  0  0  -0.548731  0  2.390187  0  0  -0.580556  0  2.380481  0  0  -0.32433  -0.526671  0  2.396172  0
O  O58  1  0.82684032  0.01096693  0.14492987  1  0  -0.632348  0  2.134144  0  0  -0.548719  0  2.390145  0  0  -0.580543  0  2.380441  0  0  -0.324378  -0.52666  0  2.39613  0
O  O59  1  0.17316548  0.51097933  0.35507618  1  0  -0.632294  0  2.134221  0  0  -0.548662  0  2.390274  0  0  -0.580485  0  2.380569  0  0  -0.324276  -0.526602  0  2.396258  0
O  O60  1  0.83218578  0.01682795  0.72112782  1  0  -0.500254  0  2.109695  0  0  -0.442967  0  2.320108  0  0  -0.465026  0  2.313012  0  0  -0.337497  -0.42746  0  2.324607  0
O  O61  1  0.16781481  0.51682422  0.77887144  1  0  -0.500257  0  2.109614  0  0  -0.442972  0  2.320024  0  0  -0.46503  0  2.312925  0  0  -0.337481  -0.427471  0  2.324526  0
O  O62  1  0.16781227  0.98317211  0.27887146  1  0  -0.50032  0  2.109674  0  0  -0.443015  0  2.320052  0  0  -0.465074  0  2.312956  0  0  -0.337479  -0.427502  0  2.324552  0
O  O63  1  0.83218748  0.48317354  0.22112969  1  0  -0.500305  0  2.109678  0  0  -0.442956  0  2.320105  0  0  -0.465015  0  2.313008  0  0  -0.337486  -0.427446  0  2.324604  0
