# generated using pymatgen
data_Nd2NiH22C26(N3O10)2
_symmetry_space_group_name_H-M   'P 1'
_cell_length_a   7.01785862
_cell_length_b   9.02579581
_cell_length_c   14.02875998
_cell_angle_alpha   85.22364640
_cell_angle_beta   84.20234008
_cell_angle_gamma   75.54673268
_symmetry_Int_Tables_number   1
_chemical_formula_structural   Nd2NiH22C26(N3O10)2
_chemical_formula_sum   'Nd2 Ni1 H22 C26 N6 O20'
_cell_volume   854.52606792
_cell_formula_units_Z   1
loop_
 _symmetry_equiv_pos_site_id
 _symmetry_equiv_pos_as_xyz
  1  'x, y, z'
loop_
 _atom_site_type_symbol
 _atom_site_label
 _atom_site_symmetry_multiplicity
 _atom_site_fract_x
 _atom_site_fract_y
 _atom_site_fract_z
 _atom_site_occupancy
 _atom_site_pbe_bader_charge
 _atom_site_pbe_bader_spin_density
 _atom_site_pbe_cm5_charge
 _atom_site_pbe_ddec_charge
 _atom_site_pbe_ddec_spin_density
 _atom_site_pbe_ddec_sum_bond_order
 _atom_site_pbe_magmom
Nd  Nd0  1  0.50509330  0.28038213  0.09512751  1  2.248043  0.000503  1.451256  2.089451  0.000587  2.013377  0.0
Nd  Nd1  1  0.49490578  0.71961317  0.90487529  1  2.248043  0.000503  1.451317  2.089434  0.000587  2.013342  0.0
Ni  Ni2  1  0.50000598  0.49999773  0.49999967  1  1.085393  1.485742  0.644982  0.664222  1.729425  2.662878  1.472
H  H3  1  0.25934503  0.09468827  0.99013407  1  0.656205  1e-06  0.303951  0.40206  -3e-06  0.93093  0.0
H  H4  1  0.74064941  0.90530808  0.00986817  1  0.656163  1e-06  0.303926  0.402039  -3e-06  0.930949  0.0
H  H5  1  0.30445865  0.02106034  0.08908222  1  0.613964  6e-06  0.305025  0.396111  8e-06  0.935571  0.0
H  H6  1  0.69554615  0.97893505  0.91091960  1  0.614023  6e-06  0.305009  0.396127  8e-06  0.935557  0.0
H  H7  1  0.87003044  0.38541179  0.99903661  1  0.65902  -0.0  0.305008  0.412978  -6e-06  0.916078  0.0
H  H8  1  0.12996287  0.61458794  0.00096333  1  0.658838  -0.0  0.304971  0.412886  -6e-06  0.916198  0.0
H  H9  1  0.97336004  0.23636198  0.06210948  1  0.652272  -1e-06  0.314082  0.421363  -7e-06  0.884746  0.0
H  H10  1  0.02663147  0.76363885  0.93788976  1  0.652218  -1e-06  0.314081  0.421384  -7e-06  0.884724  0.0
H  H11  1  0.67386745  0.71668492  0.51981096  1  0.468582  -0.000676  0.320192  0.319061  -0.000607  0.895569  -0.001
H  H12  1  0.32613355  0.28331734  0.48019132  1  0.468502  -0.000676  0.320232  0.319128  -0.000608  0.895551  -0.001
H  H13  1  0.83722127  0.54766875  0.51828692  1  0.436362  -0.000543  0.303901  0.285648  -0.000417  0.967225  -0.001
H  H14  1  0.16278484  0.45233124  0.48171313  1  0.436392  -0.000543  0.30393  0.285713  -0.000417  0.967172  -0.001
H  H15  1  0.23705144  0.90495041  0.23981694  1  0.521461  0.001404  0.354629  0.320606  0.000713  0.869761  0.001
H  H16  1  0.76295138  0.09504254  0.76018156  1  0.521371  0.001403  0.354621  0.320544  0.000713  0.869824  0.001
H  H17  1  0.98996487  0.43177378  0.36357525  1  0.077851  0.000272  0.109227  0.12492  5.2e-05  0.997897  0.0
H  H18  1  0.01003841  0.56822613  0.63642422  1  0.078203  0.000272  0.109229  0.12491  5.2e-05  0.99795  0.0
H  H19  1  0.61588201  0.89196599  0.37811180  1  0.081457  1e-06  0.106511  0.119887  -0.000145  0.998003  0.0
H  H20  1  0.38412365  0.10803520  0.62189034  1  0.081402  1e-06  0.106514  0.119877  -0.000145  0.997987  0.0
H  H21  1  0.92983585  0.73711776  0.11158238  1  0.126495  0.000123  0.115915  0.122254  -7e-06  1.028136  0.0
H  H22  1  0.07016249  0.26289243  0.88841597  1  0.12653  0.000123  0.115924  0.122285  -7e-06  1.028112  0.0
H  H23  1  0.18886944  0.84636839  0.42206189  1  0.131908  0.000563  0.148976  0.113185  9.8e-05  0.952017  0.0
H  H24  1  0.81112448  0.15362552  0.57793553  1  0.131805  0.000563  0.148918  0.11312  9.8e-05  0.952098  0.0
C  C25  1  0.12662748  0.45366958  0.17963649  1  1.5904  -7.8e-05  0.195144  0.56254  -0.000194  4.239067  0.0
C  C26  1  0.87336891  0.54633368  0.82036380  1  1.59049  -7.8e-05  0.195093  0.562466  -0.000194  4.239045  0.0
C  C27  1  0.97723888  0.57375119  0.23306578  1  0.022052  -0.004033  -0.009777  0.004405  -0.004688  3.964458  -0.003
C  C28  1  0.02276304  0.42625681  0.76693468  1  0.022571  -0.004033  -0.009712  0.004575  -0.004687  3.964464  -0.003
C  C29  1  0.92982515  0.54577571  0.33102118  1  -0.072411  0.015313  -0.087222  -0.189703  0.008447  3.915548  0.009
C  C30  1  0.07018321  0.45423014  0.66898054  1  -0.073007  0.015313  -0.087274  -0.189772  0.008447  3.915684  0.009
C  C31  1  0.79996258  0.65924059  0.38419817  1  0.299767  -0.004908  0.07646  0.248711  -0.005788  4.086626  -0.005
C  C32  1  0.20003598  0.34076045  0.61580359  1  0.299742  -0.004907  0.076485  0.248718  -0.005787  4.086532  -0.005
C  C33  1  0.71901883  0.80188236  0.33879969  1  0.019122  0.016043  -0.093165  -0.204944  0.008998  3.949719  0.01
C  C34  1  0.28097733  0.19811742  0.66120011  1  0.019182  0.016042  -0.093161  -0.204971  0.008998  3.949573  0.01
C  C35  1  0.76214764  0.82827046  0.24022779  1  -0.039621  -0.004009  -0.018738  -0.015847  -0.004706  4.000683  -0.003
C  C36  1  0.23784898  0.17173629  0.75977299  1  -0.039422  -0.004009  -0.018723  -0.015751  -0.004705  4.000651  -0.003
C  C37  1  0.89237313  0.71476946  0.18757027  1  -0.032103  0.016763  -0.078857  -0.120271  0.009562  3.911217  0.01
C  C38  1  0.10762660  0.28524079  0.81242944  1  -0.032429  0.016762  -0.078932  -0.1205  0.009561  3.911403  0.01
C  C39  1  0.65944712  0.97479102  0.18977271  1  1.571296  -4.7e-05  0.193182  0.56354  -0.000181  4.255393  0.0
C  C40  1  0.34054254  0.02521915  0.81023174  1  1.57092  -4.7e-05  0.193296  0.563916  -0.000181  4.255045  0.0
C  C41  1  0.44672091  0.68523750  0.12468695  1  1.609915  0.000462  0.217804  0.583485  0.000274  4.271655  0.0
C  C42  1  0.55328387  0.31476237  0.87530960  1  1.610151  0.000462  0.217862  0.583553  0.000274  4.271707  0.0
C  C43  1  0.39805521  0.67380107  0.22938724  1  0.393605  0.000789  0.10298  0.015331  0.000341  3.901263  0.0
C  C44  1  0.60195741  0.32619670  0.77061122  1  0.393692  0.000789  0.102939  0.015383  0.000341  3.901261  0.0
C  C45  1  0.45085610  0.56184728  0.30291261  1  0.437437  -0.000419  0.093714  -0.000813  -0.001566  3.931417  -0.001
C  C46  1  0.54915511  0.43815044  0.69708520  1  0.437539  -0.000419  0.09366  -0.000944  -0.001566  3.931249  -0.001
C  C47  1  0.27018291  0.76711677  0.36975172  1  0.996521  -0.000111  0.163282  0.176296  -0.00083  3.927004  0.001
C  C48  1  0.72981570  0.23287605  0.63024484  1  0.996723  -0.000111  0.16335  0.176425  -0.000831  3.926781  0.001
C  C49  1  0.58276541  0.40355088  0.30883806  1  1.63  -0.001698  0.221419  0.603187  -0.001826  4.203988  -0.002
C  C50  1  0.41723394  0.59644787  0.69116381  1  1.629983  -0.001697  0.221407  0.603234  -0.001825  4.203807  -0.002
N  N51  1  0.73507461  0.62376282  0.48044233  1  -1.189388  0.07069  -0.587164  -0.577208  0.041196  3.446288  0.059
N  N52  1  0.26492680  0.37623827  0.51955929  1  -1.189315  0.070689  -0.587224  -0.577348  0.041196  3.446264  0.059
N  N53  1  0.28450525  0.80031800  0.27423633  1  -1.245858  0.003021  -0.357483  -0.211621  0.001273  3.677557  0.002
N  N54  1  0.71550113  0.19967278  0.72576499  1  -1.246137  0.003021  -0.357418  -0.211588  0.001274  3.677333  0.002
N  N55  1  0.37011525  0.62346624  0.38899535  1  -1.183259  0.059245  -0.362956  -0.323142  0.035587  3.637371  0.051
N  N56  1  0.62989211  0.37653024  0.61100201  1  -1.183309  0.059245  -0.362972  -0.3231  0.035587  3.63719  0.051
O  O57  1  0.23217359  0.34406407  0.22818805  1  -1.176003  -0.000299  -0.375456  -0.612452  -0.000392  2.211678  0.0
O  O58  1  0.76781892  0.65593797  0.77181250  1  -1.176089  -0.000299  -0.375426  -0.612409  -0.000392  2.211574  0.0
O  O59  1  0.15548437  0.46703545  0.08797321  1  -1.223049  -0.000293  -0.349341  -0.617875  -0.000334  2.256024  0.0
O  O60  1  0.84451115  0.53296202  0.91202677  1  -1.223046  -0.000293  -0.349361  -0.617867  -0.000334  2.256008  0.0
O  O61  1  0.50279204  0.05701514  0.22896681  1  -1.178329  -0.000399  -0.354931  -0.60124  -0.000479  2.195273  0.0
O  O62  1  0.49719109  0.94298909  0.77103617  1  -1.178001  -0.000399  -0.354968  -0.601402  -0.000479  2.195253  0.0
O  O63  1  0.73251405  0.01295833  0.10603874  1  -1.195079  -0.000248  -0.374314  -0.631811  -0.000299  2.239868  0.0
O  O64  1  0.26747252  0.98704832  0.89396608  1  -1.195271  -0.000248  -0.374365  -0.631977  -0.000299  2.239563  0.0
O  O65  1  0.52011051  0.56531467  0.07899911  1  -1.19059  0.000391  -0.374805  -0.664754  0.000231  2.351176  0.0
O  O66  1  0.47989304  0.43468870  0.92099942  1  -1.190613  0.000391  -0.374846  -0.664812  0.000231  2.35121  0.0
O  O67  1  0.41203973  0.81836844  0.08259038  1  -1.187605  0.001232  -0.333494  -0.612784  0.000668  2.272681  0.001
O  O68  1  0.58796488  0.18163606  0.91740661  1  -1.187784  0.001232  -0.333488  -0.612836  0.000668  2.272789  0.001
O  O69  1  0.64899654  0.33244614  0.23456073  1  -1.190016  0.007288  -0.386885  -0.614777  0.003782  2.289555  0.006
O  O70  1  0.35100740  0.66754343  0.76544006  1  -1.189963  0.007287  -0.386848  -0.614722  0.003782  2.289629  0.006
O  O71  1  0.62334033  0.35111418  0.39443879  1  -1.1285  0.080644  -0.324525  -0.537937  0.045904  2.240328  0.074
O  O72  1  0.37666482  0.64888457  0.60555852  1  -1.128453  0.080652  -0.324519  -0.537987  0.045909  2.240182  0.074
O  O73  1  0.26158243  0.12438400  0.05710544  1  -1.260554  4e-05  -0.611124  -0.832151  1.3e-05  2.03934  0.0
O  O74  1  0.73841379  0.87561127  0.94289821  1  -1.260568  4e-05  -0.611062  -0.832125  1.3e-05  2.039292  0.0
O  O75  1  0.84729571  0.29368967  0.03844629  1  -1.294023  9.3e-05  -0.644951  -0.847799  2.5e-05  2.056271  0.0
O  O76  1  0.15269849  0.70630766  0.96154948  1  -1.293816  9.3e-05  -0.644918  -0.847718  2.5e-05  2.056265  0.0
