# generated using pymatgen
data_KVH12C7N2O9
_symmetry_space_group_name_H-M   'P 1'
_cell_length_a   6.85173019
_cell_length_b   8.26147471
_cell_length_c   23.10480051
_cell_angle_alpha   89.99982316
_cell_angle_beta   98.13382963
_cell_angle_gamma   90.00034779
_symmetry_Int_Tables_number   1
_chemical_formula_structural   KVH12C7N2O9
_chemical_formula_sum   'K4 V4 H48 C28 N8 O36'
_cell_volume   1294.69972219
_cell_formula_units_Z   4
loop_
 _symmetry_equiv_pos_site_id
 _symmetry_equiv_pos_as_xyz
  1  'x, y, z'
loop_
 _atom_site_type_symbol
 _atom_site_label
 _atom_site_symmetry_multiplicity
 _atom_site_fract_x
 _atom_site_fract_y
 _atom_site_fract_z
 _atom_site_occupancy
 _atom_site_hle17_bader_spin_density
 _atom_site_hle17_ddec_charge
 _atom_site_hle17_ddec_spin_density
 _atom_site_hle17_ddec_sum_bond_order
 _atom_site_hle17_magmom
 _atom_site_hse06_10hf_bader_spin_density
 _atom_site_hse06_10hf_ddec_charge
 _atom_site_hse06_10hf_ddec_spin_density
 _atom_site_hse06_10hf_ddec_sum_bond_order
 _atom_site_hse06_10hf_magmom
 _atom_site_hse06_bader_spin_density
 _atom_site_hse06_ddec_charge
 _atom_site_hse06_ddec_spin_density
 _atom_site_hse06_ddec_sum_bond_order
 _atom_site_hse06_magmom
 _atom_site_pbe_bader_spin_density
 _atom_site_pbe_cm5_charge
 _atom_site_pbe_ddec_charge
 _atom_site_pbe_ddec_spin_density
 _atom_site_pbe_ddec_sum_bond_order
 _atom_site_pbe_magmom
K  K0  1  0.62292112  0.17110100  0.18478175  1  0  0.932646  0  0.464432  0  0  0.895079  0  0.641921  0  0  0.910742  0  0.61854  0  0  0.786351  0.882755  0  0.659401  0
K  K1  1  0.87707854  0.67109778  0.31522051  1  0  0.932636  0  0.464461  0  0  0.895031  0  0.642021  0  0  0.910722  0  0.618588  0  0  0.786371  0.8827  0  0.659504  0
K  K2  1  0.37706743  0.82889906  0.81521991  1  0  0.932635  0  0.464438  0  0  0.895035  0  0.641977  0  0  0.910703  0  0.618577  0  0  0.786363  0.88272  0  0.65944  0
K  K3  1  0.12292905  0.32889502  0.68477757  1  0  0.93264  0  0.46444  0  0  0.895031  0  0.641978  0  0  0.910702  0  0.618578  0  0  0.786355  0.882725  0  0.659437  0
V  V4  1  0.07779494  0.83851324  0.15786483  1  0  1.731777  0  2.904284  0  0  1.758201  0  3.281465  0  0  1.842375  0  3.27334  0  0  1.495073  1.701101  0  3.28812  0
V  V5  1  0.42220673  0.33852027  0.34213442  1  0  1.731743  0  2.904311  0  0  1.758215  0  3.281459  0  0  1.842392  0  3.273332  0  0  1.4951  1.701103  0  3.28816  0
V  V6  1  0.92220955  0.16149166  0.84212751  1  0  1.73197  0  2.904296  0  0  1.758366  0  3.28149  0  0  1.842546  0  3.273355  0  0  1.495161  1.701269  0  3.288181  0
V  V7  1  0.57779064  0.66149190  0.65786673  1  0  1.731836  0  2.904203  0  0  1.758244  0  3.281387  0  0  1.842423  0  3.27326  0  0  1.495147  1.701176  0  3.288068  0
H  H8  1  0.35694679  0.59665000  0.24213801  1  0  0.131683  0  0.941068  0  0  0.139199  0  1.009875  0  0  0.143167  0  1.00604  0  0  0.132058  0.136484  0  1.012398  0
H  H9  1  0.14305180  0.09666237  0.25786224  1  0  0.131655  0  0.941125  0  0  0.139197  0  1.009885  0  0  0.143168  0  1.006047  0  0  0.132042  0.136479  0  1.012411  0
H  H10  1  0.64304025  0.40335370  0.75786229  1  0  0.131626  0  0.9411  0  0  0.139187  0  1.009852  0  0  0.143158  0  1.006009  0  0  0.132069  0.136474  0  1.012364  0
H  H11  1  0.85693670  0.90334859  0.74213769  1  0  0.131668  0  0.941026  0  0  0.139159  0  1.009857  0  0  0.14313  0  1.006016  0  0  0.132029  0.136443  0  1.012377  0
H  H12  1  0.54190381  0.55285582  0.19790623  1  0  0.116664  0  0.90769  0  0  0.132601  0  0.962036  0  0  0.135484  0  0.959953  0  0  0.128692  0.130481  0  0.963643  0
H  H13  1  0.95810087  0.05286096  0.30209333  1  0  0.116688  0  0.907559  0  0  0.132642  0  0.961891  0  0  0.135523  0  0.95981  0  0  0.128712  0.130521  0  0.963502  0
H  H14  1  0.45809503  0.44714424  0.80209497  1  0  0.116726  0  0.907604  0  0  0.132635  0  0.961988  0  0  0.135519  0  0.9599  0  0  0.128725  0.130515  0  0.963594  0
H  H15  1  0.04189648  0.94714636  0.69790695  1  0  0.116672  0  0.907543  0  0  0.132585  0  0.961922  0  0  0.13547  0  0.959833  0  0  0.128676  0.130461  0  0.963531  0
H  H16  1  0.09445007  0.93922548  0.95510265  1  0  0.354731  0  0.882899  0  0  0.331448  0  0.951937  0  0  0.341453  0  0.941862  0  0  0.309908  0.324296  0  0.959231  0
H  H17  1  0.40554577  0.43921565  0.54489816  1  0  0.354809  0  0.882887  0  0  0.331524  0  0.951916  0  0  0.341529  0  0.941838  0  0  0.309947  0.324369  0  0.959219  0
H  H18  1  0.90554580  0.06077095  0.04489757  1  0  0.35472  0  0.882886  0  0  0.331435  0  0.951941  0  0  0.341441  0  0.941865  0  0  0.309895  0.324281  0  0.959242  0
H  H19  1  0.59445452  0.56078199  0.45510224  1  0  0.354788  0  0.882927  0  0  0.33151  0  0.951939  0  0  0.341514  0  0.941863  0  0  0.309945  0.324355  0  0.959239  0
H  H20  1  0.16472714  0.74398215  0.93634630  1  0  0.344278  0  0.933883  0  0  0.322479  0  1.002999  0  0  0.33137  0  0.995911  0  0  0.302145  0.316213  0  1.008016  0
H  H21  1  0.33527329  0.24396695  0.56365490  1  0  0.34429  0  0.933922  0  0  0.322611  0  1.002875  0  0  0.331501  0  0.995785  0  0  0.302167  0.316346  0  1.007895  0
H  H22  1  0.83526872  0.25601670  0.06365349  1  0  0.344204  0  0.933997  0  0  0.322439  0  1.003058  0  0  0.331331  0  0.99597  0  0  0.302148  0.316173  0  1.008076  0
H  H23  1  0.66472703  0.75602706  0.43634636  1  0  0.344329  0  0.933873  0  0  0.322517  0  1.002997  0  0  0.331409  0  0.995908  0  0  0.302129  0.316251  0  1.008017  0
H  H24  1  0.11044338  0.45940407  0.20166823  1  0  0.133818  0  0.93173  0  0  0.149474  0  0.987532  0  0  0.152345  0  0.985468  0  0  0.134095  0.147419  0  0.989044  0
H  H25  1  0.38955759  0.95941195  0.29832912  1  0  0.133826  0  0.931657  0  0  0.149529  0  0.98743  0  0  0.152389  0  0.985392  0  0  0.134129  0.147478  0  0.98893  0
H  H26  1  0.88955102  0.54059842  0.79833193  1  0  0.133794  0  0.931788  0  0  0.149432  0  0.987606  0  0  0.15232  0  0.985518  0  0  0.134083  0.147377  0  0.989114  0
H  H27  1  0.61044112  0.04059296  0.70166731  1  0  0.133831  0  0.931725  0  0  0.149483  0  0.987506  0  0  0.152356  0  0.985434  0  0  0.134096  0.147428  0  0.98901  0
H  H28  1  0.17471386  0.36699486  0.13745982  1  0  0.127234  0  0.918824  0  0  0.141072  0  0.976  0  0  0.144016  0  0.973854  0  0  0.122667  0.138857  0  0.977684  0
H  H29  1  0.32528945  0.86699459  0.36253816  1  0  0.127191  0  0.918808  0  0  0.141052  0  0.975991  0  0  0.143999  0  0.973843  0  0  0.122664  0.138836  0  0.977675  0
H  H30  1  0.82528056  0.63300883  0.86254077  1  0  0.127245  0  0.918752  0  0  0.141046  0  0.975978  0  0  0.143993  0  0.973827  0  0  0.122681  0.138832  0  0.977659  0
H  H31  1  0.67470777  0.13300790  0.63745778  1  0  0.127264  0  0.918779  0  0  0.141075  0  0.975954  0  0  0.144022  0  0.973802  0  0  0.12269  0.138861  0  0.977636  0
H  H32  1  0.47398678  0.69589228  0.10082188  1  0  0.093819  0  0.907619  0  0  0.11038  0  0.962781  0  0  0.112432  0  0.96089  0  0  0.117915  0.108736  0  0.964368  0
H  H33  1  0.02601698  0.19589071  0.39918106  1  0  0.093867  0  0.907597  0  0  0.110433  0  0.962745  0  0  0.112487  0  0.960852  0  0  0.117935  0.108788  0  0.96433  0
H  H34  1  0.52601649  0.30410052  0.89917950  1  0  0.093848  0  0.907611  0  0  0.110408  0  0.962769  0  0  0.112464  0  0.960869  0  0  0.117949  0.108764  0  0.964354  0
H  H35  1  0.97398485  0.80410330  0.60082155  1  0  0.093841  0  0.90759  0  0  0.110408  0  0.962749  0  0  0.112462  0  0.960853  0  0  0.117963  0.108764  0  0.964329  0
H  H36  1  0.43759806  0.48450015  0.10067164  1  0  0.083796  0  0.943374  0  0  0.095666  0  1.011575  0  0  0.097488  0  1.009989  0  0  0.110343  0.094276  0  1.012779  0
H  H37  1  0.06240462  0.98449577  0.39932835  1  0  0.083868  0  0.943424  0  0  0.095727  0  1.01163  0  0  0.097551  0  1.010042  0  0  0.110361  0.094334  0  1.012838  0
H  H38  1  0.56240373  0.51549750  0.89932968  1  0  0.083809  0  0.943434  0  0  0.095668  0  1.011647  0  0  0.097493  0  1.010052  0  0  0.110368  0.094285  0  1.012839  0
H  H39  1  0.93760012  0.01549703  0.60067308  1  0  0.083821  0  0.943399  0  0  0.095687  0  1.011615  0  0  0.097512  0  1.010024  0  0  0.110363  0.094302  0  1.012806  0
H  H40  1  0.09441609  0.53784836  0.03956487  1  0  0.114094  0  0.939768  0  0  0.13176  0  0.995697  0  0  0.133429  0  0.995757  0  0  0.111376  0.130524  0  0.995802  0
H  H41  1  0.40558795  0.03783974  0.46043392  1  0  0.114155  0  0.93971  0  0  0.131821  0  0.995604  0  0  0.13349  0  0.995674  0  0  0.111432  0.130583  0  0.995709  0
H  H42  1  0.90558858  0.46214929  0.96043396  1  0  0.114165  0  0.939734  0  0  0.131836  0  0.995622  0  0  0.133509  0  0.995684  0  0  0.111456  0.130596  0  0.995728  0
H  H43  1  0.59441968  0.96215670  0.53956546  1  0  0.114129  0  0.939713  0  0  0.13179  0  0.995627  0  0  0.133458  0  0.99569  0  0  0.11141  0.130549  0  0.995734  0
H  H44  1  0.30447657  0.56125528  0.00520138  1  0  0.120906  0  0.913043  0  0  0.140679  0  0.961288  0  0  0.143237  0  0.960295  0  0  0.113262  0.138726  0  0.962276  0
H  H45  1  0.19552770  0.06124407  0.49479999  1  0  0.120897  0  0.913022  0  0  0.140655  0  0.961291  0  0  0.143233  0  0.960277  0  0  0.113217  0.138701  0  0.962274  0
H  H46  1  0.69553402  0.43874599  0.99479855  1  0  0.12097  0  0.912986  0  0  0.140726  0  0.961244  0  0  0.143286  0  0.960258  0  0  0.113287  0.13877  0  0.962231  0
H  H47  1  0.80447556  0.93875115  0.50520138  1  0  0.120885  0  0.913041  0  0  0.14065  0  0.961294  0  0  0.143213  0  0.960294  0  0  0.113237  0.138694  0  0.96228  0
H  H48  1  0.43913186  0.16453330  0.04525355  1  0  0.402761  0  0.854026  0  0  0.388627  0  0.908737  0  0  0.396287  0  0.89773  0  0  0.307797  0.38315  0  0.915263  0
H  H49  1  0.06088475  0.66453328  0.45474258  1  0  0.4029  0  0.854181  0  0  0.388761  0  0.908837  0  0  0.396418  0  0.897646  0  0  0.307888  0.383283  0  0.915408  0
H  H50  1  0.56088452  0.83546555  0.95474272  1  0  0.40295  0  0.854047  0  0  0.388788  0  0.908789  0  0  0.396451  0  0.897591  0  0  0.30789  0.38331  0  0.915328  0
H  H51  1  0.93911389  0.33546073  0.54525126  1  0  0.402998  0  0.854024  0  0  0.388836  0  0.908718  0  0  0.396497  0  0.897523  0  0  0.307956  0.383359  0  0.915282  0
H  H52  1  0.27690087  0.09241850  0.07816587  1  0  0.42468  0  0.871121  0  0  0.391873  0  0.938983  0  0  0.40246  0  0.923139  0  0  0.293379  0.384371  0  0.95019  0
H  H53  1  0.22310945  0.59240386  0.42183355  1  0  0.424654  0  0.871116  0  0  0.391826  0  0.939023  0  0  0.402414  0  0.923181  0  0  0.293317  0.384322  0  0.950233  0
H  H54  1  0.72311121  0.90759488  0.92183456  1  0  0.424659  0  0.871141  0  0  0.391829  0  0.93905  0  0  0.402417  0  0.923208  0  0  0.293333  0.384326  0  0.950257  0
H  H55  1  0.77689809  0.40758894  0.57816280  1  0  0.424649  0  0.871144  0  0  0.391842  0  0.939009  0  0  0.402428  0  0.923167  0  0  0.293357  0.384342  0  0.950214  0
C  C56  1  0.41483015  0.63135720  0.20195804  1  0  -0.197057  0  3.630009  0  0  -0.252587  0  3.883394  0  0  -0.253471  0  3.888304  0  0  -0.066181  -0.251759  0  3.879862  0
C  C57  1  0.08517609  0.13136166  0.29804377  1  0  -0.19706  0  3.629923  0  0  -0.252599  0  3.883337  0  0  -0.253481  0  3.888247  0  0  -0.066175  -0.251783  0  3.879798  0
C  C58  1  0.58516721  0.36864286  0.79804267  1  0  -0.197125  0  3.629988  0  0  -0.252673  0  3.883373  0  0  -0.253548  0  3.888283  0  0  -0.066249  -0.25184  0  3.87984  0
C  C59  1  0.91482575  0.86864324  0.70195928  1  0  -0.196927  0  3.629827  0  0  -0.252507  0  3.883254  0  0  -0.253387  0  3.888159  0  0  -0.066147  -0.25167  0  3.879727  0
C  C60  1  0.47935918  0.80702937  0.20838412  1  0  0.69213  0  3.845892  0  0  0.651781  0  4.152124  0  0  0.687188  0  4.140078  0  0  0.203637  0.627704  0  4.159514  0
C  C61  1  0.02064835  0.30703718  0.29162145  1  0  0.692175  0  3.84593  0  0  0.651784  0  4.152229  0  0  0.687191  0  4.140185  0  0  0.20358  0.627708  0  4.159618  0
C  C62  1  0.52063961  0.19297433  0.79161491  1  0  0.692121  0  3.845858  0  0  0.651765  0  4.152121  0  0  0.687175  0  4.140064  0  0  0.203627  0.627686  0  4.159515  0
C  C63  1  0.97935056  0.69297257  0.70838192  1  0  0.692057  0  3.845896  0  0  0.651802  0  4.151975  0  0  0.687211  0  4.139924  0  0  0.203684  0.62773  0  4.159361  0
C  C64  1  0.12258217  0.47968518  0.15538398  1  0  -0.202002  0  3.617675  0  0  -0.256946  0  3.867065  0  0  -0.258262  0  3.873257  0  0  -0.068718  -0.255869  0  3.862853  0
C  C65  1  0.37741752  0.97968776  0.34461503  1  0  -0.20198  0  3.617412  0  0  -0.257011  0  3.867013  0  0  -0.25833  0  3.873208  0  0  -0.068765  -0.255942  0  3.86279  0
C  C66  1  0.87741222  0.52031367  0.84461574  1  0  -0.202094  0  3.617896  0  0  -0.256997  0  3.867301  0  0  -0.258313  0  3.873488  0  0  -0.068762  -0.255919  0  3.863088  0
C  C67  1  0.62258125  0.02031352  0.65538314  1  0  -0.20213  0  3.617785  0  0  -0.256966  0  3.867086  0  0  -0.258281  0  3.873281  0  0  -0.068751  -0.255875  0  3.862879  0
C  C68  1  0.91660124  0.52217372  0.12577902  1  0  0.692872  0  3.843875  0  0  0.650215  0  4.153658  0  0  0.685991  0  4.142239  0  0  0.219101  0.625941  0  4.160647  0
C  C69  1  0.58340325  0.02217630  0.37422143  1  0  0.693058  0  3.843661  0  0  0.650304  0  4.15362  0  0  0.686087  0  4.142191  0  0  0.219127  0.626029  0  4.16061  0
C  C70  1  0.08338724  0.47782755  0.87422004  1  0  0.692882  0  3.843795  0  0  0.650192  0  4.153639  0  0  0.685964  0  4.142223  0  0  0.219094  0.62592  0  4.160625  0
C  C71  1  0.41660143  0.97782255  0.62577783  1  0  0.693091  0  3.843614  0  0  0.65031  0  4.153556  0  0  0.686093  0  4.142125  0  0  0.219193  0.626039  0  4.160541  0
C  C72  1  0.36030290  0.60143065  0.09800144  1  0  0.002327  0  3.605575  0  0  -0.054392  0  3.871116  0  0  -0.049892  0  3.881357  0  0  -0.067507  -0.057186  0  3.864068  0
C  C73  1  0.13970011  0.10142844  0.40199725  1  0  0.002125  0  3.605824  0  0  -0.054567  0  3.871336  0  0  -0.050059  0  3.881575  0  0  -0.067594  -0.057375  0  3.864274  0
C  C74  1  0.63969589  0.39856699  0.90199760  1  0  0.002244  0  3.605701  0  0  -0.054487  0  3.871225  0  0  -0.049971  0  3.881464  0  0  -0.067562  -0.057283  0  3.864175  0
C  C75  1  0.86030170  0.89856557  0.59800450  1  0  0.002271  0  3.605693  0  0  -0.054487  0  3.871253  0  0  -0.049981  0  3.881485  0  0  -0.067599  -0.057277  0  3.864208  0
C  C76  1  0.22729353  0.61242376  0.03959062  1  0  -0.278472  0  3.666466  0  0  -0.318961  0  3.913217  0  0  -0.324883  0  3.921298  0  0  -0.154863  -0.314871  0  3.907658  0
C  C77  1  0.27270957  0.11241325  0.46040892  1  0  -0.278585  0  3.666177  0  0  -0.319071  0  3.912964  0  0  -0.325018  0  3.921059  0  0  -0.154844  -0.314971  0  3.907397  0
C  C78  1  0.77271262  0.38757509  0.96040827  1  0  -0.278677  0  3.666407  0  0  -0.31915  0  3.913215  0  0  -0.325092  0  3.921317  0  0  -0.154989  -0.315047  0  3.907649  0
C  C79  1  0.72729810  0.88758076  0.53959177  1  0  -0.27851  0  3.666192  0  0  -0.318968  0  3.912976  0  0  -0.324892  0  3.921051  0  0  -0.154851  -0.314861  0  3.907396  0
C  C80  1  0.16536313  0.78428282  0.02430910  1  0  0.679777  0  3.767938  0  0  0.639207  0  4.053576  0  0  0.670036  0  4.050839  0  0  0.25101  0.618363  0  4.054678  0
C  C81  1  0.33464268  0.28427249  0.47569339  1  0  0.680152  0  3.767502  0  0  0.639567  0  4.053162  0  0  0.670403  0  4.050419  0  0  0.251066  0.618721  0  4.054266  0
C  C82  1  0.83464006  0.21571604  0.97568967  1  0  0.679843  0  3.767894  0  0  0.639198  0  4.053624  0  0  0.670036  0  4.050885  0  0  0.250974  0.618358  0  4.054718  0
C  C83  1  0.66536358  0.71572152  0.52430983  1  0  0.679939  0  3.767707  0  0  0.639317  0  4.05341  0  0  0.670147  0  4.050671  0  0  0.250984  0.618473  0  4.054508  0
N  N84  1  0.25885819  0.61682814  0.15080616  1  0  -0.194874  0  3.285  0  0  -0.133706  0  3.546973  0  0  -0.154442  0  3.577912  0  0  -0.367719  -0.11981  0  3.525458  0
N  N85  1  0.24114498  0.11682933  0.34919511  1  0  -0.194749  0  3.285212  0  0  -0.13362  0  3.547235  0  0  -0.15437  0  3.578221  0  0  -0.367634  -0.119678  0  3.525667  0
N  N86  1  0.74113768  0.38317192  0.84919406  1  0  -0.194665  0  3.285045  0  0  -0.133425  0  3.54677  0  0  -0.154235  0  3.577916  0  0  -0.367618  -0.119539  0  3.525269  0
N  N87  1  0.75885681  0.88316953  0.65080620  1  0  -0.194894  0  3.285183  0  0  -0.133637  0  3.546904  0  0  -0.154419  0  3.577994  0  0  -0.367693  -0.119793  0  3.52545  0
N  N88  1  0.14789509  0.82761353  0.96854967  1  0  -0.674971  0  3.105618  0  0  -0.634801  0  3.338338  0  0  -0.656353  0  3.329247  0  0  -0.557576  -0.62023  0  3.34465  0
N  N89  1  0.35210879  0.32759991  0.53144941  1  0  -0.675207  0  3.105883  0  0  -0.635141  0  3.338503  0  0  -0.656689  0  3.329399  0  0  -0.557695  -0.620574  0  3.344822  0
N  N90  1  0.85210221  0.17238291  0.03144887  1  0  -0.674898  0  3.105664  0  0  -0.634737  0  3.338381  0  0  -0.656286  0  3.329283  0  0  -0.557556  -0.620167  0  3.344696  0
N  N91  1  0.64789446  0.67239290  0.46855110  1  0  -0.675175  0  3.105749  0  0  -0.634978  0  3.338519  0  0  -0.656526  0  3.329419  0  0  -0.557631  -0.620412  0  3.344839  0
O  O92  1  0.36071770  0.91115588  0.17877322  1  0  -0.700153  0  2.089309  0  0  -0.673914  0  2.353797  0  0  -0.70598  0  2.35043  0  0  -0.420617  -0.651758  0  2.355492  0
O  O93  1  0.13928022  0.41115800  0.32123229  1  0  -0.700106  0  2.089545  0  0  -0.67385  0  2.354044  0  0  -0.705918  0  2.35068  0  0  -0.420583  -0.651698  0  2.355746  0
O  O94  1  0.63928551  0.08884298  0.82122599  1  0  -0.700204  0  2.089159  0  0  -0.673964  0  2.353637  0  0  -0.706027  0  2.350261  0  0  -0.420621  -0.651815  0  2.355342  0
O  O95  1  0.86071732  0.58884933  0.67877491  1  0  -0.700059  0  2.089451  0  0  -0.67384  0  2.353895  0  0  -0.705903  0  2.350527  0  0  -0.420603  -0.651703  0  2.355602  0
O  O96  1  0.63074276  0.84842537  0.24089345  1  0  -0.619668  0  1.938559  0  0  -0.585884  0  2.174536  0  0  -0.608241  0  2.164328  0  0  -0.400418  -0.569906  0  2.18089  0
O  O97  1  0.86925665  0.34843648  0.25910947  1  0  -0.619793  0  1.938461  0  0  -0.586006  0  2.174476  0  0  -0.608367  0  2.164272  0  0  -0.400468  -0.570028  0  2.180828  0
O  O98  1  0.36925898  0.15157348  0.75910570  1  0  -0.619634  0  1.938654  0  0  -0.585851  0  2.174626  0  0  -0.608208  0  2.164418  0  0  -0.400398  -0.569878  0  2.180979  0
O  O99  1  0.13074523  0.65156479  0.74089488  1  0  -0.61977  0  1.938297  0  0  -0.586021  0  2.174234  0  0  -0.608382  0  2.164028  0  0  -0.400498  -0.570048  0  2.180587  0
O  O100  1  0.88077169  0.67492484  0.11769455  1  0  -0.633944  0  2.027389  0  0  -0.609492  0  2.281952  0  0  -0.64074  0  2.278136  0  0  -0.353191  -0.588166  0  2.284035  0
O  O101  1  0.61922795  0.17493117  0.38230598  1  0  -0.634081  0  2.027309  0  0  -0.60959  0  2.281912  0  0  -0.640838  0  2.278089  0  0  -0.353234  -0.588267  0  2.284001  0
O  O102  1  0.11922419  0.32507159  0.88230610  1  0  -0.634045  0  2.027242  0  0  -0.609616  0  2.281848  0  0  -0.640857  0  2.278025  0  0  -0.353271  -0.588294  0  2.283938  0
O  O103  1  0.38076935  0.82506406  0.61769256  1  0  -0.634103  0  2.027237  0  0  -0.60963  0  2.281873  0  0  -0.640878  0  2.278051  0  0  -0.353284  -0.588319  0  2.283966  0
O  O104  1  0.79101599  0.41421453  0.11118017  1  0  -0.623148  0  1.949737  0  0  -0.582174  0  2.1815  0  0  -0.605653  0  2.171316  0  0  -0.337716  -0.565614  0  2.187973  0
O  O105  1  0.70898672  0.91421827  0.38881935  1  0  -0.623247  0  1.949836  0  0  -0.582211  0  2.18167  0  0  -0.605695  0  2.171486  0  0  -0.337723  -0.56565  0  2.188141  0
O  O106  1  0.20897693  0.58578675  0.88881950  1  0  -0.623144  0  1.94975  0  0  -0.582112  0  2.181488  0  0  -0.605589  0  2.171307  0  0  -0.337675  -0.565558  0  2.187965  0
O  O107  1  0.29100913  0.08577938  0.61118000  1  0  -0.623211  0  1.949773  0  0  -0.582245  0  2.181642  0  0  -0.605727  0  2.171459  0  0  -0.337763  -0.565689  0  2.188113  0
O  O108  1  0.13682486  0.88356145  0.06411587  1  0  -0.664956  0  2.087149  0  0  -0.619344  0  2.329068  0  0  -0.646145  0  2.32201  0  0  -0.318317  -0.600803  0  2.333246  0
O  O109  1  0.36317865  0.38355041  0.43588557  1  0  -0.665196  0  2.086932  0  0  -0.619519  0  2.328787  0  0  -0.646322  0  2.32171  0  0  -0.318325  -0.600976  0  2.33296  0
O  O110  1  0.86317836  0.11643619  0.93588378  1  0  -0.665004  0  2.087127  0  0  -0.61928  0  2.328956  0  0  -0.646086  0  2.321898  0  0  -0.318263  -0.600749  0  2.333147  0
O  O111  1  0.63682609  0.61644118  0.56411587  1  0  -0.664976  0  2.086996  0  0  -0.619339  0  2.32894  0  0  -0.646131  0  2.321858  0  0  -0.318265  -0.600808  0  2.333125  0
O  O112  1  0.05456472  0.78401294  0.22396994  1  0  -0.71204  0  1.384322  0  0  -0.729816  0  1.649594  0  0  -0.756125  0  1.647812  0  0  -0.634176  -0.713445  0  1.651236  0
O  O113  1  0.44543517  0.28401824  0.27603145  1  0  -0.712001  0  1.384433  0  0  -0.729779  0  1.649663  0  0  -0.756086  0  1.647889  0  0  -0.634166  -0.713415  0  1.651324  0
O  O114  1  0.94543709  0.21598712  0.77603224  1  0  -0.71208  0  1.384706  0  0  -0.729818  0  1.649941  0  0  -0.756129  0  1.648173  0  0  -0.634275  -0.713449  0  1.651592  0
O  O115  1  0.55455334  0.71598545  0.72396890  1  0  -0.71204  0  1.384401  0  0  -0.729811  0  1.649672  0  0  -0.756115  0  1.647884  0  0  -0.634221  -0.713446  0  1.651329  0
O  O116  1  0.86570627  0.97583832  0.13329580  1  0  -0.444591  0  1.709276  0  0  -0.43917  0  1.981514  0  0  -0.456746  0  1.979706  0  0  -0.410606  -0.426093  0  1.981807  0
O  O117  1  0.63429403  0.47584607  0.36670789  1  0  -0.444584  0  1.70933  0  0  -0.43914  0  1.98156  0  0  -0.456722  0  1.979754  0  0  -0.410613  -0.426056  0  1.981849  0
O  O118  1  0.13429551  0.02416658  0.86670509  1  0  -0.444543  0  1.709221  0  0  -0.439135  0  1.981451  0  0  -0.456712  0  1.979642  0  0  -0.410614  -0.426064  0  1.981746  0
O  O119  1  0.36570330  0.52416125  0.63329152  1  0  -0.444673  0  1.709271  0  0  -0.439168  0  1.981461  0  0  -0.456747  0  1.979655  0  0  -0.410627  -0.426097  0  1.981763  0
O  O120  1  0.04314786  0.06338400  0.15539207  1  0  -0.406683  0  1.663552  0  0  -0.389356  0  1.922901  0  0  -0.40761  0  1.923087  0  0  -0.34622  -0.375957  0  1.921769  0
O  O121  1  0.45685357  0.56338940  0.34461222  1  0  -0.406631  0  1.663498  0  0  -0.389339  0  1.922846  0  0  -0.407592  0  1.92303  0  0  -0.346254  -0.375946  0  1.92172  0
O  O122  1  0.95686415  0.93661485  0.84460575  1  0  -0.406767  0  1.663485  0  0  -0.389407  0  1.922792  0  0  -0.407652  0  1.922965  0  0  -0.346237  -0.376006  0  1.921662  0
O  O123  1  0.54313795  0.43661792  0.65539043  1  0  -0.406551  0  1.663425  0  0  -0.389298  0  1.922811  0  0  -0.407556  0  1.923  0  0  -0.346211  -0.375912  0  1.921694  0
O  O124  1  0.36577862  0.18581368  0.07752084  1  0  -0.827408  0  1.761804  0  0  -0.78918  0  1.917877  0  0  -0.804943  0  1.890072  0  0  -0.634952  -0.777888  0  1.936107  0
O  O125  1  0.13421473  0.68580947  0.42248127  1  0  -0.827514  0  1.761888  0  0  -0.789266  0  1.91789  0  0  -0.805039  0  1.889919  0  0  -0.635002  -0.777974  0  1.936167  0
O  O126  1  0.63422023  0.81419123  0.92248079  1  0  -0.82758  0  1.761778  0  0  -0.789326  0  1.917861  0  0  -0.805092  0  1.889863  0  0  -0.635014  -0.778036  0  1.936107  0
O  O127  1  0.86578109  0.31418817  0.57751722  1  0  -0.827619  0  1.761821  0  0  -0.789349  0  1.917874  0  0  -0.805114  0  1.88988  0  0  -0.635082  -0.778059  0  1.936143  0
