# generated using pymatgen
data_Cu5H24C38N18(O7F3)2
_symmetry_space_group_name_H-M   'P 1'
_cell_length_a   7.26998177
_cell_length_b   12.35763979
_cell_length_c   13.57017935
_cell_angle_alpha   99.79286206
_cell_angle_beta   102.03816554
_cell_angle_gamma   90.15208997
_symmetry_Int_Tables_number   1
_chemical_formula_structural   Cu5H24C38N18(O7F3)2
_chemical_formula_sum   'Cu5 H24 C38 N18 O14 F6'
_cell_volume   1174.03890605
_cell_formula_units_Z   1
loop_
 _symmetry_equiv_pos_site_id
 _symmetry_equiv_pos_as_xyz
  1  'x, y, z'
loop_
 _atom_site_type_symbol
 _atom_site_label
 _atom_site_symmetry_multiplicity
 _atom_site_fract_x
 _atom_site_fract_y
 _atom_site_fract_z
 _atom_site_occupancy
 _atom_site_hle17_ddec_charge
 _atom_site_hle17_ddec_spin_density
 _atom_site_hle17_ddec_sum_bond_order
 _atom_site_hle17_magmom
 _atom_site_hse06_10hf_ddec_charge
 _atom_site_hse06_10hf_ddec_spin_density
 _atom_site_hse06_10hf_ddec_sum_bond_order
 _atom_site_hse06_10hf_magmom
 _atom_site_hse06_ddec_charge
 _atom_site_hse06_ddec_spin_density
 _atom_site_hse06_ddec_sum_bond_order
 _atom_site_hse06_magmom
 _atom_site_pbe_cm5_charge
 _atom_site_pbe_ddec_charge
 _atom_site_pbe_ddec_spin_density
 _atom_site_pbe_ddec_sum_bond_order
 _atom_site_pbe_magmom
Cu  Cu0  1  0.21588937  0.97694456  0.22445156  1  0.872495  0.66328  1.788349  0.465  0.865317  0.767675  2.184042  0.601  0.972451  0.859213  2.091149  0.694  0.730694  0.805806  0.699127  2.236805  0.537
Cu  Cu1  1  0.78409296  0.02299423  0.77571522  1  0.871292  -0.65491  1.78729  -0.466  0.863862  -0.760544  2.184131  -0.599  0.970661  -0.842007  2.091411  -0.689  0.730078  0.804727  -0.701743  2.237006  -0.539
Cu  Cu2  1  0.99993270  0.99997293  0.99992493  1  0.946319  -0.657692  1.812192  -0.47  0.969502  -0.782835  2.198954  -0.62  1.05402  -0.869353  2.1424  -0.716  0.749364  0.914099  -0.714472  2.247793  -0.551
Cu  Cu3  1  0.99998214  0.50000015  0.49998007  1  0.807308  -0.592443  1.894978  -0.421  0.81051  -0.740598  2.278794  -0.582  0.896574  -0.83759  2.219661  -0.686  0.772286  0.760636  -0.638628  2.317341  -0.49
Cu  Cu4  1  0.49995055  0.49997949  0.49997183  1  0.898264  0.62592  1.828315  0.441  0.902759  0.786581  2.230806  0.619  1.000481  0.891205  2.159586  0.725  0.739775  0.842118  0.673844  2.281673  0.52
H  H5  1  0.32913948  0.88891151  0.06550422  1  0.372075  -5.2e-05  0.931102  0.0  0.347456  -3e-05  1.003446  0.0  0.35929  -5.3e-05  0.991456  0.0  0.289433  0.33922  -2e-06  1.011793  0.0
H  H6  1  0.67069342  0.11113464  0.93449261  1  0.372076  5.6e-05  0.931463  0.0  0.347594  6.5e-05  1.003504  0.0  0.359458  7.7e-05  0.991453  0.0  0.289497  0.339363  3.3e-05  1.011859  0.0
H  H7  1  0.29571558  0.68034381  0.34671802  1  0.095234  0.000219  0.952175  0.0  0.102324  0.000192  1.016724  0.0  0.105583  0.000122  1.013415  0.0  0.11552  0.100106  0.00024  1.019016  0.0
H  H8  1  0.70431627  0.31964492  0.65331444  1  0.095257  -0.000399  0.952138  0.0  0.102207  -0.000294  1.016848  0.0  0.105456  -0.000199  1.01356  0.0  0.115452  0.099984  -0.000386  1.019122  0.0
H  H9  1  0.39779126  0.57086426  0.04501245  1  0.139922  4.4e-05  0.950952  0.0  0.140491  1.9e-05  1.025413  0.0  0.145387  9e-06  1.019993  0.0  0.111734  0.137001  3e-05  1.029263  0.0
H  H10  1  0.60219344  0.42917948  0.95500641  1  0.139966  -2.1e-05  0.951019  0.0  0.140598  -1.1e-05  1.02545  0.0  0.145504  1e-06  1.020006  0.0  0.111728  0.137084  -3.1e-05  1.029331  0.0
H  H11  1  0.45958505  0.36018305  0.27322507  1  0.108945  -5e-06  0.937582  0.0  0.115222  -4.2e-05  1.001498  0.0  0.119154  -4.3e-05  0.998142  0.0  0.115663  0.112524  -4.5e-05  1.003719  0.0
H  H12  1  0.54036217  0.63979076  0.72673694  1  0.108947  -5.2e-05  0.937777  0.0  0.115223  -1.1e-05  1.001627  0.0  0.119166  -2.3e-05  0.998259  0.0  0.115627  0.112514  -5e-06  1.003867  0.0
H  H13  1  0.05828806  0.28954381  0.37112041  1  0.095034  -0.000462  0.957971  -0.001  0.101125  -0.000489  1.02701  -0.001  0.103344  -0.000383  1.024469  -0.001  0.123943  0.099249  -0.000531  1.029032  -0.001
H  H14  1  0.94179519  0.71049002  0.62885015  1  0.095348  -0.000806  0.958054  -0.001  0.101343  -0.000784  1.027118  -0.001  0.103551  -0.000579  1.024586  -0.001  0.124091  0.09948  -0.00089  1.029152  -0.001
H  H15  1  0.92751747  0.33554112  0.05637693  1  0.157216  -0.000272  0.920827  0.0  0.162883  -5.1e-05  0.983082  0.0  0.167501  -1.4e-05  0.978573  0.0  0.124453  0.15945  -0.000111  0.986541  0.0
H  H16  1  0.07242658  0.66448778  0.94361017  1  0.157437  -0.000381  0.920602  0.0  0.162822  -0.000126  0.983158  0.0  0.16743  -6.5e-05  0.978646  0.0  0.124448  0.159375  -0.000192  0.986653  0.0
H  H17  1  0.88805427  0.59637524  0.30693331  1  0.125147  -0.000656  0.915636  -0.001  0.134903  -0.000656  0.972827  -0.001  0.137677  -0.000483  0.970064  -0.001  0.134147  0.132516  -0.000701  0.975259  -0.001
H  H18  1  0.11187992  0.40365203  0.69306131  1  0.125285  -0.000845  0.915577  -0.001  0.135025  -0.000794  0.972766  -0.001  0.137784  -0.000596  0.970025  -0.001  0.134161  0.13265  -0.000888  0.975166  -0.001
H  H19  1  0.02120423  0.86056793  0.54466999  1  0.14069  -0.000389  0.936346  0.0  0.145752  -0.000177  1.005359  0.0  0.150194  -0.000115  1.000652  0.0  0.117204  0.142326  -0.000289  1.0089  0.0
H  H20  1  0.97875431  0.13944048  0.45535090  1  0.140555  -4e-05  0.936335  0.0  0.145576  -0.000199  1.005437  0.0  0.150015  -0.000173  1.000741  0.0  0.117219  0.142202  -0.000211  1.008992  0.0
H  H21  1  0.40384540  0.12452792  0.72305330  1  0.115743  -0.000686  0.945112  -0.001  0.119966  -0.000808  1.013272  -0.001  0.123535  -0.00059  1.009941  -0.001  0.125167  0.117266  -0.000979  1.015853  -0.001
H  H22  1  0.59622628  0.87545906  0.27690805  1  0.115942  0.000535  0.945059  0.001  0.120068  0.000651  1.013278  0.001  0.123637  0.000477  1.009944  0.001  0.125258  0.117316  0.000783  1.015938  0.001
H  H23  1  0.61657637  0.81721588  0.64150780  1  0.103087  -0.000399  0.970943  -0.001  0.105513  -0.000429  1.0436  -0.001  0.109497  -0.000302  1.039307  -0.001  0.119594  0.102565  -0.000539  1.046735  -0.002
H  H24  1  0.38337051  0.18273408  0.35843651  1  0.103308  0.000752  0.971046  0.001  0.105825  0.000694  1.043562  0.001  0.109792  0.000466  1.039278  0.001  0.119695  0.102883  0.000872  1.046701  0.002
H  H25  1  0.61047332  0.01014281  0.11110557  1  0.041244  4.6e-05  0.944264  0.0  0.054278  0.0001  1.013132  0.0  0.05529  8.9e-05  1.012974  0.0  0.088968  0.053902  6.1e-05  1.012989  0.0
H  H26  1  0.38940461  0.98978413  0.88883580  1  0.040931  7.7e-05  0.944535  0.0  0.054166  3.5e-05  1.013347  0.0  0.055203  3.3e-05  1.013174  0.0  0.088926  0.05384  4.8e-05  1.013138  0.0
H  H27  1  0.46261052  0.11148082  0.06114836  1  0.064261  -9.2e-05  0.901392  0.0  0.08182  -9e-05  0.955515  0.0  0.082856  -6.9e-05  0.954578  0.0  0.102623  0.081151  -0.000115  0.956184  0.0
H  H28  1  0.53738033  0.88849627  0.93880268  1  0.064732  2.4e-05  0.901402  0.0  0.082159  2.3e-05  0.955553  0.0  0.083208  2.1e-05  0.954632  0.0  0.102709  0.081444  1.7e-05  0.956246  0.0
C  C29  1  0.30222923  0.75076750  0.16630100  1  0.639604  -0.003447  3.885975  -0.007  0.596104  0.000296  4.182169  -0.003  0.633751  -0.000154  4.177332  -0.002  0.211988  0.570893  0.000786  4.184914  -0.003
C  C30  1  0.69783218  0.24925500  0.83379293  1  0.64016  0.003713  3.885934  0.007  0.596598  -0.000156  4.181479  0.003  0.634231  0.000277  4.176535  0.002  0.212251  0.571424  -0.000762  4.184248  0.003
C  C31  1  0.34074340  0.63871837  0.19281877  1  -0.082909  0.010297  3.740218  0.011  -0.056355  0.005835  3.973741  0.007  -0.067758  0.004301  3.995322  0.005  -0.012084  -0.048727  0.006888  3.958578  0.008
C  C32  1  0.65926092  0.36127856  0.80721712  1  -0.08367  -0.009872  3.741057  -0.01  -0.056768  -0.005611  3.974224  -0.006  -0.068157  -0.004001  3.995786  -0.005  -0.012345  -0.049125  -0.006813  3.958994  -0.007
C  C33  1  0.33555790  0.61671208  0.29000885  1  0.102377  -0.001874  3.686038  -0.002  0.062937  -0.000443  3.946433  -0.001  0.071517  -0.000515  3.962643  -0.001  0.039525  0.05675  -0.000392  3.936557  0.0
C  C34  1  0.66445949  0.38327089  0.71002041  1  0.102402  0.001533  3.685759  0.002  0.062981  4.7e-05  3.946174  0.0  0.07156  0.00013  3.962365  0.0  0.039482  0.056811  -7.5e-05  3.93625  0.0
C  C35  1  0.38888333  0.55527462  0.12036314  1  -0.124987  -0.001063  3.690127  -0.001  -0.170192  7.4e-05  3.94895  0.0  -0.166333  -0.000126  3.962502  0.0  -0.073018  -0.172078  0.000217  3.939308  0.0
C  C36  1  0.61109393  0.44474281  0.87964570  1  -0.125101  0.000578  3.690067  0.0  -0.170236  -0.000515  3.948817  -0.001  -0.166364  -0.000245  3.96234  0.0  -0.073102  -0.172145  -0.000711  3.939224  -0.001
C  C37  1  0.42735989  0.45450376  0.15016527  1  0.23864  0.001822  3.81201  0.002  0.233303  0.000599  4.093632  0.001  0.237994  0.000564  4.106165  0.001  0.092105  0.229562  0.000663  4.085087  0.001
C  C38  1  0.57257681  0.54549884  0.84981993  1  0.239211  -0.001305  3.811493  -0.001  0.233575  -0.000379  4.093413  0.0  0.238281  -0.000274  4.105913  0.0  0.092276  0.229815  -0.00051  4.084946  -0.001
C  C39  1  0.42344099  0.43845636  0.24865328  1  0.008282  -0.002322  3.724704  -0.002  -0.032442  -0.000845  3.996741  -0.001  -0.027274  -0.000787  4.01235  -0.001  0.031296  -0.035238  -0.0009  3.985571  -0.001
C  C40  1  0.57652407  0.56152899  0.75133014  1  0.007664  0.001251  3.7252  0.001  -0.03276  0.000217  3.997025  0.0  -0.027567  0.000258  4.012585  0.0  0.03117  -0.035591  0.000161  3.985947  0.0
C  C41  1  0.05683332  0.18358870  0.17636296  1  0.664494  -0.00137  3.855367  -0.002  0.626361  -0.001875  4.1365  -0.003  0.667688  -0.001599  4.129377  -0.002  0.225902  0.598224  -0.002115  4.140704  -0.003
C  C42  1  0.94332509  0.81648371  0.82357159  1  0.662953  0.004419  3.856249  0.009  0.62511  -0.001768  4.137745  0.002  0.666505  -0.000853  4.13065  0.002  0.225538  0.596976  -0.002664  4.14201  0.002
C  C43  1  0.00194403  0.29894971  0.21020847  1  -0.081582  -0.006854  3.725998  -0.007  -0.052371  -0.002857  3.953897  -0.003  -0.066111  -0.00274  3.976276  -0.003  -0.006658  -0.043681  -0.002789  3.93926  -0.003
C  C44  1  0.99807462  0.70110384  0.78977505  1  -0.08015  -0.021505  3.725305  -0.023  -0.052027  -0.012423  3.954055  -0.014  -0.065938  -0.009985  3.976505  -0.012  -0.006453  -0.043216  -0.013934  3.939412  -0.016
C  C45  1  0.01370094  0.34081863  0.31368502  1  0.115029  0.005346  3.646817  0.005  0.070314  0.000483  3.901308  0.001  0.080844  0.001695  3.919934  0.002  0.04864  0.062681  -0.000459  3.891062  0.0
C  C46  1  0.98632934  0.65922013  0.68629380  1  0.114306  0.008368  3.646767  0.008  0.069732  0.001134  3.901587  0.002  0.080383  0.002445  3.920007  0.003  0.048439  0.062073  0.000125  3.891375  0.001
C  C47  1  0.94285785  0.36662488  0.13788734  1  -0.108629  0.007535  3.650947  0.007  -0.153254  0.003063  3.90624  0.003  -0.147151  0.003297  3.917683  0.003  -0.061891  -0.157356  0.002685  3.899153  0.003
C  C48  1  0.05709405  0.63341635  0.86210251  1  -0.108131  0.009043  3.650128  0.008  -0.1528  0.002697  3.9059  0.003  -0.146678  0.003255  3.917376  0.003  -0.061622  -0.156958  0.002143  3.898888  0.002
C  C49  1  0.90292686  0.47350584  0.17470568  1  0.263443  -0.006535  3.78218  -0.007  0.251765  -0.002955  4.071488  -0.004  0.255724  -0.002983  4.083445  -0.004  0.107242  0.248215  -0.002729  4.064061  -0.003
C  C50  1  0.09697669  0.52652715  0.82527912  1  0.263352  -0.009013  3.78208  -0.01  0.251685  -0.003869  4.071479  -0.005  0.255622  -0.003793  4.08349  -0.005  0.107212  0.248163  -0.003792  4.063998  -0.004
C  C51  1  0.91696120  0.51162537  0.27875839  1  0.031838  0.005285  3.641793  0.006  -0.011569  0.000471  3.905167  0.002  -0.002293  0.001564  3.919638  0.003  0.049319  -0.017572  -0.000288  3.896563  0.001
C  C52  1  0.08297608  0.48840682  0.72123216  1  0.031807  0.008221  3.641648  0.009  -0.011554  0.001395  3.905025  0.002  -0.002336  0.002475  3.919579  0.004  0.049374  -0.017557  0.000645  3.896345  0.002
C  C53  1  0.29186051  0.70463031  0.53727124  1  0.648168  -0.001545  3.901994  -0.004  0.604617  0.001093  4.199986  -0.001  0.643533  0.00077  4.191321  0.0  0.210736  0.578438  0.0013  4.204529  -0.001
C  C54  1  0.70808589  0.29534928  0.46270999  1  0.64805  -0.000805  3.901975  -0.004  0.60454  0.001997  4.199825  0.0  0.64346  0.001379  4.191122  0.0  0.21079  0.578332  0.002446  4.204447  0.0
C  C55  1  0.31623746  0.82412984  0.58755591  1  -0.074711  0.00176  3.720846  0.002  -0.044953  0.00186  3.947614  0.002  -0.057386  0.00063  3.96877  0.0  -0.006456  -0.037263  0.002467  3.933673  0.002
C  C56  1  0.68373396  0.17586946  0.41241265  1  -0.074649  0.015917  3.72113  0.017  -0.044915  0.008701  3.947869  0.01  -0.05735  0.006969  3.969023  0.008  -0.006617  -0.037209  0.009922  3.933914  0.011
C  C57  1  0.16219608  0.89167860  0.58486427  1  -0.115177  0.005932  3.675984  0.006  -0.156804  0.002954  3.924165  0.003  -0.151438  0.002976  3.937151  0.003  -0.064827  -0.160165  0.002872  3.915731  0.003
C  C58  1  0.83778002  0.10832402  0.41512743  1  -0.115363  -0.006772  3.675885  -0.006  -0.156782  -0.002007  3.923985  -0.002  -0.151433  -0.002493  3.936993  -0.002  -0.064779  -0.16012  -0.001674  3.915543  -0.001
C  C59  1  0.19771390  0.99947628  0.63512775  1  0.262647  -0.005136  3.774139  -0.005  0.258282  -0.002556  4.051482  -0.003  0.261927  -0.002546  4.063506  -0.003  0.108422  0.254955  -0.002613  4.044011  -0.003
C  C60  1  0.80229870  0.00052634  0.36486054  1  0.262958  0.007686  3.774004  0.008  0.258328  0.003319  4.051672  0.004  0.261957  0.003217  4.063715  0.004  0.108409  0.255019  0.003441  4.044243  0.004
C  C61  1  0.37802143  0.03941058  0.68514312  1  0.025899  0.003545  3.661399  0.004  -0.01396  0.000175  3.919567  0.001  -0.004497  0.001127  3.934419  0.002  0.044423  -0.019975  -0.000498  3.910515  0.0
C  C62  1  0.62201375  0.96057558  0.31482519  1  0.026137  -0.006023  3.661197  -0.007  -0.013916  -0.000667  3.919661  -0.002  -0.004417  -0.001638  3.934521  -0.003  0.044396  -0.02004  4e-05  3.910737  -0.001
C  C63  1  0.49460647  0.86792584  0.63873609  1  0.108399  0.004012  3.653496  0.004  0.066017  0.000531  3.907466  0.001  0.077698  0.001561  3.923467  0.002  0.043838  0.057958  -0.0003  3.898657  0.0
C  C64  1  0.50537030  0.13204880  0.36122557  1  0.107893  -0.006602  3.653226  -0.007  0.065302  -0.000937  3.907363  -0.002  0.077072  -0.00203  3.923279  -0.003  0.043727  0.057259  -9.4e-05  3.898474  -0.001
C  C65  1  0.48468812  0.02258924  0.05332639  1  0.123501  7.3e-05  3.635056  0.0  0.070348  2e-05  3.905141  0.0  0.07782  7e-06  3.908718  0.0  -0.084813  0.065265  1.5e-05  3.901866  0.0
C  C66  1  0.51521069  0.97737796  0.94661608  1  0.122809  0.000184  3.635518  0.0  0.0695  0.000188  3.905755  0.0  0.07691  0.000165  3.909348  0.0  -0.084976  0.064453  0.000163  3.902445  0.0
N  N67  1  0.37785743  0.51913846  0.31787697  1  -0.295927  -0.000571  3.20552  0.0  -0.259283  -0.000711  3.503568  0.0  -0.277336  -0.000725  3.522593  0.0  -0.318754  -0.246692  -0.00056  3.490521  0.0
N  N68  1  0.62214795  0.48083625  0.68213130  1  -0.295979  -0.00387  3.205339  -0.004  -0.259245  -0.001346  3.503118  -0.001  -0.277301  -0.001172  3.522186  -0.001  -0.31874  -0.24673  -0.00195  3.490124  -0.002
N  N69  1  0.97064936  0.44441050  0.34677989  1  -0.258121  -0.059938  3.344306  -0.074  -0.203491  -0.049909  3.63185  -0.066  -0.23372  -0.042879  3.656826  -0.06  -0.329396  -0.18623  -0.049795  3.61746  -0.064
N  N70  1  0.02934665  0.55561841  0.65320623  1  -0.257637  -0.061158  3.343604  -0.076  -0.203346  -0.050089  3.631518  -0.067  -0.233562  -0.043186  3.656532  -0.061  -0.329313  -0.186137  -0.049896  3.617135  -0.064
N  N71  1  0.52499404  0.97291005  0.68671054  1  -0.273765  -0.054278  3.310015  -0.067  -0.223526  -0.045521  3.608026  -0.06  -0.255277  -0.038662  3.627605  -0.054  -0.335955  -0.205675  -0.049011  3.597084  -0.062
N  N72  1  0.47502160  0.02705639  0.31325778  1  -0.273158  0.057286  3.310499  0.07  -0.22276  0.046339  3.608231  0.061  -0.254635  0.039759  3.627933  0.055  -0.33563  -0.204824  0.049507  3.59722  0.063
N  N73  1  0.96791124  0.94041552  0.12589225  1  -0.54841  0.023923  2.885254  0.029  -0.622302  0.00837  3.297848  0.011  -0.68538  0.007065  3.317135  0.01  -0.370508  -0.585342  0.007969  3.288088  0.01
N  N74  1  0.03216452  0.05960295  0.87425273  1  -0.539034  -0.151365  2.88299  -0.185  -0.617972  -0.081666  3.299273  -0.107  -0.681178  -0.058067  3.318692  -0.082  -0.368766  -0.581707  -0.094574  3.289977  -0.118
N  N75  1  0.87932387  0.85491120  0.12049405  1  0.396497  -0.007254  4.104393  -0.011  0.448461  -0.000405  4.431874  -0.002  0.470009  -0.001302  4.469347  -0.003  0.098655  0.434721  0.00053  4.407948  0.0
N  N76  1  0.12088578  0.14500298  0.87966711  1  0.39449  0.053797  4.096222  0.08  0.447526  0.008723  4.429599  0.022  0.469111  0.013947  4.467083  0.027  0.098971  0.433927  0.002526  4.406076  0.015
N  N77  1  0.78969289  0.77630655  0.11727054  1  -0.227884  0.025394  2.308729  0.027  -0.271289  0.008333  2.538604  0.009  -0.280104  0.007724  2.550986  0.009  -0.125306  -0.267389  0.007961  2.531246  0.009
N  N78  1  0.21080259  0.22350647  0.88278453  1  -0.22017  -0.193019  2.299695  -0.216  -0.268984  -0.094247  2.534645  -0.11  -0.277923  -0.078651  2.547082  -0.096  -0.124309  -0.265537  -0.105124  2.527681  -0.118
N  N79  1  0.25785579  0.43245218  0.52547756  1  -0.523932  -0.01048  2.871597  -0.013  -0.585962  -0.004402  3.278263  -0.006  -0.641259  -0.002816  3.296885  -0.004  -0.343131  -0.552012  -0.005797  3.267348  -0.007
N  N80  1  0.74208984  0.56753076  0.47454169  1  -0.523583  -0.009686  2.87184  -0.013  -0.585408  -0.004365  3.27813  -0.006  -0.640839  -0.002794  3.297067  -0.004  -0.343077  -0.551415  -0.005614  3.267154  -0.007
N  N81  1  0.26866243  0.33940832  0.54365241  1  0.387645  0.004809  4.131927  0.007  0.435167  0.000596  4.451516  0.002  0.456808  0.001046  4.486903  0.002  0.08494  0.421306  8.8e-05  4.426286  0.001
N  N82  1  0.73128819  0.66056720  0.45635371  1  0.387288  0.004442  4.132045  0.007  0.434833  0.000594  4.451696  0.002  0.456458  0.001047  4.487091  0.002  0.084929  0.420954  5.6e-05  4.426447  0.001
N  N83  1  0.28193745  0.25063411  0.56130164  1  -0.281694  -0.017503  2.324933  -0.02  -0.314201  -0.008688  2.563578  -0.01  -0.326378  -0.006677  2.575827  -0.008  -0.145403  -0.304189  -0.011471  2.553794  -0.013
N  N84  1  0.71802488  0.74934800  0.43870824  1  -0.281622  -0.016222  2.324855  -0.018  -0.314209  -0.008636  2.563517  -0.01  -0.326385  -0.006683  2.575791  -0.008  -0.145395  -0.304132  -0.010979  2.553696  -0.012
O  O85  1  0.03124319  0.15168552  0.08045394  1  -0.579889  -0.059709  2.10703  -0.078  -0.546797  -0.043394  2.37315  -0.062  -0.584957  -0.034199  2.364201  -0.051  -0.307438  -0.520489  -0.048993  2.37926  -0.067
O  O86  1  0.96881452  0.84839344  0.91948247  1  -0.577444  -0.060051  2.107757  -0.079  -0.545537  -0.043294  2.374528  -0.063  -0.583954  -0.033079  2.365673  -0.051  -0.306994  -0.5193  -0.049879  2.38068  -0.069
O  O87  1  0.12714293  0.13034121  0.24715927  1  -0.597729  0.058866  2.120828  0.076  -0.559877  0.046659  2.397921  0.067  -0.60347  0.038271  2.3865  0.057  -0.310421  -0.532459  0.050888  2.40546  0.07
O  O88  1  0.87326379  0.86976986  0.75277359  1  -0.597376  -0.061378  2.120973  -0.081  -0.559244  -0.047797  2.398067  -0.07  -0.602841  -0.038055  2.386651  -0.059  -0.310319  -0.532069  -0.053184  2.40576  -0.074
O  O89  1  0.26340282  0.82344975  0.23869482  1  -0.598674  0.095811  2.071748  0.124  -0.572691  0.062333  2.352151  0.09  -0.619559  0.048312  2.342179  0.073  -0.324491  -0.543432  0.06993  2.358618  0.097
O  O90  1  0.73693431  0.17656146  0.76150029  1  -0.600884  -0.092279  2.072232  -0.121  -0.573051  -0.061302  2.351585  -0.089  -0.61972  -0.047211  2.341644  -0.073  -0.324832  -0.544065  -0.069072  2.358181  -0.096
O  O91  1  0.31443016  0.76592190  0.07846003  1  -0.573676  0.000375  1.994814  0.001  -0.529748  0.000274  2.217847  0.001  -0.555544  -0.00038  2.210361  0.0  -0.298222  -0.51204  0.000962  2.222538  0.002
O  O92  1  0.68546537  0.23412274  0.92162075  1  -0.574602  -0.000662  1.995187  -0.002  -0.530248  -0.000321  2.217856  -0.001  -0.556017  0.000412  2.210347  0.0  -0.298776  -0.512653  -0.001117  2.222554  -0.002
O  O93  1  0.13385354  0.66934299  0.48458190  1  -0.612354  -0.001294  2.022335  -0.002  -0.580591  7e-06  2.281761  -0.001  -0.607452  -1.1e-05  2.270652  -0.001  -0.315532  -0.561762  -0.000547  2.28842  -0.001
O  O94  1  0.86605685  0.33066373  0.51541360  1  -0.612169  0.002524  2.021891  0.002  -0.580281  0.001532  2.281199  0.001  -0.60709  0.000814  2.270048  0.0  -0.315431  -0.561543  0.002312  2.287922  0.003
O  O95  1  0.44247898  0.65060907  0.55566916  1  -0.610859  0.068913  2.150672  0.089  -0.574631  0.048681  2.438881  0.07  -0.617996  0.037712  2.432199  0.056  -0.319773  -0.545208  0.05352  2.442852  0.074
O  O96  1  0.55742698  0.34935408  0.44430883  1  -0.61112  0.069698  2.150919  0.09  -0.574851  0.04891  2.439008  0.07  -0.618227  0.037939  2.432324  0.057  -0.320015  -0.545512  0.053797  2.443031  0.075
O  O97  1  0.32021456  0.97206927  0.07068753  1  -0.635959  -0.001136  2.291797  -0.002  -0.592221  2.7e-05  2.565909  0.0  -0.6184  0.000239  2.550713  0.0  -0.4194  -0.573834  -0.000468  2.575962  -0.001
O  O98  1  0.67962907  0.02795952  0.92923927  1  -0.636428  0.003731  2.29291  0.002  -0.592343  0.002623  2.56684  0.001  -0.618499  0.00268  2.551586  0.002  -0.419612  -0.574004  0.002507  2.57693  0.001
F  F99  1  0.47410002  0.36914134  0.08330498  1  -0.190462  -5.9e-05  1.219699  0.0  -0.139966  -0.000143  1.384107  0.0  -0.149786  -0.000124  1.375735  0.0  -0.089507  -0.132571  -0.000171  1.389808  0.0
F  F100  1  0.52577639  0.63086697  0.91665760  1  -0.190427  -0.000345  1.219629  0.0  -0.139991  -0.000263  1.384069  0.0  -0.149804  -0.000177  1.375687  0.0  -0.089572  -0.132652  -0.000361  1.389791  0.0
F  F101  1  0.84837887  0.54357419  0.10845878  1  -0.193608  -0.000785  1.237803  -0.001  -0.134885  -0.000586  1.396561  -0.001  -0.145999  -0.000484  1.389773  -0.001  -0.082472  -0.126785  -0.000628  1.401308  -0.001
F  F102  1  0.15147323  0.45644646  0.89151926  1  -0.193764  -0.001392  1.237191  -0.002  -0.134948  -0.00112  1.395922  -0.001  -0.146082  -0.000887  1.389163  -0.001  -0.082524  -0.126825  -0.001294  1.400633  -0.001
F  F103  1  0.05330491  0.06878683  0.63661337  1  -0.189372  -0.00056  1.218396  -0.001  -0.141105  -0.000334  1.385857  -0.001  -0.151731  -0.000169  1.376416  -0.001  -0.082431  -0.133859  -0.000418  1.39303  -0.001
F  F104  1  0.94672259  0.93122080  0.36342300  1  -0.18923  0.000601  1.218563  0.001  -0.141031  0.000184  1.386121  0.001  -0.151679  4.6e-05  1.376685  0.001  -0.082365  -0.133882  0.000344  1.393346  0.001
