# generated using pymatgen
data_Al2H17C35(NO2)5
_symmetry_space_group_name_H-M   'P 1'
_cell_length_a   6.74958251
_cell_length_b   21.60376385
_cell_length_c   25.11222781
_cell_angle_alpha   96.30178967
_cell_angle_beta   89.99967140
_cell_angle_gamma   90.00084399
_symmetry_Int_Tables_number   1
_chemical_formula_structural   Al2H17C35(NO2)5
_chemical_formula_sum   'Al4 H34 C70 N10 O20'
_cell_volume   3639.64814630
_cell_formula_units_Z   2
loop_
 _symmetry_equiv_pos_site_id
 _symmetry_equiv_pos_as_xyz
  1  'x, y, z'
loop_
 _atom_site_type_symbol
 _atom_site_label
 _atom_site_symmetry_multiplicity
 _atom_site_fract_x
 _atom_site_fract_y
 _atom_site_fract_z
 _atom_site_occupancy
 _atom_site_pbe_bader_charge
 _atom_site_pbe_bader_spin_density
 _atom_site_pbe_cm5_charge
 _atom_site_pbe_ddec_charge
 _atom_site_pbe_ddec_spin_density
 _atom_site_pbe_ddec_sum_bond_order
 _atom_site_pbe_magmom
Al  Al0  1  0.09622459  0.50050035  0.49896141  1  2.50276  0  0.407328  1.65087  0  2.56851  0
Al  Al1  1  0.59622733  0.49950454  0.50103847  1  2.50251  0  0.407233  1.650669  0  2.568805  0
Al  Al2  1  0.69845388  0.99949463  0.00088356  1  2.502931  0  0.407923  1.650872  0  2.569321  0
Al  Al3  1  0.19844772  0.00050253  0.99911373  1  2.502649  0  0.40806  1.650768  0  2.569254  0
H  H4  1  0.23571531  0.19245932  0.81104668  1  0.086418  0  0.104625  0.103826  0  1.006183  0
H  H5  1  0.73570497  0.80752145  0.18893649  1  0.08688  0  0.104659  0.103789  0  1.006186  0
H  H6  1  0.59823667  0.17955112  0.81240267  1  0.045402  0  0.105078  0.105304  0  1.00692  0
H  H7  1  0.09823919  0.82048415  0.18762573  1  0.046055  0  0.104972  0.105179  0  1.006949  0
H  H8  1  0.54251057  0.37749691  0.61634157  1  0.077139  0  0.108151  0.109648  0  1.007176  0
H  H9  1  0.04252136  0.62250145  0.38366359  1  0.07746  0  0.108173  0.109667  0  1.007265  0
H  H10  1  0.22568791  0.19238710  0.23621953  1  0.116432  0  0.109853  0.131854  0  1.016069  0
H  H11  1  0.72568965  0.80761294  0.76378134  1  0.116364  0  0.109873  0.13188  0  1.016145  0
H  H12  1  0.04478970  0.15893486  0.27516757  1  0.123745  0  0.119637  0.143546  0  0.953376  0
H  H13  1  0.54478770  0.84106255  0.72483358  1  0.123599  0  0.119638  0.143554  0  0.953348  0
H  H14  1  0.10695415  0.28013267  0.18800290  1  0.158617  0  0.126083  0.123843  0  0.968905  0
H  H15  1  0.60694353  0.71986515  0.81199935  1  0.15871  0  0.126091  0.123892  0  0.968804  0
H  H16  1  0.70719816  0.33278921  0.22946337  1  0.128554  0  0.112694  0.135309  0  0.977531  0
H  H17  1  0.20718600  0.66721126  0.77053793  1  0.128442  0  0.112695  0.135341  0  0.977469  0
H  H18  1  0.56528199  0.26250549  0.29820241  1  0.117559  0  0.108444  0.129402  0  1.018489  0
H  H19  1  0.06528165  0.73748850  0.70180030  1  0.117278  0  0.10843  0.129366  0  1.018504  0
H  H20  1  0.25331860  0.12169963  0.88352943  1  0.10237  0  0.10993  0.111633  0  1.004185  0
H  H21  1  0.75330978  0.87827255  0.11644728  1  0.102593  0  0.109859  0.111525  0  1.004297  0
H  H22  1  0.94792483  0.36414868  0.23988403  1  0.074744  0  0.117563  0.14042  0  0.949321  0
H  H23  1  0.44790688  0.63584711  0.76011926  1  0.07486  0  0.117596  0.140452  0  0.949354  0
H  H24  1  0.61881349  0.10937444  0.88519837  1  0.099322  0  0.110825  0.114333  0  1.002591  0
H  H25  1  0.11882641  0.89065276  0.11482397  1  0.098789  0  0.11093  0.114432  0  1.002581  0
H  H26  1  0.19781475  0.32030363  0.68765936  1  0.063153  0  0.104769  0.105142  0  1.006009  0
H  H27  1  0.69780825  0.67969948  0.31232994  1  0.063111  0  0.104777  0.105129  0  1.006022  0
H  H28  1  0.17699496  0.39067312  0.61506809  1  0.106234  0  0.109335  0.112662  0  1.005187  0
H  H29  1  0.67700324  0.60932021  0.38491400  1  0.10634  0  0.109394  0.112748  0  1.005236  0
H  H30  1  0.56065018  0.30650385  0.68859132  1  0.073584  0  0.104901  0.105768  0  1.004915  0
H  H31  1  0.06064177  0.69350166  0.31141863  1  0.073457  0  0.104923  0.105786  0  1.004953  0
H  H32  1  0.73884983  0.21204789  0.32383358  1  0.117922  0  0.116646  0.137414  0  0.957827  0
H  H33  1  0.23884787  0.78794762  0.67616764  1  0.118073  0  0.116676  0.137424  0  0.957853  0
H  H34  1  0.34409723  0.41767877  0.49359156  1  0.600762  0  0.359613  0.440546  0  0.837191  0
H  H35  1  0.84410090  0.58232721  0.50640432  1  0.600622  0  0.359553  0.440535  0  0.837281  0
H  H36  1  0.45024161  0.08235454  0.00896978  1  0.604767  0  0.361119  0.443205  0  0.83292  0
H  H37  1  0.95023632  0.91764012  0.99103551  1  0.604656  0  0.361075  0.443213  0  0.832771  0
C  C38  1  0.34412856  0.57655742  0.57752032  1  1.705057  0  0.28194  0.717403  0  4.154842  0
C  C39  1  0.84413328  0.42344658  0.42247836  1  1.705511  0  0.281803  0.717175  0  4.155108  0
C  C40  1  0.34967358  0.57130171  0.43260111  1  1.557353  0  0.270284  0.647258  0  4.090065  0
C  C41  1  0.84966450  0.42869873  0.56739475  1  1.557187  0  0.270299  0.647274  0  4.090242  0
C  C42  1  0.10123680  0.17403236  0.82741503  1  -0.073792  0  -0.079062  -0.123323  0  3.936604  0
C  C43  1  0.60123203  0.82596003  0.17257720  1  -0.074061  0  -0.078916  -0.123031  0  3.936359  0
C  C44  1  0.11115765  0.13490995  0.86762395  1  -0.046027  0  -0.074248  -0.075823  0  3.972644  0
C  C45  1  0.61115389  0.86507731  0.13236384  1  -0.047016  0  -0.074214  -0.07575  0  3.972555  0
C  C46  1  0.93697394  0.11199207  0.88878278  1  0.015135  0  -0.011857  -0.046544  0  3.966368  0
C  C47  1  0.43697642  0.88800539  0.11121573  1  0.015749  0  -0.011832  -0.04667  0  3.966305  0
C  C48  1  0.75230973  0.12802466  0.86852393  1  -0.030673  0  -0.074938  -0.079153  0  3.975924  0
C  C49  1  0.25231409  0.87199267  0.13148856  1  -0.030783  0  -0.075081  -0.079237  0  3.975517  0
C  C50  1  0.74118731  0.16689687  0.82822694  1  0.040203  0  -0.079163  -0.122949  0  3.942513  0
C  C51  1  0.24118772  0.83312532  0.17179158  1  0.040747  0  -0.07905  -0.122854  0  3.942268  0
C  C52  1  0.91579885  0.19100357  0.80729440  1  0.042926  0  0.008249  0.148201  0  4.103315  0
C  C53  1  0.41579334  0.80900590  0.19271219  1  0.042375  0  0.008132  0.148022  0  4.103292  0
C  C54  1  0.90430461  0.23185826  0.76713563  1  -0.39552  0  -0.037663  -0.097672  0  4.104615  0
C  C55  1  0.40429652  0.76814831  0.23287418  1  -0.395694  0  -0.037651  -0.097728  0  4.105066  0
C  C56  1  0.89214497  0.26755657  0.73277929  1  0.091894  0  -0.040659  -0.105711  0  4.108682  0
C  C57  1  0.39213021  0.73245775  0.26722616  1  0.091688  0  -0.040685  -0.105535  0  4.109316  0
C  C58  1  0.05479151  0.33282357  0.67178582  1  -0.085411  0  -0.080202  -0.123634  0  3.940785  0
C  C59  1  0.55479010  0.66717630  0.32820491  1  -0.085369  0  -0.080315  -0.123535  0  3.940629  0
C  C60  1  0.04345723  0.37182257  0.63157092  1  -0.033694  0  -0.077966  -0.08379  0  3.983632  0
C  C61  1  0.54346075  0.62817361  0.36841661  1  -0.033711  0  -0.077882  -0.083964  0  3.983754  0
C  C62  1  0.85874375  0.38780326  0.61124462  1  0.037019  0  -0.015163  -0.050298  0  3.974712  0
C  C63  1  0.35875693  0.61219639  0.38875202  1  0.03713  0  -0.015279  -0.050305  0  3.974666  0
C  C64  1  0.68484931  0.36446527  0.63226962  1  -0.029035  0  -0.076734  -0.077843  0  3.982596  0
C  C65  1  0.18485208  0.63553464  0.36773171  1  -0.029129  0  -0.076751  -0.07788  0  3.982661  0
C  C66  1  0.69502351  0.32519344  0.67237435  1  -0.079401  0  -0.081357  -0.130054  0  3.941137  0
C  C67  1  0.19501840  0.67481015  0.32763017  1  -0.079452  0  -0.081423  -0.130107  0  3.941385  0
C  C68  1  0.88046257  0.30840237  0.69263850  1  0.14465  0  0.00863  0.15288  0  4.102786  0
C  C69  1  0.38045117  0.69160316  0.30736373  1  0.144432  0  0.008744  0.152834  0  4.102845  0
C  C70  1  0.71363825  0.19883126  0.23618714  1  0.18524  0  0.050814  0.064786  0  3.876658  0
C  C71  1  0.21363412  0.80116580  0.76381253  1  0.18522  0  0.050776  0.0649  0  3.876506  0
C  C72  1  0.07933964  0.19965844  0.25431067  1  -0.084233  0  -0.137656  -0.260363  0  3.770223  0
C  C73  1  0.57934870  0.80033953  0.74569001  1  -0.083999  0  -0.137638  -0.260411  0  3.770289  0
C  C74  1  0.07781030  0.25953619  0.29583251  1  0.197531  0  0.050302  0.058656  0  3.87754  0
C  C75  1  0.57781415  0.74046182  0.70416859  1  0.197679  0  0.050329  0.058905  0  3.877393  0
C  C76  1  0.84237096  0.37857097  0.37517813  1  0.278074  0  -0.017001  -0.146069  0  3.905547  0
C  C77  1  0.34237807  0.62142998  0.62482215  1  0.278765  0  -0.017065  -0.146325  0  3.905359  0
C  C78  1  0.92529171  0.20575857  0.20965991  1  0.132701  0  0.028787  0.131824  0  3.834077  0
C  C79  1  0.42529277  0.79423872  0.79034143  1  0.132995  0  0.028786  0.131718  0  3.834062  0
C  C80  1  0.71049939  0.24089572  0.29128574  1  -0.094585  0  -0.137656  -0.257473  0  3.768483  0
C  C81  1  0.21049999  0.75910064  0.70871593  1  -0.094397  0  -0.13763  -0.257403  0  3.76837  0
C  C82  1  0.86813705  0.29253895  0.29138073  1  0.106624  0  0.023015  0.161668  0  3.856175  0
C  C83  1  0.36813961  0.70745778  0.70862190  1  0.106505  0  0.022921  0.161582  0  3.856364  0
C  C84  1  0.86180145  0.32093940  0.23733455  1  -0.059085  0  -0.141413  -0.240279  0  3.795854  0
C  C85  1  0.36179295  0.67905823  0.76266808  1  -0.059189  0  -0.141408  -0.240458  0  3.795957  0
C  C86  1  0.94610215  0.27321550  0.19236997  1  0.039865  0  -0.046577  -0.055446  0  3.854059  0
C  C87  1  0.44609378  0.72678244  0.80763213  1  0.039848  0  -0.046623  -0.055448  0  3.853805  0
C  C88  1  0.84380153  0.33987369  0.33636770  1  -0.499448  0  -0.029219  -0.059397  0  4.018833  0
C  C89  1  0.34380101  0.66012582  0.66363577  1  -0.499768  0  -0.029203  -0.059266  0  4.018704  0
C  C90  1  0.94970576  0.15872626  0.16458055  1  -0.076606  0  -0.033102  -0.071415  0  4.04074  0
C  C91  1  0.44970396  0.84127063  0.83542035  1  -0.078239  0  -0.033128  -0.071376  0  4.04096  0
C  C92  1  0.95124301  0.12048060  0.12548034  1  -0.156333  0  -0.008342  -0.125744  0  3.889176  0
C  C93  1  0.45124393  0.87951707  0.87451935  1  -0.154954  0  -0.008321  -0.125813  0  3.889136  0
C  C94  1  0.44546566  0.92863841  0.06716320  1  1.562259  0  0.271088  0.649603  0  4.087491  0
C  C95  1  0.94550650  0.07135997  0.93283491  1  1.562404  0  0.271065  0.649348  0  4.088004  0
C  C96  1  0.44986234  0.92399969  0.92211193  1  1.728376  0  0.283987  0.716838  0  4.152938  0
C  C97  1  0.94990147  0.07599751  0.07788776  1  1.728134  0  0.284113  0.716912  0  4.153614  0
C  C98  1  0.67791885  0.13385765  0.24556197  1  0.864377  0  0.181063  0.21217  0  3.941217  0
C  C99  1  0.17791946  0.86613894  0.75443896  1  0.864228  0  0.181085  0.212153  0  3.940837  0
C  C100  1  0.10995071  0.24173089  0.34990578  1  0.880004  0  0.180394  0.212591  0  3.942147  0
C  C101  1  0.60995475  0.75826541  0.65009525  1  0.879697  0  0.180269  0.212297  0  3.94228  0
C  C102  1  0.23141356  0.30486077  0.28548092  1  0.858552  0  0.197933  0.226388  0  3.923184  0
C  C103  1  0.73140767  0.69513734  0.71451912  1  0.858186  0  0.197977  0.226354  0  3.923116  0
C  C104  1  0.86212272  0.28086603  0.14002906  1  0.871201  0  0.171064  0.245442  0  3.957901  0
C  C105  1  0.36210727  0.71913510  0.85997198  1  0.87144  0  0.171023  0.245431  0  3.957934  0
C  C106  1  0.55774782  0.21644082  0.19992870  1  0.872409  0  0.198563  0.225717  0  3.907546  0
C  C107  1  0.05774674  0.78355228  0.80007081  1  0.87176  0  0.198513  0.225679  0  3.907778  0
N  N108  1  0.64780755  0.08323299  0.25537505  1  -1.055036  0  -0.278885  -0.298431  0  2.658065  0
N  N109  1  0.14781815  0.91676451  0.74462312  1  -1.054819  0  -0.27888  -0.298443  0  2.657681  0
N  N110  1  0.13582865  0.22567617  0.39215904  1  -1.073137  0  -0.282221  -0.301771  0  2.657505  0
N  N111  1  0.63585335  0.77432285  0.60784436  1  -1.072845  0  -0.282148  -0.301629  0  2.657531  0
N  N112  1  0.34937440  0.34168238  0.27649229  1  -1.095782  0  -0.273591  -0.307877  0  2.724312  0
N  N113  1  0.84935771  0.65831168  0.72350435  1  -1.095554  0  -0.273636  -0.307856  0  2.72423  0
N  N114  1  0.80086462  0.28873008  0.09792705  1  -1.09991  0  -0.301819  -0.336471  0  2.667634  0
N  N115  1  0.30084223  0.71127121  0.90207369  1  -1.100167  0  -0.301747  -0.336409  0  2.667627  0
N  N116  1  0.43016715  0.23093612  0.17265672  1  -1.093473  0  -0.262861  -0.295269  0  2.758167  0
N  N117  1  0.93016015  0.76905360  0.82733938  1  -1.092837  0  -0.262791  -0.295245  0  2.758334  0
O  O118  1  0.51512921  0.55523132  0.45147501  1  -1.260265  0  -0.238643  -0.604428  0  2.363616  0
O  O119  1  0.01511119  0.44476984  0.54852019  1  -1.260199  0  -0.238639  -0.604434  0  2.363734  0
O  O120  1  0.17614757  0.56048797  0.55795044  1  -1.225049  0  -0.222099  -0.572119  0  2.281735  0
O  O121  1  0.67614090  0.43951308  0.44205291  1  -1.225032  0  -0.222005  -0.572026  0  2.2815  0
O  O122  1  0.17886993  0.55586540  0.44869989  1  -1.261118  0  -0.239072  -0.602858  0  2.332612  0
O  O123  1  0.67885147  0.44414101  0.55130187  1  -1.261167  0  -0.23913  -0.602951  0  2.332683  0
O  O124  1  0.01443485  0.44113150  0.43949931  1  -1.221053  0  -0.221725  -0.571213  0  2.272137  0
O  O125  1  0.51444399  0.55887712  0.56049631  1  -1.221039  0  -0.221781  -0.571267  0  2.271863  0
O  O126  1  0.34563912  0.46277597  0.49777882  1  -1.402734  0  -0.447973  -0.998624  0  2.182755  0
O  O127  1  0.84564513  0.53723019  0.50222227  1  -1.402648  0  -0.447935  -0.998623  0  2.182871  0
O  O128  1  0.27983581  0.94146527  0.93936877  1  -1.225923  0  -0.218644  -0.567987  0  2.274015  0
O  O129  1  0.77981214  0.05852260  0.06063277  1  -1.225324  0  -0.218853  -0.568281  0  2.273204  0
O  O130  1  0.61606929  0.94380517  0.05080089  1  -1.257225  0  -0.237532  -0.60194  0  2.334202  0
O  O131  1  0.11606360  0.05618540  0.94918731  1  -1.257599  0  -0.237525  -0.601849  0  2.335149  0
O  O132  1  0.61812928  0.94004174  0.94150872  1  -1.230476  0  -0.220019  -0.569674  0  2.278319  0
O  O133  1  0.11809571  0.05996428  0.05848832  1  -1.230856  0  -0.219968  -0.569513  0  2.279632  0
O  O134  1  0.77971794  0.05537524  0.95154273  1  -1.26372  0  -0.237378  -0.604585  0  2.362129  0
O  O135  1  0.27972556  0.94462696  0.04846246  1  -1.263848  0  -0.237457  -0.604697  0  2.362658  0
O  O136  1  0.44897383  0.03731777  0.00244991  1  -1.404813  0  -0.448029  -1.000161  0  2.178161  0
O  O137  1  0.94896172  0.96267768  0.99755058  1  -1.404729  0  -0.448019  -1.000246  0  2.178145  0
