# generated using pymatgen
data_ZnH24C34NO4
_symmetry_space_group_name_H-M   'P 1'
_cell_length_a   10.82620170
_cell_length_b   14.58607999
_cell_length_c   16.02376420
_cell_angle_alpha   86.17656343
_cell_angle_beta   90.66668843
_cell_angle_gamma   85.99124155
_symmetry_Int_Tables_number   1
_chemical_formula_structural   ZnH24C34NO4
_chemical_formula_sum   'Zn2 H48 C68 N2 O8'
_cell_volume   2518.19565866
_cell_formula_units_Z   2
loop_
 _symmetry_equiv_pos_site_id
 _symmetry_equiv_pos_as_xyz
  1  'x, y, z'
loop_
 _atom_site_type_symbol
 _atom_site_label
 _atom_site_symmetry_multiplicity
 _atom_site_fract_x
 _atom_site_fract_y
 _atom_site_fract_z
 _atom_site_occupancy
 _atom_site_pbe_bader_charge
 _atom_site_pbe_bader_spin_density
 _atom_site_pbe_cm5_charge
 _atom_site_pbe_ddec_charge
 _atom_site_pbe_ddec_spin_density
 _atom_site_pbe_ddec_sum_bond_order
 _atom_site_pbe_magmom
Zn  Zn0  1  0.49338364  0.59641721  0.48567962  1  1.321386  0  0.695501  0.891773  0  2.43594  0
Zn  Zn1  1  0.50652231  0.40355544  0.51435198  1  1.321441  0  0.695698  0.891897  0  2.435918  0
H  H2  1  0.20341100  0.67247463  0.44981373  1  0.126843  0  0.100006  0.121731  0  1.066433  0
H  H3  1  0.79655311  0.32758034  0.55022925  1  0.126395  0  0.099768  0.121609  0  1.066361  0
H  H4  1  0.79682884  0.66584421  0.58534301  1  0.064214  0  0.098023  0.111586  0  1.031689  0
H  H5  1  0.20312904  0.33429853  0.41468475  1  0.064782  0  0.09804  0.11143  0  1.031604  0
H  H6  1  0.62976544  0.62346586  0.83456490  1  0.073008  0  0.092354  0.1304  0  1.019269  0
H  H7  1  0.59271943  0.70693316  0.90802446  1  0.053001  0  0.091242  0.123098  0  0.996349  0
H  H8  1  0.73009881  0.63438038  0.92138295  1  0.031496  0  0.093496  0.12813  0  0.994574  0
H  H9  1  0.37007582  0.37653648  0.16545792  1  0.072433  0  0.092477  0.130602  0  1.019075  0
H  H10  1  0.26977477  0.36562023  0.07862941  1  0.031506  0  0.093415  0.128222  0  0.994309  0
H  H11  1  0.40713466  0.29304548  0.09202614  1  0.052655  0  0.091244  0.123186  0  0.996875  0
H  H12  1  0.64179671  0.61996101  0.15020134  1  0.08268  0  0.093889  0.13558  0  1.021556  0
H  H13  1  0.75403072  0.60833219  0.07092089  1  0.035946  0  0.09286  0.124817  0  0.991706  0
H  H14  1  0.63340377  0.69644102  0.05852442  1  0.020838  0  0.09034  0.121686  0  1.001614  0
H  H15  1  0.35813049  0.37995293  0.84985128  1  0.083738  0  0.093859  0.13555  0  1.021315  0
H  H16  1  0.36647474  0.30352184  0.94155743  1  0.019328  0  0.090537  0.121984  0  1.001752  0
H  H17  1  0.24586440  0.39165045  0.92910469  1  0.035325  0  0.092809  0.124828  0  0.99203  0
H  H18  1  0.20052215  0.18024428  0.38352464  1  0.032745  0  0.086903  0.117254  0  1.0122  0
H  H19  1  0.13203837  0.10832195  0.46179911  1  0.010028  0  0.08562  0.11321  0  1.016707  0
H  H20  1  0.04967720  0.14262152  0.36812065  1  0.032353  0  0.088915  0.120826  0  1.006624  0
H  H21  1  0.79950465  0.81988888  0.61650178  1  0.032586  0  0.086879  0.117169  0  1.011798  0
H  H22  1  0.95039172  0.85746484  0.63187895  1  0.033945  0  0.088886  0.120658  0  1.006559  0
H  H23  1  0.86800059  0.89179064  0.53821752  1  0.009702  0  0.085657  0.113006  0  1.01688  0
H  H24  1  0.80302145  0.16895130  0.55410455  1  0.02733  0  0.089096  0.125025  0  1.005394  0
H  H25  1  0.86698389  0.12239268  0.46303591  1  0.018003  0  0.081947  0.110425  0  1.048384  0
H  H26  1  0.95325218  0.11083397  0.55801642  1  0.031003  0  0.085279  0.114677  0  1.001997  0
H  H27  1  0.19703686  0.83109423  0.44596338  1  0.02647  0  0.089091  0.12509  0  1.005333  0
H  H28  1  0.04683263  0.88925298  0.44200005  1  0.030575  0  0.085303  0.114707  0  1.002027  0
H  H29  1  0.13303266  0.87766852  0.53701695  1  0.017  0  0.08213  0.110797  0  1.04812  0
H  H30  1  0.50811359  0.02586580  0.73503607  1  0.071863  0  0.102334  0.10365  0  0.994982  0
H  H31  1  0.41338094  0.11317796  0.84870563  1  0.067741  0  0.102452  0.096747  0  0.992589  0
H  H32  1  0.24023708  0.23224258  0.81651643  1  0.084715  0  0.104652  0.099856  0  1.001773  0
H  H33  1  0.16651108  0.26719366  0.66866122  1  0.089358  0  0.111808  0.113171  0  0.978394  0
H  H34  1  0.26272831  0.18242667  0.55561401  1  0.09257  0  0.101084  0.101332  0  1.036839  0
H  H35  1  0.49189793  0.97414644  0.26497807  1  0.072015  0  0.102321  0.103623  0  0.995041  0
H  H36  1  0.58659862  0.88686810  0.15127592  1  0.067384  0  0.102467  0.096738  0  0.992634  0
H  H37  1  0.75972899  0.76777383  0.18343001  1  0.085953  0  0.104745  0.099843  0  1.001563  0
H  H38  1  0.83348576  0.73276878  0.33127736  1  0.088525  0  0.111866  0.113175  0  0.978014  0
H  H39  1  0.73729404  0.81751537  0.44434788  1  0.093517  0  0.101088  0.101468  0  1.036779  0
H  H40  1  0.78372144  0.02667186  0.36183745  1  0.072823  0  0.100576  0.097231  0  1.015146  0
H  H41  1  0.87223150  0.12720459  0.25054553  1  0.082425  0  0.102422  0.096335  0  0.996338  0
H  H42  1  0.74717887  0.26530576  0.18733660  1  0.0485  0  0.106476  0.101147  0  0.98711  0
H  H43  1  0.53443518  0.30220102  0.23722780  1  0.074376  0  0.100132  0.096551  0  1.043825  0
H  H44  1  0.44496235  0.20168600  0.34751274  1  0.056275  0  0.101393  0.099109  0  1.008465  0
H  H45  1  0.55507090  0.79825259  0.65249177  1  0.055737  0  0.101363  0.099083  0  1.008802  0
H  H46  1  0.46556406  0.69773237  0.76276558  1  0.074078  0  0.100061  0.09634  0  1.044472  0
H  H47  1  0.25283696  0.73466084  0.81266117  1  0.047913  0  0.106434  0.101097  0  0.9872  0
H  H48  1  0.12781247  0.87279107  0.74947369  1  0.083248  0  0.102388  0.09612  0  0.996208  0
H  H49  1  0.21635108  0.97330951  0.63818113  1  0.073357  0  0.100577  0.097279  0  1.015034  0
C  C50  1  0.46132873  0.51422968  0.74898310  1  -0.024973  0  -0.040696  -0.189624  0  3.939686  0
C  C51  1  0.53847986  0.48571981  0.25106162  1  0.181764  0  -0.041173  -0.19031  0  3.940563  0
C  C52  1  0.87317991  0.50192474  0.52482671  1  0.006942  0  -0.00667  -0.115583  0  3.836057  0
C  C53  1  0.12673365  0.49818468  0.47519596  1  -0.052283  0  -0.006898  -0.116278  0  3.837329  0
C  C54  1  0.49752300  0.90665037  0.49872359  1  0.070178  0  0.014917  -0.040017  0  4.032118  0
C  C55  1  0.50251352  0.09331393  0.50129243  1  0.070623  0  0.014841  -0.040082  0  4.031947  0
C  C56  1  0.44507267  0.94922275  0.56846872  1  0.007734  0  0.018982  0.018925  0  3.932222  0
C  C57  1  0.55495531  0.05074457  0.43154342  1  0.007602  0  0.019098  0.018758  0  3.932215  0
C  C58  1  0.55389996  0.95437041  0.43101786  1  0.041524  0  0.019962  0.019615  0  3.928618  0
C  C59  1  0.44614316  0.04559047  0.56899269  1  0.042369  0  0.020123  0.019723  0  3.929105  0
C  C60  1  0.57589283  0.56049986  0.03958184  1  -0.060976  0  -0.005009  0.070802  0  3.930264  0
C  C61  1  0.42401441  0.43945016  0.96044751  1  -0.06164  0  -0.005032  0.070959  0  3.930706  0
C  C62  1  0.56389657  0.56674725  0.95230289  1  0.06277  0  -0.008439  0.060844  0  3.941556  0
C  C63  1  0.43597282  0.43323253  0.04772086  1  0.062441  0  -0.008167  0.061133  0  3.941771  0
C  C64  1  0.45786381  0.50627551  0.65950010  1  1.673404  0  0.215687  0.663632  0  4.256034  0
C  C65  1  0.54200265  0.49355453  0.34055056  1  1.669644  0  0.215262  0.662357  0  4.25948  0
C  C66  1  0.26573402  0.49096419  0.46914815  1  1.539621  0  0.216929  0.595238  0  4.142924  0
C  C67  1  0.73418570  0.50917548  0.53084467  1  1.539414  0  0.217184  0.595618  0  4.143158  0
C  C68  1  0.51242379  0.49332432  0.08693309  1  0.098048  0  -0.005946  0.006018  0  4.089496  0
C  C69  1  0.48743337  0.50666097  0.91309854  1  0.097524  0  -0.005757  0.006188  0  4.088863  0
C  C70  1  0.48257589  0.81161822  0.49090509  1  0.897833  0  0.239557  0.307828  0  3.977334  0
C  C71  1  0.51742029  0.18835893  0.50912220  1  0.897871  0  0.239996  0.308544  0  3.978239  0
C  C72  1  0.52585225  0.48733457  0.17520347  1  -0.504522  0  -0.029007  -0.030175  0  4.127075  0
C  C73  1  0.47398830  0.51266494  0.82482257  1  -0.297963  0  -0.029574  -0.030997  0  4.127404  0
C  C74  1  0.11470555  0.67074967  0.48029417  1  0.003006  0  -0.104885  -0.207258  0  3.953738  0
C  C75  1  0.88524878  0.32934299  0.51973424  1  0.003642  0  -0.104733  -0.207555  0  3.952403  0
C  C76  1  0.88533773  0.66730572  0.55417913  1  0.025188  0  -0.10122  -0.198386  0  3.968709  0
C  C77  1  0.11461721  0.33280822  0.44584909  1  0.020989  0  -0.10121  -0.197959  0  3.968349  0
C  C78  1  0.05600207  0.75188089  0.50262210  1  -0.058571  0  -0.016764  0.113635  0  3.974864  0
C  C79  1  0.94398062  0.24821488  0.49739752  1  -0.007051  0  -0.016198  0.1148  0  3.972722  0
C  C80  1  0.94210309  0.74888050  0.54711926  1  -0.038038  0  -0.020125  0.097621  0  3.983374  0
C  C81  1  0.05787901  0.25122252  0.45288697  1  -0.07408  0  -0.020254  0.097084  0  3.98356  0
C  C82  1  0.93777144  0.58359608  0.52314953  1  -0.035703  0  -0.002599  0.064188  0  3.976921  0
C  C83  1  0.06215038  0.41651512  0.47687747  1  -0.032747  0  -0.002477  0.064528  0  3.976474  0
C  C84  1  0.06307137  0.58331871  0.49310999  1  -0.003027  0  -0.002599  0.065684  0  3.969579  0
C  C85  1  0.93684299  0.41679214  0.50691014  1  -0.062253  0  -0.003049  0.065027  0  3.968973  0
C  C86  1  0.63254295  0.63625908  0.90113761  1  -0.103888  0  -0.237323  -0.397442  0  3.984912  0
C  C87  1  0.36732123  0.36373108  0.09888698  1  -0.103129  0  -0.237636  -0.398246  0  3.985286  0
C  C88  1  0.65497193  0.62456837  0.08241266  1  -0.076517  0  -0.23848  -0.402565  0  3.987483  0
C  C89  1  0.34492467  0.37537792  0.91763490  1  -0.075798  0  -0.2385  -0.402822  0  3.988186  0
C  C90  1  0.11339361  0.16650845  0.41483390  1  -0.064498  0  -0.237465  -0.392534  0  3.999039  0
C  C91  1  0.88663268  0.83359896  0.58518039  1  -0.052688  0  -0.237563  -0.392116  0  3.998596  0
C  C92  1  0.88876209  0.15807310  0.51915616  1  -0.04176  0  -0.240738  -0.394031  0  3.986025  0
C  C93  1  0.11126849  0.84199783  0.48088263  1  -0.040242  0  -0.24075  -0.394221  0  3.986329  0
C  C94  1  0.39143338  0.09761275  0.63772379  1  -0.077921  0  -0.01668  0.045446  0  4.03638  0
C  C95  1  0.43326602  0.07875293  0.72075340  1  -0.00214  0  -0.087798  -0.123328  0  3.982777  0
C  C96  1  0.37948866  0.12760247  0.78448964  1  -0.043601  0  -0.090459  -0.080735  0  4.029633  0
C  C97  1  0.28263188  0.19474402  0.76635092  1  -0.128548  0  -0.084298  -0.077888  0  4.002746  0
C  C98  1  0.24100802  0.21431021  0.68387555  1  0.064065  0  -0.080201  -0.058387  0  3.982669  0
C  C99  1  0.29568515  0.16639133  0.61981651  1  -0.096669  0  -0.08681  -0.128356  0  3.960891  0
C  C100  1  0.60857171  0.90234727  0.36227109  1  -0.078914  0  -0.016676  0.0453  0  4.036176  0
C  C101  1  0.56673329  0.92124288  0.27924260  1  -0.002127  0  -0.087831  -0.123237  0  3.982629  0
C  C102  1  0.62049480  0.87240849  0.21549201  1  -0.042977  0  -0.090592  -0.080838  0  4.029954  0
C  C103  1  0.71733851  0.80524980  0.23361387  1  -0.130781  0  -0.08423  -0.07793  0  4.002861  0
C  C104  1  0.75898153  0.78565520  0.31608475  1  0.039366  0  -0.080307  -0.058181  0  3.982468  0
C  C105  1  0.70431891  0.83356526  0.38015415  1  -0.071161  0  -0.086722  -0.128401  0  3.961142  0
C  C106  1  0.60854525  0.10765459  0.36308818  1  -0.011579  0  -0.016002  0.045393  0  4.034295  0
C  C107  1  0.72883624  0.08689946  0.33440516  1  -0.010521  0  -0.086323  -0.119609  0  3.98661  0
C  C108  1  0.77827722  0.14332502  0.27158707  1  -0.13423  0  -0.09024  -0.083285  0  4.027061  0
C  C109  1  0.70832881  0.22065088  0.23605909  1  0.065216  0  -0.082634  -0.072088  0  3.992052  0
C  C110  1  0.58843907  0.24119632  0.26350127  1  -0.030026  0  -0.084999  -0.059518  0  3.996273  0
C  C111  1  0.53889812  0.18512054  0.32653241  1  -0.074316  0  -0.087045  -0.124856  0  3.97261  0
C  C112  1  0.39150817  0.89230646  0.63693363  1  -0.011111  0  -0.015763  0.045738  0  4.034381  0
C  C113  1  0.46113686  0.81482008  0.67347203  1  -0.073583  0  -0.086979  -0.125014  0  3.973334  0
C  C114  1  0.41157995  0.75874750  0.73649801  1  -0.03136  0  -0.085191  -0.059455  0  3.996925  0
C  C115  1  0.29169821  0.77931593  0.76394745  1  0.065796  0  -0.082636  -0.07216  0  3.992438  0
C  C116  1  0.22175677  0.85664918  0.72842045  1  -0.134287  0  -0.090174  -0.082965  0  4.026868  0
C  C117  1  0.27122031  0.91307055  0.66561320  1  -0.011042  0  -0.086287  -0.119758  0  3.986783  0
N  N118  1  0.53356883  0.26466770  0.51954543  1  -1.188975  0  -0.286115  -0.3  0  3.106548  0
N  N119  1  0.46636869  0.73529982  0.48047521  1  -1.188568  0  -0.285799  -0.299478  0  3.105043  0
O  O120  1  0.45777299  0.58071414  0.61281325  1  -1.152849  0  -0.314908  -0.560234  0  2.267873  0
O  O121  1  0.54188277  0.41906496  0.38714580  1  -1.152712  0  -0.314883  -0.559765  0  2.268248  0
O  O122  1  0.54270211  0.57519702  0.36343219  1  -1.127673  0  -0.308689  -0.525931  0  2.243641  0
O  O123  1  0.45749727  0.42457199  0.63672216  1  -1.130979  0  -0.309182  -0.526884  0  2.241368  0
O  O124  1  0.32241442  0.56269933  0.44881792  1  -1.168674  0  -0.313502  -0.55103  0  2.399028  0
O  O125  1  0.67747596  0.43739293  0.55097436  1  -1.168509  0  -0.31368  -0.550988  0  2.399902  0
O  O126  1  0.67873780  0.58743272  0.50929925  1  -1.154414  0  -0.310053  -0.536912  0  2.365064  0
O  O127  1  0.32116911  0.41274465  0.49087752  1  -1.15311  0  -0.309819  -0.536058  0  2.364227  0
