# generated using pymatgen
data_Zn3H16C44(I2O3)4
_symmetry_space_group_name_H-M   'P 1'
_cell_length_a   18.57080810
_cell_length_b   29.24598376
_cell_length_c   29.24601901
_cell_angle_alpha   84.21680206
_cell_angle_beta   71.48756588
_cell_angle_gamma   71.48790856
_symmetry_Int_Tables_number   1
_chemical_formula_structural   Zn3H16C44(I2O3)4
_chemical_formula_sum   'Zn6 H32 C88 I16 O24'
_cell_volume   14282.84549405
_cell_formula_units_Z   2
loop_
 _symmetry_equiv_pos_site_id
 _symmetry_equiv_pos_as_xyz
  1  'x, y, z'
loop_
 _atom_site_type_symbol
 _atom_site_label
 _atom_site_symmetry_multiplicity
 _atom_site_fract_x
 _atom_site_fract_y
 _atom_site_fract_z
 _atom_site_occupancy
 _atom_site_pbe_bader_charge
 _atom_site_pbe_bader_spin_density
 _atom_site_pbe_cm5_charge
 _atom_site_pbe_ddec_charge
 _atom_site_pbe_ddec_spin_density
 _atom_site_pbe_ddec_sum_bond_order
 _atom_site_pbe_magmom
Zn  Zn0  1  0.46706947  0.53288365  0.53289961  1  1.296566  0  0.740323  0.977052  0  2.06964  0
Zn  Zn1  1  0.43024352  0.99999227  0.99999056  1  1.295158  0  0.738718  1.003327  0  2.008353  0
Zn  Zn2  1  0.56975852  0.00000909  0.00000557  1  1.296119  0  0.73875  1.003363  0  2.008387  0
Zn  Zn3  1  0.99999640  0.46710860  0.53289205  1  1.312074  0  0.739714  0.976553  0  2.070009  0
Zn  Zn4  1  0.53292612  0.46710040  0.46711625  1  1.307833  0  0.740345  0.977084  0  2.069582  0
Zn  Zn5  1  0.99999669  0.53289026  0.46711056  1  1.293576  0  0.74015  0.976659  0  2.070039  0
H  H6  1  0.47078828  0.78500154  0.12898977  1  0.097848  0  0.103786  0.117665  0  1.002644  0
H  H7  1  0.59979022  0.87105879  0.78500397  1  0.087564  0  0.104082  0.118195  0  1.001493  0
H  H8  1  0.38482082  0.21501559  0.87103608  1  0.085512  0  0.103818  0.118403  0  1.001462  0
H  H9  1  0.25593400  0.12895365  0.21500265  1  0.093692  0  0.104471  0.118727  0  1.002159  0
H  H10  1  0.61518388  0.12896378  0.78498400  1  0.08542  0  0.103881  0.118449  0  1.00144  0
H  H11  1  0.74406631  0.78499736  0.87104689  1  0.093765  0  0.104474  0.11874  0  1.002129  0
H  H12  1  0.52920965  0.87101063  0.21499861  1  0.097892  0  0.103782  0.117675  0  1.002599  0
H  H13  1  0.40021369  0.21499400  0.12894150  1  0.087672  0  0.104097  0.118203  0  1.001522  0
H  H14  1  0.39008234  0.77587135  0.21299152  1  0.056996  0  0.104199  0.119525  0  0.998429  0
H  H15  1  0.83393764  0.77593495  0.78706228  1  0.078163  0  0.104299  0.119101  0  0.999981  0
H  H16  1  0.37896110  0.22408485  0.78700036  1  0.074282  0  0.10415  0.118853  0  0.999235  0
H  H17  1  0.39696894  0.22414331  0.21300721  1  0.063634  0  0.10469  0.119608  0  0.998651  0
H  H18  1  0.62104341  0.21300098  0.77591278  1  0.074031  0  0.104175  0.118769  0  0.999273  0
H  H19  1  0.60303077  0.78699335  0.77585742  1  0.063649  0  0.104694  0.119594  0  0.998655  0
H  H20  1  0.60991523  0.78701020  0.22412843  1  0.056997  0  0.104206  0.119534  0  0.998477  0
H  H21  1  0.16606480  0.21293724  0.22406478  1  0.078177  0  0.104326  0.119128  0  1.000019  0
H  H22  1  0.55691920  0.61654137  0.27369760  1  0.071552  0  0.104802  0.112115  0  0.983003  0
H  H23  1  0.83064611  0.72631596  0.61655041  1  0.074314  0  0.104683  0.111751  0  0.983221  0
H  H24  1  0.44714507  0.38344014  0.72631748  1  0.071711  0  0.105067  0.112081  0  0.98246  0
H  H25  1  0.17341680  0.27368034  0.38342386  1  0.074201  0  0.104837  0.111841  0  0.983105  0
H  H26  1  0.55285445  0.27368242  0.61655922  1  0.071725  0  0.105127  0.112223  0  0.982294  0
H  H27  1  0.82659114  0.61657615  0.72631991  1  0.074089  0  0.10484  0.111816  0  0.983099  0
H  H28  1  0.44308266  0.72630238  0.38345891  1  0.071522  0  0.10479  0.112125  0  0.983005  0
H  H29  1  0.16935093  0.38344938  0.27368361  1  0.07428  0  0.104684  0.111715  0  0.983244  0
H  H30  1  0.55692059  0.55297365  0.33750536  1  0.099736  0  0.109236  0.115782  0  0.986205  0
H  H31  1  0.89439462  0.66250516  0.55298254  1  0.103324  0  0.109333  0.115913  0  0.987444  0
H  H32  1  0.44734224  0.44701615  0.66251299  1  0.099482  0  0.109508  0.115838  0  0.986766  0
H  H33  1  0.10997502  0.33749113  0.44700052  1  0.103143  0  0.109232  0.115861  0  0.98751  0
H  H34  1  0.55265749  0.33748704  0.55298267  1  0.099416  0  0.109506  0.115862  0  0.986754  0
H  H35  1  0.89002988  0.55299902  0.66250882  1  0.103124  0  0.109196  0.11577  0  0.987564  0
H  H36  1  0.44307906  0.66249414  0.44702670  1  0.099726  0  0.10922  0.115769  0  0.986212  0
H  H37  1  0.10559940  0.44701751  0.33749480  1  0.10333  0  0.109379  0.116005  0  0.987451  0
C  C38  1  0.49999849  0.56596154  0.43403887  1  1.536818  0  0.223945  0.602452  0  4.147943  0
C  C39  1  0.78677044  0.71331252  0.71329545  1  -0.004837  0  -0.016468  -0.00076  0  3.971155  0
C  C40  1  0.33584594  0.09909746  0.14625974  1  -0.239532  0  -0.040228  0.060432  0  3.887573  0
C  C41  1  0.56510492  0.09909734  0.85370212  1  -0.24326  0  -0.040175  0.059702  0  3.889589  0
C  C42  1  0.66415408  0.85374130  0.90090263  1  -0.239612  0  -0.040279  0.060342  0  3.887566  0
C  C43  1  0.51789334  0.90088275  0.14630246  1  -0.226144  0  -0.039765  0.060506  0  3.888623  0
C  C44  1  0.41881248  0.14629973  0.09906445  1  -0.196051  0  -0.04047  0.05966  0  3.889495  0
C  C45  1  0.48210605  0.85369752  0.09911801  1  -0.22581  0  -0.039843  0.06033  0  3.888631  0
C  C46  1  0.58119099  0.90093635  0.85369908  1  -0.195833  0  -0.040429  0.059768  0  3.889422  0
C  C47  1  0.43489922  0.14629735  0.90090240  1  -0.242707  0  -0.040122  0.059698  0  3.889607  0
C  C48  1  0.50000168  0.28669626  0.71330257  1  0.002596  0  -0.016333  -0.000304  0  3.966972  0
C  C49  1  0.48253116  0.81792766  0.13444770  1  0.002196  0  -0.096745  -0.17348  0  3.96831  0
C  C50  1  0.61694709  0.86558762  0.81794354  1  0.027636  0  -0.097593  -0.174248  0  3.965957  0
C  C51  1  0.43490555  0.18207081  0.86557127  1  0.022247  0  -0.096779  -0.174365  0  3.966032  0
C  C52  1  0.30054647  0.13441301  0.18204632  1  -0.000793  0  -0.097763  -0.174862  0  3.968092  0
C  C53  1  0.56509782  0.13442799  0.81792831  1  0.022215  0  -0.096785  -0.174419  0  3.966138  0
C  C54  1  0.69945384  0.81795412  0.86558720  1  -0.000865  0  -0.097783  -0.174889  0  3.968047  0
C  C55  1  0.51746557  0.86555354  0.18207236  1  0.002138  0  -0.096809  -0.173632  0  3.968349  0
C  C56  1  0.21323075  0.28670327  0.28668860  1  -0.004731  0  -0.016485  -0.000789  0  3.971155  0
C  C57  1  0.38305649  0.18205518  0.13441350  1  0.027565  0  -0.097631  -0.174265  0  3.96601  0
C  C58  1  0.49999818  0.82360201  0.17639906  1  0.02158  0  -0.000464  0.103536  0  3.9894  0
C  C59  1  0.49999972  0.71328888  0.28671317  1  0.021907  0  -0.015849  0.000589  0  3.969025  0
C  C60  1  0.67632737  0.82362882  0.82363441  1  0.014681  0  0.000288  0.103888  0  3.988532  0
C  C61  1  0.50000225  0.17638096  0.82361874  1  0.001081  0  -0.000412  0.104744  0  3.986563  0
C  C62  1  0.32367298  0.17636569  0.17637199  1  0.014717  0  0.000277  0.103897  0  3.988546  0
C  C63  1  0.49999869  0.89592307  0.10407702  1  0.082611  0  -0.024859  -0.089857  0  3.922706  0
C  C64  1  0.60405970  0.89597561  0.89591912  1  0.063992  0  -0.023461  -0.088816  0  3.92336  0
C  C65  1  0.50000099  0.10407937  0.89592037  1  0.112968  0  -0.024661  -0.089562  0  3.923695  0
C  C66  1  0.39594104  0.10408020  0.10402536  1  0.063824  0  -0.023436  -0.088723  0  3.923211  0
C  C67  1  0.43885922  0.76423438  0.22873323  1  0.022781  0  -0.09753  -0.171073  0  3.973624  0
C  C68  1  0.79683661  0.76427848  0.77130661  1  -0.050761  0  -0.09772  -0.170973  0  3.974519  0
C  C69  1  0.43182355  0.23574771  0.77127561  1  -0.01019  0  -0.096733  -0.168889  0  3.972003  0
C  C70  1  0.33243572  0.23576127  0.22872551  1  0.008904  0  -0.097804  -0.170634  0  3.973002  0
C  C71  1  0.56817983  0.22872494  0.76425084  1  -0.009744  0  -0.096681  -0.168545  0  3.97182  0
C  C72  1  0.66756580  0.77127457  0.76423909  1  0.008949  0  -0.097836  -0.17066  0  3.973043  0
C  C73  1  0.56113631  0.77127082  0.23576793  1  0.023068  0  -0.097605  -0.171227  0  3.973685  0
C  C74  1  0.20316545  0.22869237  0.23572185  1  -0.050792  0  -0.097752  -0.170951  0  3.974526  0
C  C75  1  0.43917420  0.72889687  0.26449475  1  -0.226035  0  -0.042679  0.035938  0  3.894323  0
C  C76  1  0.83192931  0.72895356  0.73552953  1  -0.231028  0  -0.042584  0.03696  0  3.894915  0
C  C77  1  0.43256088  0.27108305  0.73551085  1  -0.217114  0  -0.042759  0.035642  0  3.89271  0
C  C78  1  0.29628431  0.27109954  0.26449752  1  -0.215245  0  -0.042805  0.036185  0  3.893859  0
C  C79  1  0.56744271  0.26448903  0.72891545  1  -0.217244  0  -0.042723  0.035574  0  3.892753  0
C  C80  1  0.70371658  0.73550216  0.72890038  1  -0.215187  0  -0.042835  0.036121  0  3.893889  0
C  C81  1  0.56082195  0.73550926  0.27110554  1  -0.225444  0  -0.04275  0.03597  0  3.894304  0
C  C82  1  0.16807317  0.26446910  0.27104729  1  -0.231037  0  -0.042609  0.036914  0  3.894962  0
C  C83  1  0.49999706  0.78587748  0.21412500  1  -0.040974  0  -0.003498  0.095245  0  3.997302  0
C  C84  1  0.71404961  0.78589982  0.78590298  1  0.021025  0  -0.003656  0.094617  0  3.997711  0
C  C85  1  0.50000266  0.21411306  0.78588629  1  -0.007852  0  -0.00463  0.092506  0  3.995128  0
C  C86  1  0.93396751  0.56596532  0.56596916  1  1.536135  0  0.222862  0.601999  0  4.150196  0
C  C87  1  0.28595148  0.21409685  0.21410045  1  0.021058  0  -0.003714  0.094461  0  3.99772  0
C  C88  1  0.53202990  0.62650676  0.31172997  1  -0.010882  0  -0.092526  -0.139229  0  3.996335  0
C  C89  1  0.84383236  0.68827917  0.62650790  1  -0.085989  0  -0.092685  -0.138807  0  3.996091  0
C  C90  1  0.47025135  0.37348702  0.68828031  1  0.01248  0  -0.092861  -0.138876  0  3.993361  0
C  C91  1  0.15855611  0.31171641  0.37347643  1  -0.00713  0  -0.093029  -0.138643  0  3.995963  0
C  C92  1  0.52974980  0.31171936  0.62651188  1  0.012441  0  -0.092936  -0.139043  0  3.993248  0
C  C93  1  0.49999983  0.43402611  0.56597300  1  1.537406  0  0.223545  0.601084  0  4.151388  0
C  C94  1  0.84144788  0.62652443  0.68828332  1  -0.006731  0  -0.092987  -0.138562  0  3.995925  0
C  C95  1  0.46797157  0.68827048  0.37349429  1  -0.010937  0  -0.092547  -0.139289  0  3.996343  0
C  C96  1  0.15616552  0.37349100  0.31172040  1  -0.086044  0  -0.092641  -0.138693  0  3.996052  0
C  C97  1  0.06602604  0.43403099  0.43403576  1  1.536136  0  0.222886  0.601934  0  4.150111  0
C  C98  1  0.53208446  0.59101997  0.34718532  1  -0.084796  0  -0.077446  -0.071758  0  3.959448  0
C  C99  1  0.87926926  0.65282336  0.59102288  1  0.009675  0  -0.077691  -0.072151  0  3.960929  0
C  C100  1  0.47028342  0.40897453  0.65282193  1  -0.053932  0  -0.077568  -0.072074  0  3.958132  0
C  C101  1  0.12320009  0.34717511  0.40896367  1  -0.025351  0  -0.077459  -0.072558  0  3.9608  0
C  C102  1  0.52971642  0.34717766  0.59102449  1  -0.053866  0  -0.077594  -0.07215  0  3.958122  0
C  C103  1  0.87679918  0.59103653  0.65282459  1  -0.025586  0  -0.077425  -0.072415  0  3.960778  0
C  C104  1  0.46791753  0.65281505  0.40898025  1  -0.08482  0  -0.077439  -0.071751  0  3.959445  0
C  C105  1  0.12072995  0.40897710  0.34717577  1  0.009774  0  -0.077762  -0.072336  0  3.961018  0
C  C106  1  0.50000004  0.60395326  0.39604679  1  0.0096  0  -0.018188  -0.039614  0  3.969553  0
C  C107  1  0.89599412  0.60395719  0.60395578  1  -0.044682  0  -0.0178  -0.038813  0  3.969029  0
C  C108  1  0.49999989  0.39603800  0.60396166  1  -0.05426  0  -0.018247  -0.039201  0  3.970382  0
C  C109  1  0.10400338  0.39604417  0.39604263  1  -0.044632  0  -0.017804  -0.038715  0  3.968991  0
C  C110  1  0.50000015  0.67540029  0.32460023  1  0.049945  0  -0.017241  0.07696  0  4.044615  0
C  C111  1  0.82467321  0.67541295  0.67540402  1  0.00796  0  -0.01658  0.076979  0  4.044008  0
C  C112  1  0.50000074  0.32459314  0.67540616  1  0.006403  0  -0.017442  0.076676  0  4.04321  0
C  C113  1  0.17533018  0.32459526  0.32458732  1  0.007985  0  -0.016554  0.077041  0  4.043981  0
C  C114  1  0.56576885  0.93427543  0.93423335  1  1.58139  0  0.21036  0.608482  0  4.177912  0
C  C115  1  0.50000352  0.06576530  0.93423137  1  1.584085  0  0.211629  0.609799  0  4.174855  0
C  C116  1  0.43423304  0.06576487  0.06572573  1  1.581336  0  0.210411  0.608354  0  4.178044  0
C  C117  1  0.49999829  0.93424219  0.06575736  1  1.580566  0  0.212518  0.611096  0  4.174022  0
C  C118  1  0.63975683  0.50000405  0.50000401  1  1.67842  0  0.228581  0.663914  0  4.240915  0
C  C119  1  0.13974212  0.50003829  0.50003024  1  1.673179  0  0.228214  0.663862  0  4.238915  0
C  C120  1  0.36023878  0.49999587  0.49999589  1  1.678464  0  0.228523  0.663914  0  4.240972  0
C  C121  1  0.86025275  0.49996992  0.49996282  1  1.672627  0  0.228218  0.663907  0  4.238812  0
C  C122  1  0.71729645  0.49997234  0.49997079  1  0.033851  0  -0.014007  -0.100317  0  3.910738  0
C  C123  1  0.21728737  0.49999829  0.49999611  1  -0.212034  0  -0.013744  -0.100233  0  3.910301  0
C  C124  1  0.28269905  0.50002938  0.50002718  1  0.034034  0  -0.014159  -0.100599  0  3.911019  0
C  C125  1  0.78270945  0.50000307  0.50000129  1  -0.211583  0  -0.01379  -0.100397  0  3.910298  0
I  I126  1  0.45752778  0.83999720  0.03704471  1  0.126649  0  0.062797  -0.021178  0  1.407431  0
I  I127  1  0.49461459  0.96303120  0.83998913  1  0.128916  0  0.062796  -0.021068  0  1.408938  0
I  I128  1  0.33467538  0.16002778  0.96302172  1  0.128632  0  0.063122  -0.020682  0  1.409182  0
I  I129  1  0.29766873  0.03699161  0.16000475  1  0.12371  0  0.063017  -0.020919  0  1.407337  0
I  I130  1  0.66532736  0.03697835  0.83997274  1  0.128603  0  0.063151  -0.020656  0  1.409282  0
I  I131  1  0.70232935  0.83999713  0.96300871  1  0.123545  0  0.063043  -0.020864  0  1.407343  0
I  I132  1  0.54247244  0.96295505  0.16000326  1  0.126822  0  0.062811  -0.021177  0  1.407441  0
I  I133  1  0.50539001  0.16000947  0.03696916  1  0.128899  0  0.062824  -0.021023  0  1.408935  0
I  I134  1  0.34299586  0.69977843  0.28589556  1  0.100868  0  0.054815  -0.04647  0  1.307516  0
I  I135  1  0.95718238  0.69983280  0.71416611  1  0.120472  0  0.055166  -0.046258  0  1.30802  0
I  I136  1  0.32867771  0.30021857  0.71412080  1  0.102452  0  0.0548  -0.046411  0  1.306725  0
I  I137  1  0.37097737  0.30027677  0.28590917  1  0.104036  0  0.054754  -0.046587  0  1.30708  0
I  I138  1  0.67132540  0.28587812  0.69977942  1  0.102399  0  0.054788  -0.046433  0  1.3068  0
I  I139  1  0.62902033  0.71409065  0.69972425  1  0.104021  0  0.054743  -0.046588  0  1.307047  0
I  I140  1  0.65700296  0.71410669  0.30022111  1  0.100869  0  0.054821  -0.046482  0  1.307536  0
I  I141  1  0.04281916  0.28583243  0.30016493  1  0.120411  0  0.055198  -0.046216  0  1.307995  0
O  O142  1  0.47072208  0.57997502  0.47805289  1  -1.150013  0  -0.314956  -0.551362  0  2.288534  0
O  O143  1  0.94869685  0.52195554  0.57999377  1  -1.150212  0  -0.314042  -0.551153  0  2.288721  0
O  O144  1  0.52881626  0.42000254  0.52196102  1  -1.150022  0  -0.314668  -0.550583  0  2.289589  0
O  O145  1  0.05078278  0.47804654  0.42002518  1  -1.15009  0  -0.314518  -0.550926  0  2.289135  0
O  O146  1  0.47117994  0.47803950  0.57999639  1  -1.150002  0  -0.31468  -0.550622  0  2.289392  0
O  O147  1  0.94921079  0.57997580  0.52195372  1  -1.150106  0  -0.314414  -0.550936  0  2.289247  0
O  O148  1  0.52927423  0.52194743  0.42002645  1  -1.150093  0  -0.314925  -0.55133  0  2.288476  0
O  O149  1  0.05129804  0.42000608  0.47804583  1  -1.150292  0  -0.314029  -0.551178  0  2.288735  0
O  O150  1  0.58022242  0.52928985  0.52910858  1  -1.130992  0  -0.307264  -0.539612  0  2.218273  0
O  O151  1  0.10932339  0.47093130  0.52931927  1  -1.128977  0  -0.307192  -0.539465  0  2.217158  0
O  O152  1  0.63867603  0.47070372  0.47088668  1  -1.132955  0  -0.307366  -0.539106  0  2.217317  0
O  O153  1  0.10955088  0.52911850  0.47070942  1  -1.127811  0  -0.307056  -0.538952  0  2.217112  0
O  O154  1  0.36132023  0.52911303  0.52929566  1  -1.132888  0  -0.307221  -0.538964  0  2.217346  0
O  O155  1  0.89044283  0.52929255  0.47088339  1  -1.127663  0  -0.3071  -0.538982  0  2.21693  0
O  O156  1  0.41977385  0.47089108  0.47070979  1  -1.130963  0  -0.307284  -0.53964  0  2.21829  0
O  O157  1  0.89067169  0.47068165  0.52907005  1  -1.128763  0  -0.30722  -0.53951  0  2.217096  0
O  O158  1  0.61121342  0.95466180  0.94302727  1  -1.143542  0  -0.309717  -0.547611  0  2.343267  0
O  O159  1  0.55421772  0.05699758  0.95464070  1  -1.152467  0  -0.310611  -0.54831  0  2.340337  0
O  O160  1  0.50885709  0.04535022  0.05696934  1  -1.158088  0  -0.31004  -0.547515  0  2.340659  0
O  O161  1  0.56585510  0.94301300  0.04536057  1  -1.150489  0  -0.311094  -0.549058  0  2.341098  0
O  O162  1  0.49114507  0.94303122  0.95464815  1  -1.158154  0  -0.309973  -0.547505  0  2.340658  0
O  O163  1  0.43414017  0.95463620  0.05698708  1  -1.150406  0  -0.311079  -0.54893  0  2.340714  0
O  O164  1  0.38878826  0.05697065  0.04533988  1  -1.143462  0  -0.309739  -0.547534  0  2.343359  0
O  O165  1  0.44578989  0.04535450  0.94299958  1  -1.152517  0  -0.310604  -0.548409  0  2.34048  0
