# generated using pymatgen
data_AgPH20C18N4(OF)2
_symmetry_space_group_name_H-M   'P 1'
_cell_length_a   7.97409404
_cell_length_b   11.01080136
_cell_length_c   12.36942196
_cell_angle_alpha   105.25709925
_cell_angle_beta   104.95610743
_cell_angle_gamma   102.61465479
_symmetry_Int_Tables_number   1
_chemical_formula_structural   AgPH20C18N4(OF)2
_chemical_formula_sum   'Ag2 P2 H40 C36 N8 O4 F4'
_cell_volume   963.33752840
_cell_formula_units_Z   2
loop_
 _symmetry_equiv_pos_site_id
 _symmetry_equiv_pos_as_xyz
  1  'x, y, z'
loop_
 _atom_site_type_symbol
 _atom_site_label
 _atom_site_symmetry_multiplicity
 _atom_site_fract_x
 _atom_site_fract_y
 _atom_site_fract_z
 _atom_site_occupancy
 _atom_site_hle17_bader_spin_density
 _atom_site_hle17_ddec_charge
 _atom_site_hle17_ddec_spin_density
 _atom_site_hle17_ddec_sum_bond_order
 _atom_site_hle17_magmom
 _atom_site_hse06_10hf_bader_spin_density
 _atom_site_hse06_10hf_ddec_charge
 _atom_site_hse06_10hf_ddec_spin_density
 _atom_site_hse06_10hf_ddec_sum_bond_order
 _atom_site_hse06_10hf_magmom
 _atom_site_hse06_bader_spin_density
 _atom_site_hse06_ddec_charge
 _atom_site_hse06_ddec_spin_density
 _atom_site_hse06_ddec_sum_bond_order
 _atom_site_hse06_magmom
 _atom_site_pbe_bader_spin_density
 _atom_site_pbe_cm5_charge
 _atom_site_pbe_ddec_charge
 _atom_site_pbe_ddec_spin_density
 _atom_site_pbe_ddec_sum_bond_order
 _atom_site_pbe_magmom
Ag  Ag0  1  0.42749597  0.24222296  0.16180942  1  0  0.513394  0  1.472742  0  0  0.366439  0  1.923059  0  0  0.391191  0  1.88173  0  0  0.486079  0.350924  0  1.95069  0
Ag  Ag1  1  0.57250630  0.75777494  0.83819043  1  0  0.513388  0  1.472715  0  0  0.366423  0  1.923024  0  0  0.391173  0  1.881693  0  0  0.486064  0.350908  0  1.950662  0
P  P2  1  0.25991137  0.89901533  0.22497848  1  0  1.646568  0  4.93449  0  0  1.460978  0  5.503967  0  0  1.526638  0  5.436269  0  0  0.41477  1.414714  0  5.551095  0
P  P3  1  0.74008116  0.10098051  0.77502348  1  0  1.646547  0  4.934667  0  0  1.460988  0  5.504113  0  0  1.526646  0  5.436427  0  0  0.414808  1.414696  0  5.551272  0
H  H4  1  0.65530673  0.51801300  0.34372189  1  0  0.069713  0  0.986373  0  0  0.072886  0  1.06451  0  0  0.075742  0  1.061252  0  0  0.109857  0.070813  0  1.067019  0
H  H5  1  0.34469133  0.48199373  0.65627947  1  0  0.069755  0  0.986289  0  0  0.072914  0  1.064429  0  0  0.07577  0  1.061171  0  0  0.109903  0.070866  0  1.066916  0
H  H6  1  0.81837826  0.52489592  0.70461928  1  0  0.086766  0  0.959146  0  0  0.09834  0  1.020885  0  0  0.100072  0  1.020433  0  0  0.101262  0.097087  0  1.021216  0
H  H7  1  0.18161479  0.47510485  0.29537990  1  0  0.086756  0  0.959156  0  0  0.098308  0  1.02092  0  0  0.100041  0  1.020467  0  0  0.101241  0.097053  0  1.021254  0
H  H8  1  0.66550975  0.27880271  0.62686641  1  0  0.105434  0  0.966474  0  0  0.111641  0  1.032152  0  0  0.115057  0  1.030097  0  0  0.105223  0.109  0  1.034105  0
H  H9  1  0.33449089  0.72119813  0.37312906  1  0  0.105403  0  0.96648  0  0  0.111623  0  1.032148  0  0  0.115034  0  1.030092  0  0  0.105234  0.108985  0  1.034095  0
H  H10  1  0.50807933  0.16508050  0.40819353  1  0  0.08427  0  0.960287  0  0  0.089649  0  1.029004  0  0  0.092265  0  1.026232  0  0  0.11334  0.087762  0  1.030497  0
H  H11  1  0.49192248  0.83492331  0.59180203  1  0  0.084341  0  0.960324  0  0  0.089714  0  1.029035  0  0  0.092327  0  1.026267  0  0  0.11335  0.087819  0  1.030535  0
H  H12  1  0.86090177  0.74047813  0.65953136  1  0  0.045097  0  0.959959  0  0  0.05415  0  1.036742  0  0  0.056304  0  1.034694  0  0  0.098024  0.0525  0  1.038327  0
H  H13  1  0.13910798  0.25952871  0.34047096  1  0  0.045193  0  0.959911  0  0  0.054209  0  1.03672  0  0  0.056366  0  1.034669  0  0  0.098076  0.052559  0  1.03831  0
H  H14  1  0.90946179  0.92699940  0.61501350  1  0  0.016816  0  0.928329  0  0  0.033974  0  0.990159  0  0  0.033386  0  0.99088  0  0  0.09352  0.0342  0  0.989967  0
H  H15  1  0.09054089  0.07300639  0.38498428  1  0  0.016855  0  0.928362  0  0  0.034039  0  0.990165  0  0  0.033453  0  0.990884  0  0  0.093527  0.034263  0  0.989973  0
H  H16  1  0.66358292  0.89908607  0.43033723  1  0  0.074101  0  0.954017  0  0  0.086857  0  1.023268  0  0  0.087741  0  1.02311  0  0  0.083114  0.085214  0  1.02455  0
H  H17  1  0.33641820  0.10091576  0.56966017  1  0  0.074104  0  0.95412  0  0  0.086851  0  1.023356  0  0  0.087745  0  1.023185  0  0  0.083134  0.085206  0  1.02464  0
H  H18  1  0.81123453  0.87428436  0.34708407  1  0  0.075165  0  0.930197  0  0  0.096381  0  0.988449  0  0  0.097044  0  0.98866  0  0  0.091058  0.095699  0  0.988488  0
H  H19  1  0.18877174  0.12572048  0.65291563  1  0  0.075194  0  0.93016  0  0  0.09641  0  0.988388  0  0  0.097062  0  0.988613  0  0  0.091071  0.095728  0  0.988428  0
H  H20  1  0.13283477  0.87020917  0.45128588  1  0  0.078625  0  0.948031  0  0  0.092995  0  1.015494  0  0  0.094048  0  1.015356  0  0  0.0884  0.091921  0  1.016034  0
H  H21  1  0.86716596  0.12979463  0.54871436  1  0  0.07859  0  0.948022  0  0  0.092971  0  1.015487  0  0  0.094023  0  1.015347  0  0  0.088405  0.091896  0  1.016029  0
H  H22  1  0.20176820  0.89333688  0.60507505  1  0  0.060604  0  0.950196  0  0  0.078041  0  1.014754  0  0  0.077507  0  1.01697  0  0  0.083658  0.07869  0  1.011975  0
H  H23  1  0.79823509  0.10666694  0.39492477  1  0  0.060593  0  0.950204  0  0  0.078035  0  1.014775  0  0  0.077499  0  1.016993  0  0  0.083649  0.07868  0  1.012  0
H  H24  1  0.75783194  0.34009407  0.07410129  1  0  0.065176  0  0.964317  0  0  0.070688  0  1.0399  0  0  0.073483  0  1.037004  0  0  0.1082  0.068642  0  1.042052  0
H  H25  1  0.24216884  0.65989988  0.92589981  1  0  0.065248  0  0.964255  0  0  0.070716  0  1.039864  0  0  0.073511  0  1.036971  0  0  0.108222  0.068673  0  1.042014  0
H  H26  1  0.11271261  0.09596908  0.10788547  1  0  0.097582  0  1.007067  0  0  0.10785  0  1.074519  0  0  0.111382  0  1.070593  0  0  0.098741  0.10519  0  1.077501  0
H  H27  1  0.88728991  0.90402588  0.89211695  1  0  0.097572  0  1.007127  0  0  0.107871  0  1.074521  0  0  0.111403  0  1.070591  0  0  0.098754  0.105203  0  1.07752  0
H  H28  1  0.87753710  0.94569741  0.14910765  1  0  0.126481  0  0.958554  0  0  0.134929  0  1.018137  0  0  0.138433  0  1.017402  0  0  0.112669  0.132434  0  1.018928  0
H  H29  1  0.12246414  0.05429458  0.85089224  1  0  0.126453  0  0.958666  0  0  0.134989  0  1.018136  0  0  0.138491  0  1.017402  0  0  0.11266  0.132462  0  1.018968  0
H  H30  1  0.58656273  0.00207739  0.15333769  1  0  0.090565  0  0.956198  0  0  0.097497  0  1.020467  0  0  0.100597  0  1.01723  0  0  0.115829  0.095255  0  1.022701  0
H  H31  1  0.41343935  0.99791657  0.84666361  1  0  0.090545  0  0.956207  0  0  0.097512  0  1.020436  0  0  0.10061  0  1.017207  0  0  0.115856  0.095268  0  1.022667  0
H  H32  1  0.01321451  0.39060111  0.01706192  1  0  0.054122  0  0.934681  0  0  0.064532  0  1.006105  0  0  0.066911  0  1.001614  0  0  0.110413  0.062482  0  1.009924  0
H  H33  1  0.98678760  0.60939285  0.98294020  1  0  0.054094  0  0.934612  0  0  0.064613  0  1.005936  0  0  0.067008  0  1.001442  0  0  0.110458  0.062563  0  1.009754  0
H  H34  1  0.24574958  0.49265948  0.99987135  1  0  0.021659  0  0.924468  0  0  0.041031  0  0.982621  0  0  0.039872  0  0.98341  0  0  0.098696  0.041753  0  0.982211  0
H  H35  1  0.75424759  0.50733837  0.00013017  1  0  0.021616  0  0.924462  0  0  0.040984  0  0.982632  0  0  0.039823  0  0.983421  0  0  0.098659  0.041703  0  0.982227  0
H  H36  1  0.60102670  0.48078674  0.15934017  1  0  0.054878  0  0.962008  0  0  0.073964  0  1.031556  0  0  0.075384  0  1.029313  0  0  0.084428  0.072698  0  1.03341  0
H  H37  1  0.39897388  0.51921311  0.84066234  1  0  0.054893  0  0.961999  0  0  0.073965  0  1.031562  0  0  0.075386  0  1.029316  0  0  0.084418  0.072705  0  1.03341  0
H  H38  1  0.47938762  0.59136237  0.20128270  1  0  0.088799  0  0.924616  0  0  0.106323  0  0.983337  0  0  0.107215  0  0.983829  0  0  0.095519  0.105754  0  0.982793  0
H  H39  1  0.52061035  0.40863746  0.79871941  1  0  0.088825  0  0.924662  0  0  0.10634  0  0.983387  0  0  0.107229  0  0.98388  0  0  0.095534  0.105772  0  0.982839  0
H  H40  1  0.53489584  0.69768475  0.05439776  1  0  0.070931  0  0.952715  0  0  0.083093  0  1.029054  0  0  0.084472  0  1.027728  0  0  0.085838  0.082119  0  1.029848  0
H  H41  1  0.46509907  0.30231110  0.94559970  1  0  0.070962  0  0.952742  0  0  0.083157  0  1.029052  0  0  0.084535  0  1.027726  0  0  0.085888  0.082178  0  1.029851  0
H  H42  1  0.74413976  0.70056376  0.15036011  1  0  0.109207  0  0.925721  0  0  0.128499  0  0.978823  0  0  0.129887  0  0.978887  0  0  0.101618  0.127495  0  0.978886  0
H  H43  1  0.25585948  0.29943608  0.84964138  1  0  0.10922  0  0.925662  0  0  0.128512  0  0.978791  0  0  0.1299  0  0.978853  0  0  0.101627  0.127509  0  0.978854  0
C  C44  1  0.66013711  0.46601081  0.40757502  1  0  0.088896  0  3.701476  0  0  0.054391  0  3.94353  0  0  0.060363  0  3.962331  0  0  0.04678  0.049758  0  3.931896  0
C  C45  1  0.33985877  0.53399392  0.59242392  1  0  0.088699  0  3.701575  0  0  0.054211  0  3.9436  0  0  0.060182  0  3.962403  0  0  0.046624  0.049518  0  3.93204  0
C  C46  1  0.75058657  0.53921166  0.52836066  1  0  0.000869  0  3.809051  0  0  0.024052  0  4.036557  0  0  0.01842  0  4.061464  0  0  -0.007778  0.027639  0  4.019461  0
C  C47  1  0.24941236  0.46079409  0.47163979  1  0  0.000867  0  3.809064  0  0  0.024061  0  4.036516  0  0  0.018427  0  4.061425  0  0  -0.007757  0.027652  0  4.019417  0
C  C48  1  0.75183265  0.47134068  0.60947446  1  0  -0.049505  0  3.705018  0  0  -0.07074  0  3.942665  0  0  -0.06859  0  3.962837  0  0  -0.065281  -0.071255  0  3.92813  0
C  C49  1  0.24816374  0.52866209  0.39052408  1  0  -0.049451  0  3.704876  0  0  -0.070679  0  3.942509  0  0  -0.068528  0  3.962678  0  0  -0.065245  -0.071192  0  3.927973  0
C  C50  1  0.66614373  0.33536161  0.56690327  1  0  -0.104867  0  3.727724  0  0  -0.116748  0  3.979319  0  0  -0.123728  0  4.001308  0  0  -0.079712  -0.11216  0  3.96363  0
C  C51  1  0.33385599  0.66464316  0.43309464  1  0  -0.104777  0  3.727693  0  0  -0.116664  0  3.979266  0  0  -0.123637  0  4.001248  0  0  -0.079671  -0.112077  0  3.963571  0
C  C52  1  0.57869364  0.27094258  0.44498198  1  0  0.130578  0  3.683988  0  0  0.098084  0  3.940386  0  0  0.104905  0  3.958783  0  0  0.046678  0.094566  0  3.925621  0
C  C53  1  0.42130484  0.72905922  0.55501422  1  0  0.130346  0  3.684431  0  0  0.097834  0  3.940807  0  0  0.104656  0  3.959206  0  0  0.046574  0.094322  0  3.926034  0
C  C54  1  0.82934680  0.68321980  0.56485135  1  0  0.102507  0  3.750595  0  0  0.069712  0  4.007069  0  0  0.076609  0  4.024091  0  0  0.064886  0.065503  0  3.99488  0
C  C55  1  0.17065519  0.31678402  0.43514827  1  0  0.102445  0  3.750619  0  0  0.069663  0  4.007101  0  0  0.076561  0  4.024117  0  0  0.06485  0.065455  0  3.99491  0
C  C56  1  0.92012790  0.88095303  0.52679085  1  0  0.146169  0  3.671036  0  0  0.137686  0  3.91255  0  0  0.140913  0  3.92946  0  0  0.002604  0.13548  0  3.900871  0
C  C57  1  0.07987442  0.11905177  0.47320744  1  0  0.146071  0  3.671068  0  0  0.137569  0  3.912587  0  0  0.140795  0  3.929491  0  0  0.0026  0.135373  0  3.900885  0
C  C58  1  0.80651632  0.92722935  0.43470987  1  0  -0.147688  0  3.65824  0  0  -0.19306  0  3.916746  0  0  -0.194539  0  3.930123  0  0  -0.166156  -0.19208  0  3.908417  0
C  C59  1  0.19348564  0.07277446  0.56528894  1  0  -0.147677  0  3.658481  0  0  -0.192993  0  3.916883  0  0  -0.194484  0  3.930281  0  0  -0.166152  -0.192014  0  3.908555  0
C  C60  1  0.12107802  0.92361415  0.53621795  1  0  -0.147158  0  3.664605  0  0  -0.188181  0  3.915848  0  0  -0.190572  0  3.931423  0  0  -0.164408  -0.186615  0  3.904903  0
C  C61  1  0.87892386  0.07638966  0.46377924  1  0  -0.147095  0  3.664434  0  0  -0.188129  0  3.915734  0  0  -0.190518  0  3.931309  0  0  -0.164393  -0.18656  0  3.904793  0
C  C62  1  0.78899753  0.25391685  0.09166463  1  0  0.084297  0  3.70944  0  0  0.046506  0  3.958345  0  0  0.052496  0  3.977535  0  0  0.049915  0.042523  0  3.945697  0
C  C63  1  0.21100064  0.74607707  0.90833608  1  0  0.084167  0  3.7094  0  0  0.046449  0  3.958357  0  0  0.052435  0  3.977551  0  0  0.0499  0.04245  0  3.945734  0
C  C64  1  0.95448081  0.23213692  0.08755866  1  0  -0.02486  0  3.823192  0  0  0.001369  0  4.056774  0  0  -0.006869  0  4.081309  0  0  -0.01006  0.006683  0  4.040432  0
C  C65  1  0.04551990  0.76785999  0.91244396  1  0  -0.024947  0  3.823112  0  0  0.001192  0  4.056838  0  0  -0.007045  0  4.081381  0  0  -0.010116  0.006509  0  4.040492  0
C  C66  1  0.98706220  0.11935404  0.10955725  1  0  -0.029123  0  3.669496  0  0  -0.055952  0  3.910218  0  0  -0.051695  0  3.927185  0  0  -0.059205  -0.058657  0  3.899038  0
C  C67  1  0.01294318  0.88064192  0.89044260  1  0  -0.029112  0  3.669505  0  0  -0.055987  0  3.910419  0  0  -0.051696  0  3.927301  0  0  -0.059255  -0.058689  0  3.899218  0
C  C68  1  0.85470677  0.03438320  0.13269228  1  0  -0.112954  0  3.691255  0  0  -0.124474  0  3.947013  0  0  -0.132243  0  3.966706  0  0  -0.076701  -0.119702  0  3.934417  0
C  C69  1  0.14529948  0.96561475  0.86730980  1  0  -0.113007  0  3.691464  0  0  -0.124596  0  3.947172  0  0  -0.13236  0  3.966867  0  0  -0.076685  -0.119798  0  3.934589  0
C  C70  1  0.69464672  0.06476927  0.13530519  1  0  0.146426  0  3.6458  0  0  0.112387  0  3.900687  0  0  0.121311  0  3.915732  0  0  0.055657  0.106524  0  3.890662  0
C  C71  1  0.30535369  0.93522369  0.86469643  1  0  0.14647  0  3.645814  0  0  0.112445  0  3.900665  0  0  0.121361  0  3.91572  0  0  0.055678  0.106595  0  3.890613  0
C  C72  1  0.07701094  0.32646843  0.05707091  1  0  0.156566  0  3.710277  0  0  0.108529  0  3.969825  0  0  0.12219  0  3.983205  0  0  0.083292  0.099  0  3.961562  0
C  C73  1  0.92299362  0.67353147  0.94293381  1  0  0.156835  0  3.710127  0  0  0.108731  0  3.969703  0  0  0.12237  0  3.983107  0  0  0.083369  0.099204  0  3.961436  0
C  C74  1  0.33965458  0.43765168  0.02840877  1  0  0.15108  0  3.638063  0  0  0.137413  0  3.877233  0  0  0.140893  0  3.896148  0  0  0.002333  0.135223  0  3.864183  0
C  C75  1  0.66034510  0.56234325  0.97158837  1  0  0.151262  0  3.637854  0  0  0.137575  0  3.877013  0  0  0.141058  0  3.895926  0  0  0.002404  0.135383  0  3.863965  0
C  C76  1  0.51292984  0.53685314  0.12580049  1  0  -0.146392  0  3.657064  0  0  -0.192671  0  3.915642  0  0  -0.194191  0  3.929018  0  0  -0.163067  -0.191352  0  3.906153  0
C  C77  1  0.48706718  0.46314471  0.87419776  1  0  -0.146432  0  3.65709  0  0  -0.192687  0  3.915697  0  0  -0.194205  0  3.92907  0  0  -0.163056  -0.191371  0  3.906208  0
C  C78  1  0.61670694  0.63462169  0.07994478  1  0  -0.157026  0  3.631568  0  0  -0.19933  0  3.884161  0  0  -0.201773  0  3.898306  0  0  -0.163126  -0.197408  0  3.874205  0
C  C79  1  0.38329525  0.36537622  0.92005345  1  0  -0.157002  0  3.631686  0  0  -0.199363  0  3.884347  0  0  -0.201799  0  3.898481  0  0  -0.163166  -0.19744  0  3.874389  0
N  N80  1  0.57502815  0.33560471  0.36610085  1  0  -0.317  0  3.296512  0  0  -0.241021  0  3.581842  0  0  -0.258614  0  3.597718  0  0  -0.337165  -0.228802  0  3.569758  0
N  N81  1  0.42497105  0.66439908  0.63389431  1  0  -0.316752  0  3.296613  0  0  -0.240725  0  3.58184  0  0  -0.258319  0  3.597723  0  0  -0.337016  -0.228497  0  3.569747  0
N  N82  1  0.85264823  0.73794890  0.48851361  1  0  -0.316338  0  3.026258  0  0  -0.278374  0  3.299909  0  0  -0.291418  0  3.316899  0  0  -0.313861  -0.268911  0  3.287648  0
N  N83  1  0.14735159  0.26205588  0.51148674  1  0  -0.316361  0  3.026425  0  0  -0.27841  0  3.300098  0  0  -0.291451  0  3.317085  0  0  -0.313892  -0.268946  0  3.287834  0
N  N84  1  0.66252743  0.17393292  0.11600428  1  0  -0.297341  0  3.275857  0  0  -0.223895  0  3.564065  0  0  -0.240495  0  3.57843  0  0  -0.334673  -0.212895  0  3.554212  0
N  N85  1  0.33747212  0.82606102  0.88399826  1  0  -0.297239  0  3.275849  0  0  -0.223837  0  3.564056  0  0  -0.240435  0  3.578421  0  0  -0.334703  -0.212832  0  3.554196  0
N  N86  1  0.24682875  0.34026515  0.07243650  1  0  -0.327284  0  3.212669  0  0  -0.244325  0  3.506647  0  0  -0.264071  0  3.521427  0  0  -0.337833  -0.231641  0  3.496979  0
N  N87  1  0.75317358  0.65972980  0.92756184  1  0  -0.327509  0  3.212707  0  0  -0.244547  0  3.506749  0  0  -0.264296  0  3.521535  0  0  -0.337907  -0.231864  0  3.497084  0
O  O88  1  0.32161766  0.01196828  0.18484399  1  0  -0.84986  0  1.956452  0  0  -0.781072  0  2.233842  0  0  -0.807941  0  2.209626  0  0  -0.371416  -0.762317  0  2.250414  0
O  O89  1  0.67836342  0.98802546  0.81515091  1  0  -0.849924  0  1.956564  0  0  -0.781138  0  2.233988  0  0  -0.807992  0  2.209728  0  0  -0.371466  -0.762381  0  2.250575  0
O  O90  1  0.06664693  0.82803145  0.20192931  1  0  -0.828943  0  1.851012  0  0  -0.77685  0  2.099148  0  0  -0.802539  0  2.077941  0  0  -0.369725  -0.758424  0  2.11352  0
O  O91  1  0.93335548  0.17196842  0.79808479  1  0  -0.828867  0  1.850882  0  0  -0.776818  0  2.098997  0  0  -0.802514  0  2.077796  0  0  -0.369742  -0.758396  0  2.113394  0
F  F92  1  0.35844633  0.79126275  0.18248404  1  0  -0.402463  0  1.107558  0  0  -0.335286  0  1.283778  0  0  -0.349825  0  1.262673  0  0  -0.117582  -0.325002  0  1.29827  0
F  F93  1  0.64154751  0.20873310  0.81751811  1  0  -0.402413  0  1.107633  0  0  -0.335256  0  1.283862  0  0  -0.34978  0  1.26274  0  0  -0.117578  -0.324976  0  1.298365  0
F  F94  1  0.37086168  0.94303466  0.36428437  1  0  -0.384628  0  1.149753  0  0  -0.318949  0  1.330173  0  0  -0.333707  0  1.309293  0  0  -0.094713  -0.308083  0  1.344691  0
F  F95  1  0.62914583  0.05697315  0.63571704  1  0  -0.384655  0  1.149857  0  0  -0.318984  0  1.330276  0  0  -0.333742  0  1.309388  0  0  -0.094679  -0.30806  0  1.344747  0
