# generated using pymatgen
data_CdH4C2(N4O)2
_symmetry_space_group_name_H-M   'P 1'
_cell_length_a   6.64693879
_cell_length_b   8.97405062
_cell_length_c   13.13434121
_cell_angle_alpha   75.01894300
_cell_angle_beta   80.53923216
_cell_angle_gamma   68.29514446
_symmetry_Int_Tables_number   1
_chemical_formula_structural   CdH4C2(N4O)2
_chemical_formula_sum   'Cd4 H16 C8 N32 O8'
_cell_volume   701.10819807
_cell_formula_units_Z   4
loop_
 _symmetry_equiv_pos_site_id
 _symmetry_equiv_pos_as_xyz
  1  'x, y, z'
loop_
 _atom_site_type_symbol
 _atom_site_label
 _atom_site_symmetry_multiplicity
 _atom_site_fract_x
 _atom_site_fract_y
 _atom_site_fract_z
 _atom_site_occupancy
 _atom_site_pbe_bader_spin_density
 _atom_site_pbe_cm5_charge
 _atom_site_pbe_ddec_charge
 _atom_site_pbe_ddec_spin_density
 _atom_site_pbe_ddec_sum_bond_order
 _atom_site_pbe_magmom
Cd  Cd0  1  0.74151261  0.99094354  0.21027414  1  0  0.813387  0.819703  0  2.178902  0
Cd  Cd1  1  0.25848338  0.00905674  0.78972524  1  0  0.813373  0.819665  0  2.178886  0
Cd  Cd2  1  0.73782264  0.47046574  0.27967135  1  0  0.813837  0.831611  0  2.252966  0
Cd  Cd3  1  0.26217586  0.52953576  0.72032913  1  0  0.813823  0.831578  0  2.252996  0
H  H4  1  0.31495447  0.01747276  0.33025792  1  0  0.280986  0.335964  0  1.025219  0
H  H5  1  0.68504458  0.98252751  0.66974349  1  0  0.280985  0.335954  0  1.025236  0
H  H6  1  0.27517314  0.16548355  0.22790937  1  0  0.287791  0.376655  0  0.966509  0
H  H7  1  0.72482439  0.83451673  0.77209065  1  0  0.287797  0.376659  0  0.966496  0
H  H8  1  0.18337866  0.86095791  0.11758049  1  0  0.289487  0.334719  0  1.032339  0
H  H9  1  0.81661929  0.13904482  0.88241830  1  0  0.289493  0.334729  0  1.032332  0
H  H10  1  0.21404441  0.95290601  0.20050332  1  0  0.293483  0.393681  0  0.936548  0
H  H11  1  0.78595312  0.04709427  0.79949746  1  0  0.293467  0.393659  0  0.93658  0
H  H12  1  0.17938947  0.45821707  0.19372276  1  0  0.289128  0.361522  0  0.981882  0
H  H13  1  0.82061167  0.54178196  0.80627717  1  0  0.289152  0.361587  0  0.981802  0
H  H14  1  0.18802379  0.36718933  0.31700270  1  0  0.284574  0.346882  0  1.011445  0
H  H15  1  0.81197721  0.63281339  0.68299660  1  0  0.284571  0.346872  0  1.011459  0
H  H16  1  0.30892758  0.56830277  0.37954769  1  0  0.287202  0.338276  0  1.028962  0
H  H17  1  0.69107092  0.43169872  0.62045279  1  0  0.287221  0.338262  0  1.02898  0
H  H18  1  0.28030400  0.69553983  0.26613580  1  0  0.285368  0.393381  0  0.937881  0
H  H19  1  0.71969200  0.30446045  0.73386434  1  0  0.285377  0.393398  0  0.937858  0
C  C20  1  0.74318697  0.47644959  0.03468897  1  0  0.21907  0.198629  0  4.089277  0
C  C21  1  0.25682749  0.52354695  0.96531258  1  0  0.219112  0.198596  0  4.089244  0
C  C22  1  0.73931249  0.63766644  0.03704427  1  0  0.213581  0.185718  0  4.109768  0
C  C23  1  0.26069848  0.36232766  0.96295724  1  0  0.213612  0.185764  0  4.109751  0
C  C24  1  0.76540120  0.81508380  0.45733830  1  0  0.219778  0.19547  0  4.104031  0
C  C25  1  0.23459926  0.18492014  0.54266006  1  0  0.219762  0.19541  0  4.104074  0
C  C26  1  0.76114896  0.97796384  0.45476159  1  0  0.219855  0.195002  0  4.103602  0
C  C27  1  0.23884691  0.02204012  0.54523792  1  0  0.219817  0.195005  0  4.103571  0
N  N28  1  0.76355668  0.41437355  0.94900501  1  0  -0.197871  -0.2279  0  3.213084  0
N  N29  1  0.23645374  0.58562178  0.05099709  1  0  -0.197941  -0.227936  0  3.212955  0
N  N30  1  0.75990186  0.26180194  0.98746569  1  0  -0.076562  -0.052819  0  3.294909  0
N  N31  1  0.24009775  0.73819710  0.01253209  1  0  -0.076577  -0.052851  0  3.29487  0
N  N32  1  0.73840424  0.23370832  0.09218772  1  0  -0.108864  -0.053287  0  3.469624  0
N  N33  1  0.26159244  0.76628706  0.90781018  1  0  -0.108766  -0.053194  0  3.469443  0
N  N34  1  0.72781264  0.36630915  0.12439218  1  0  -0.225253  -0.252193  0  3.350079  0
N  N35  1  0.27219125  0.63368375  0.87560784  1  0  -0.225307  -0.252188  0  3.350061  0
N  N36  1  0.72927060  0.67990897  0.12920385  1  0  -0.238359  -0.246159  0  3.405721  0
N  N37  1  0.27073414  0.32008883  0.87079904  1  0  -0.238322  -0.246078  0  3.405722  0
N  N38  1  0.74855911  0.76062085  0.95455938  1  0  -0.206239  -0.230293  0  3.220716  0
N  N39  1  0.25144325  0.23937206  0.04544077  1  0  -0.206248  -0.230266  0  3.220853  0
N  N40  1  0.74388460  0.88197205  0.99720510  1  0  -0.089995  -0.069514  0  3.264823  0
N  N41  1  0.25611513  0.11802332  0.00279408  1  0  -0.089985  -0.069558  0  3.265103  0
N  N42  1  0.76736051  0.76926077  0.36734414  1  0  -0.223343  -0.23803  0  3.341389  0
N  N43  1  0.23263897  0.23074195  0.63265452  1  0  -0.223355  -0.238021  0  3.341411  0
N  N44  1  0.76028579  0.61702191  0.39875057  1  0  -0.103454  -0.046709  0  3.466412  0
N  N45  1  0.23971216  0.38298082  0.60124898  1  0  -0.103398  -0.046597  0  3.46638  0
N  N46  1  0.75460699  0.57261288  0.50266925  1  0  -0.079298  -0.057305  0  3.329538  0
N  N47  1  0.24539096  0.42738985  0.49732954  1  0  -0.079331  -0.057379  0  3.329507  0
N  N48  1  0.75799917  0.69498172  0.54209846  1  0  -0.199634  -0.23448  0  3.256919  0
N  N49  1  0.24199976  0.30502223  0.45789927  1  0  -0.199605  -0.23445  0  3.256855  0
N  N50  1  0.74802567  0.04527586  0.53702599  1  0  -0.197315  -0.225709  0  3.286845  0
N  N51  1  0.25197130  0.95472564  0.46297462  1  0  -0.197315  -0.225708  0  3.286758  0
N  N52  1  0.74669048  0.19851435  0.49474447  1  0  -0.086786  -0.061741  0  3.205692  0
N  N53  1  0.25330594  0.80148838  0.50525597  1  0  -0.086772  -0.061764  0  3.205717  0
N  N54  1  0.75711090  0.22174178  0.39087233  1  0  -0.109538  -0.044945  0  3.47633  0
N  N55  1  0.24288705  0.77826095  0.60912798  1  0  -0.109567  -0.044923  0  3.476361  0
N  N56  1  0.76555243  0.08597406  0.36269961  1  0  -0.226577  -0.248525  0  3.357867  0
N  N57  1  0.23444704  0.91402867  0.63729982  1  0  -0.226554  -0.2485  0  3.357921  0
N  N58  1  0.73268896  0.83343518  0.10131954  1  0  -0.120255  -0.054039  0  3.499979  0
N  N59  1  0.26731064  0.16656386  0.89867976  1  0  -0.120296  -0.054121  0  3.500093  0
O  O60  1  0.35544488  0.04607276  0.25190973  1  0  -0.569235  -0.732608  0  2.218459  0
O  O61  1  0.64455473  0.95392629  0.74809109  1  0  -0.569239  -0.732585  0  2.218442  0
O  O62  1  0.13838270  0.88036179  0.19068375  1  0  -0.566829  -0.734971  0  2.189866  0
O  O63  1  0.86161483  0.11963849  0.80931551  1  0  -0.566816  -0.734952  0  2.189851  0
O  O64  1  0.12775120  0.37916569  0.24940296  1  0  -0.573534  -0.740687  0  2.245044  0
O  O65  1  0.87224993  0.62083334  0.75059697  1  0  -0.57356  -0.740735  0  2.245005  0
O  O66  1  0.36337188  0.58253391  0.30399114  1  0  -0.598584  -0.755316  0  2.167508  0
O  O67  1  0.63662662  0.41746759  0.69600934  1  0  -0.598607  -0.755315  0  2.167484  0
