# generated using pymatgen
data_Zn4H43C68IN16
_symmetry_space_group_name_H-M   'P 1'
_cell_length_a   17.00746121
_cell_length_b   17.01121856
_cell_length_c   18.77655883
_cell_angle_alpha   106.12993950
_cell_angle_beta   115.78030303
_cell_angle_gamma   102.36679758
_symmetry_Int_Tables_number   1
_chemical_formula_structural   Zn4H43C68IN16
_chemical_formula_sum   'Zn4 H43 C68 I1 N16'
_cell_volume   4332.43598333
_cell_formula_units_Z   1
loop_
 _symmetry_equiv_pos_site_id
 _symmetry_equiv_pos_as_xyz
  1  'x, y, z'
loop_
 _atom_site_type_symbol
 _atom_site_label
 _atom_site_symmetry_multiplicity
 _atom_site_fract_x
 _atom_site_fract_y
 _atom_site_fract_z
 _atom_site_occupancy
 _atom_site_pbe_bader_charge
 _atom_site_pbe_bader_spin_density
 _atom_site_pbe_cm5_charge
 _atom_site_pbe_ddec_charge
 _atom_site_pbe_ddec_spin_density
 _atom_site_pbe_ddec_sum_bond_order
 _atom_site_pbe_magmom
Zn  Zn0  1  0.60024722  0.09460725  0.99349519  1  1.18822  0  0.7398  0.605405  0  2.440582  0
Zn  Zn1  1  0.38940294  0.88587330  0.99937670  1  1.186876  0  0.744421  0.601779  0  2.483008  0
Zn  Zn2  1  0.61755221  0.98796339  0.11645592  1  1.190363  0  0.743042  0.60836  0  2.450257  0
Zn  Zn3  1  0.36804811  0.00250456  0.88522363  1  1.18849  0  0.741119  0.609091  0  2.436734  0
H  H4  1  0.64536212  0.97605568  0.86179690  1  0.076403  0  0.116812  0.102734  0  1.003445  0
H  H5  1  0.33252092  0.03642289  0.58469370  1  0.041038  0  0.095742  0.093269  0  1.009397  0
H  H6  1  0.59720159  0.26225012  0.76161902  1  0.085273  0  0.097056  0.09608  0  1.003617  0
H  H7  1  0.39577858  0.71496798  0.87626948  1  0.077137  0  0.116628  0.104329  0  1.005424  0
H  H8  1  0.59500218  0.28551477  0.63716347  1  0.046925  0  0.100116  0.09948  0  1.002761  0
H  H9  1  0.62130289  0.22397138  0.53110156  1  0.050473  0  0.097742  0.094813  0  1.01108  0
H  H10  1  0.62992709  0.19323157  0.40008886  1  0.050573  0  0.097193  0.096132  0  1.007175  0
H  H11  1  0.32539119  0.09492777  0.24107528  1  0.058713  0  0.098125  0.098234  0  1.002557  0
H  H12  1  0.31731082  0.12770109  0.37289762  1  0.034981  0  0.099405  0.097875  0  1.006038  0
H  H13  1  0.24092847  0.44826700  0.62226606  1  0.047489  0  0.099461  0.097882  0  1.005245  0
H  H14  1  0.34176102  0.58733207  0.75455240  1  0.053015  0  0.098613  0.098285  0  1.005107  0
H  H15  1  0.33304301  0.00613662  0.12227057  1  0.087367  0  0.116291  0.103572  0  1.006155  0
H  H16  1  0.30318980  0.73424689  0.59655014  1  0.045667  0  0.097477  0.097094  0  1.006143  0
H  H17  1  0.20002764  0.59504699  0.46464981  1  0.047553  0  0.097638  0.094779  0  1.010931  0
H  H18  1  0.15269626  0.45602269  0.35895014  1  0.05302  0  0.099785  0.098886  0  1.003739  0
H  H19  1  0.67176046  0.84600745  0.21005930  1  0.097228  0  0.117281  0.105435  0  0.997216  0
H  H20  1  0.00606888  0.33285893  0.23317280  1  0.05804  0  0.096921  0.096272  0  1.003848  0
H  H21  1  0.93690061  0.26298993  0.40838117  1  0.035554  0  0.095785  0.093365  0  1.009855  0
H  H22  1  0.08310707  0.38508746  0.53352796  1  0.032378  0  0.09878  0.096653  0  1.012045  0
H  H23  1  0.67006118  0.70100603  0.16225715  1  0.038942  0  0.098365  0.097892  0  1.010552  0
H  H24  1  0.33668775  0.45144078  0.12800234  1  0.065486  0  0.084457  0.090106  0  1.057515  0
H  H25  1  0.69169363  0.56364629  0.16812925  1  0.056063  0  0.101872  0.10313  0  0.995395  0
H  H26  1  0.83380506  0.11972789  0.28827350  1  0.062262  0  0.116051  0.10313  0  1.001068  0
H  H27  1  0.34538679  0.30496182  0.10146216  1  0.0593  0  0.102164  0.105352  0  0.990465  0
H  H28  1  0.61922296  0.40897261  0.13444361  1  0.034367  0  0.098763  0.100412  0  1.012706  0
H  H29  1  0.02900853  0.80766729  0.94543674  1  0.051511  0  0.096204  0.097035  0  1.016414  0
H  H30  1  0.32045914  0.05453921  0.71395791  1  0.078611  0  0.116252  0.104309  0  0.999213  0
H  H31  1  0.97172085  0.91516502  0.75374085  1  0.055657  0  0.097055  0.096483  0  1.007059  0
H  H32  1  0.91136902  0.76825433  0.98681486  1  0.037655  0  0.097938  0.097401  0  1.00078  0
H  H33  1  0.82100457  0.91107949  0.74250133  1  0.034835  0  0.099691  0.099801  0  0.996974  0
H  H34  1  0.77854492  0.79197329  0.99752923  1  0.037817  0  0.096733  0.096224  0  1.009525  0
H  H35  1  0.72081651  0.90029550  0.80635643  1  0.039003  0  0.099014  0.102222  0  1.008252  0
H  H36  1  0.36884294  0.70360312  0.03450819  1  0.10162  0  0.107022  0.099817  0  1.02777  0
H  H37  1  0.13722478  0.97029887  0.80796785  1  0.091618  0  0.115391  0.10275  0  1.00352  0
H  H38  1  0.62650692  0.17076815  0.85452916  1  0.051145  0  0.115901  0.104542  0  0.99976  0
H  H39  1  0.35910577  0.86531086  0.71979059  1  0.070612  0  0.114858  0.101686  0  1.009014  0
H  H40  1  0.67113325  0.83460316  0.02541975  1  0.083401  0  0.114109  0.100597  0  1.009703  0
H  H41  1  0.63567824  0.27360293  0.13651575  1  0.101411  0  0.116165  0.104022  0  1.006841  0
H  H42  1  0.16809453  0.80865049  0.95254974  1  0.069914  0  0.117344  0.104418  0  0.999924  0
H  H43  1  0.81944013  0.26290652  0.12817603  1  0.075028  0  0.115953  0.104062  0  1.000784  0
H  H44  1  0.32859896  0.16160097  0.99290307  1  0.077607  0  0.117333  0.104826  0  1.00169  0
H  H45  1  0.63842139  0.14671424  0.27610349  1  0.08516  0  0.115847  0.102538  0  1.006351  0
H  H46  1  0.33033128  0.05937425  0.46064382  1  0.056109  0  0.09838  0.095964  0  1.011749  0
C  C47  1  0.64426145  0.94809335  0.90694917  1  0.417129  0  0.009864  -0.043609  0  3.956734  0
C  C48  1  0.80841220  0.21660582  0.15603173  1  0.434688  0  0.002333  -0.064748  0  4.006142  0
C  C49  1  0.40376151  0.17556717  0.02174734  1  0.4301  0  0.008246  -0.050158  0  3.964665  0
C  C50  1  0.39015690  0.76343712  0.84891656  1  0.412113  0  0.009099  -0.044691  0  3.957471  0
C  C51  1  0.56455562  0.10435570  0.22761622  1  0.436522  0  0.008449  -0.046427  0  3.961774  0
C  C52  1  0.48229605  0.25593663  0.08291390  1  -0.011744  0  -0.035712  -0.04103  0  4.074416  0
C  C53  1  0.48300975  0.09861476  0.23205395  1  -0.039601  0  -0.036  -0.042248  0  4.068888  0
C  C54  1  0.86784483  0.22057204  0.23852037  1  0.00813  0  -0.03947  -0.039771  0  4.106157  0
C  C55  1  0.10891666  0.87994212  0.86981964  1  0.004103  0  -0.038862  -0.040165  0  4.096765  0
C  C56  1  0.38815937  0.10564308  0.52662473  1  -0.064339  0  -0.094915  -0.126818  0  4.006889  0
C  C57  1  0.38954709  0.09240259  0.59681837  1  -0.054699  0  -0.099827  -0.137548  0  4.015687  0
C  C58  1  0.36640313  0.75486199  0.76449206  1  0.02119  0  -0.035739  -0.04114  0  4.065348  0
C  C59  1  0.46634524  0.14597632  0.68267226  1  0.006091  0  -0.014428  0.080659  0  4.060777  0
C  C60  1  0.53881404  0.21695897  0.69542310  1  -0.087478  0  -0.098879  -0.136744  0  4.007128  0
C  C61  1  0.53739186  0.23011350  0.62500370  1  -0.064561  0  -0.094831  -0.131979  0  4.007107  0
C  C62  1  0.59645830  0.82279625  0.16316400  1  0.380014  0  0.005252  -0.058895  0  4.000254  0
C  C63  1  0.46352978  0.17299102  0.53861853  1  0.02577  0  -0.013138  0.061706  0  4.010238  0
C  C64  1  0.55593847  0.19733483  0.46776079  1  -0.001052  0  -0.095438  -0.127633  0  4.007091  0
C  C65  1  0.56071012  0.17935629  0.39320606  1  -0.055611  0  -0.097264  -0.134317  0  4.001009  0
C  C66  1  0.47817148  0.13704712  0.30935702  1  0.016899  0  -0.010264  0.086497  0  4.044645  0
C  C67  1  0.39099179  0.12328401  0.30456802  1  -0.041428  0  -0.096939  -0.135928  0  4.001007  0
C  C68  1  0.38627166  0.14139532  0.37922612  1  -0.061484  0  -0.095817  -0.131974  0  4.016102  0
C  C69  1  0.52290371  0.74212158  0.13292379  1  0.019566  0  -0.04418  -0.039089  0  4.08889  0
C  C70  1  0.46831387  0.17429451  0.46233933  1  -0.033417  0  -0.01467  0.05756  0  4.01641  0
C  C71  1  0.25351717  0.51108902  0.61626181  1  0.004369  0  -0.095318  -0.13176  0  4.017583  0
C  C72  1  0.31128487  0.58999661  0.69118948  1  -0.063489  0  -0.09729  -0.134036  0  4.002386  0
C  C73  1  0.32657275  0.67277406  0.68676811  1  -0.00207  0  -0.010274  0.085352  0  4.045044  0
C  C74  1  0.39625160  0.07849099  0.75928894  1  0.417329  0  0.00265  -0.064655  0  4.010986  0
C  C75  1  0.29037265  0.67177514  0.60316296  1  -0.073199  0  -0.097781  -0.135994  0  4.001113  0
C  C76  1  0.23237738  0.59274307  0.52814714  1  -0.016956  0  -0.094715  -0.126895  0  4.009197  0
C  C77  1  0.20818518  0.51083623  0.53306365  1  -0.046559  0  -0.015885  0.055764  0  4.019508  0
C  C78  1  0.10538555  0.41404405  0.37031269  1  0.014092  0  -0.095628  -0.132545  0  4.008235  0
C  C79  1  0.02237441  0.34459898  0.29916821  1  -0.109693  0  -0.098664  -0.137463  0  4.008539  0
C  C80  1  0.47147672  0.12454535  0.75427789  1  0.015117  0  -0.040032  -0.041559  0  4.108059  0
C  C81  1  0.95931476  0.28917890  0.31099385  1  0.009263  0  -0.014632  0.079976  0  4.060691  0
C  C82  1  0.98517530  0.30379102  0.39706359  1  -0.015019  0  -0.100192  -0.137598  0  4.017533  0
C  C83  1  0.06803483  0.37266276  0.46783980  1  -0.041774  0  -0.095591  -0.128249  0  4.011286  0
C  C84  1  0.12924161  0.43086980  0.45637185  1  -0.016024  0  -0.011675  0.064199  0  4.011142  0
C  C85  1  0.53242946  0.66386946  0.14815194  1  0.031836  0  -0.017339  0.05254  0  4.040205  0
C  C86  1  0.44189324  0.75059028  0.07456995  1  0.407547  0  0.000999  -0.053616  0  4.007772  0
C  C87  1  0.48270524  0.34501611  0.11382584  1  0.014983  0  -0.008321  0.093612  0  4.061911  0
C  C88  1  0.39888431  0.44247581  0.12956012  1  -0.054587  0  -0.10184  -0.129412  0  4.01186  0
C  C89  1  0.40386016  0.36010853  0.11447661  1  -0.018862  0  -0.091828  -0.124209  0  3.979696  0
C  C90  1  0.55770260  0.41776015  0.13484575  1  -0.030208  0  -0.092697  -0.18725  0  3.948078  0
C  C91  1  0.56033614  0.23314823  0.09398135  1  0.412032  0  0.00802  -0.048085  0  3.96421  0
C  C92  1  0.55404701  0.50240774  0.14878973  1  -0.020373  0  -0.008924  0.088678  0  4.026801  0
C  C93  1  0.47123109  0.51575396  0.14338200  1  0.02049  0  -0.015932  0.045078  0  3.988401  0
C  C94  1  0.46501837  0.59897468  0.14680317  1  -0.22461  0  -0.045847  -0.03381  0  3.811616  0
C  C95  1  0.61605624  0.64972339  0.15907478  1  -0.062219  0  -0.096858  -0.129722  0  4.025024  0
C  C96  1  0.62770165  0.57304569  0.16126919  1  -0.025393  0  -0.095451  -0.135384  0  4.035393  0
C  C97  1  0.01339583  0.86431298  0.85312177  1  0.011558  0  -0.015968  0.080998  0  4.07679  0
C  C98  1  0.55216008  0.13896320  0.83156690  1  0.424168  0  0.002035  -0.065614  0  4.00697  0
C  C99  1  0.74214068  0.85204077  0.90530568  1  0.012705  0  -0.012024  0.086729  0  4.059832  0
C  C100  1  0.86961037  0.79731963  0.94739720  1  -0.055535  0  -0.097866  -0.137793  0  4.026549  0
C  C101  1  0.79504017  0.81037046  0.95294255  1  -0.00338  0  -0.096748  -0.134985  0  4.011087  0
C  C102  1  0.40880994  0.03321817  0.14898119  1  0.412119  0  0.008286  -0.046602  0  3.959547  0
C  C103  1  0.76164256  0.87074055  0.84580162  1  -0.048715  0  -0.095177  -0.190124  0  3.945596  0
C  C104  1  0.83892053  0.85974836  0.83975164  1  0.007627  0  -0.011629  0.07776  0  4.024051  0
C  C105  1  0.89723098  0.82590507  0.89449501  1  -0.005736  0  -0.012064  0.078285  0  4.026948  0
C  C106  1  0.98315397  0.82890663  0.89945609  1  -0.079698  0  -0.097098  -0.19161  0  3.957412  0
C  C107  1  0.95107368  0.89081054  0.79352352  1  -0.033769  0  -0.098831  -0.138374  0  4.016436  0
C  C108  1  0.86657231  0.88821064  0.78679302  1  -0.068099  0  -0.09543  -0.134632  0  4.021524  0
C  C109  1  0.37141619  0.84008577  0.76917618  1  0.42815  0  0.007558  -0.046243  0  3.960559  0
C  C110  1  0.65809761  0.87650352  0.99080790  1  0.401983  0  0.005355  -0.052687  0  3.965447  0
C  C111  1  0.67989733  0.88503799  0.92831992  1  0.009042  0  -0.035955  -0.039394  0  4.066848  0
C  C112  1  0.81505736  0.14446270  0.23817774  1  0.412441  0  0.002735  -0.064706  0  4.0151  0
C  C113  1  0.15976786  0.93334185  0.84645679  1  0.38117  0  0.00264  -0.061364  0  4.002587  0
C  C114  1  0.17564824  0.85161759  0.92063585  1  0.425827  0  0.005265  -0.057673  0  4.000646  0
I  I115  1  0.34975258  0.62323260  0.15206873  1  0.059374  0  0.045028  -0.075026  0  1.413878  0
N  N116  1  0.60664414  0.97547372  0.95438120  1  -0.786326  0  -0.281536  -0.175759  0  3.630029  0
N  N117  1  0.56184719  0.87470445  0.12640644  1  -0.782003  0  -0.270874  -0.174372  0  3.535949  0
N  N118  1  0.42948929  0.06696752  0.83339013  1  -0.795584  0  -0.269313  -0.171321  0  3.548748  0
N  N119  1  0.46553584  0.82938241  0.07112051  1  -0.792811  0  -0.271416  -0.164412  0  3.54684  0
N  N120  1  0.52670754  0.10418113  0.87831731  1  -0.78618  0  -0.269742  -0.171164  0  3.544237  0
N  N121  1  0.39419282  0.89333381  0.84921085  1  -0.813647  0  -0.283448  -0.187496  0  3.644161  0
N  N122  1  0.61500676  0.93137730  0.00593883  1  -0.779022  0  -0.280376  -0.181107  0  3.625534  0
N  N123  1  0.52983894  0.14687376  0.04216438  1  -0.779374  0  -0.282492  -0.181112  0  3.637542  0
N  N124  1  0.44443843  0.00220150  0.10078707  1  -0.803911  0  -0.283642  -0.181592  0  3.645498  0
N  N125  1  0.73168344  0.09925828  0.16201030  1  -0.800511  0  -0.272311  -0.171553  0  3.563276  0
N  N126  1  0.24900175  0.93641454  0.88073582  1  -0.770375  0  -0.270378  -0.174798  0  3.543889  0
N  N127  1  0.25853606  0.88525291  0.92677091  1  -0.802384  0  -0.271592  -0.16931  0  3.558731  0
N  N128  1  0.72707620  0.14418777  0.11072902  1  -0.822756  0  -0.268305  -0.173759  0  3.52924  0
N  N129  1  0.43360053  0.11142447  0.99749552  1  -0.801649  0  -0.28063  -0.178787  0  3.623096  0
N  N130  1  0.54003974  0.04582539  0.14906537  1  -0.775065  0  -0.283318  -0.182201  0  3.645238  0
N  N131  1  0.40566313  0.84619216  0.89805523  1  -0.770472  0  -0.284655  -0.181196  0  3.654656  0
