# generated using pymatgen
data_Cd2H5C7NO6
_symmetry_space_group_name_H-M   'P 1'
_cell_length_a   8.17709880
_cell_length_b   10.59652575
_cell_length_c   11.00814875
_cell_angle_alpha   89.99983757
_cell_angle_beta   90.00003040
_cell_angle_gamma   95.34712834
_symmetry_Int_Tables_number   1
_chemical_formula_structural   Cd2H5C7NO6
_chemical_formula_sum   'Cd8 H20 C28 N4 O24'
_cell_volume   949.69253525
_cell_formula_units_Z   4
loop_
 _symmetry_equiv_pos_site_id
 _symmetry_equiv_pos_as_xyz
  1  'x, y, z'
loop_
 _atom_site_type_symbol
 _atom_site_label
 _atom_site_symmetry_multiplicity
 _atom_site_fract_x
 _atom_site_fract_y
 _atom_site_fract_z
 _atom_site_occupancy
 _atom_site_pbe_bader_spin_density
 _atom_site_pbe_cm5_charge
 _atom_site_pbe_ddec_charge
 _atom_site_pbe_ddec_spin_density
 _atom_site_pbe_ddec_sum_bond_order
 _atom_site_pbe_magmom
Cd  Cd0  1  0.65244122  0.39599903  0.47176283  1  0  0.737893  1.021689  0  2.175644  0
Cd  Cd1  1  0.84756257  0.60400403  0.97176128  1  0  0.737897  1.02169  0  2.175655  0
Cd  Cd2  1  0.34755994  0.60400354  0.52823702  1  0  0.737877  1.021693  0  2.175631  0
Cd  Cd3  1  0.15243848  0.39599759  0.02823766  1  0  0.737886  1.021683  0  2.175658  0
Cd  Cd4  1  0.49480690  0.39046990  0.76368656  1  0  0.719771  1.031514  0  2.097644  0
Cd  Cd5  1  0.00519494  0.60952771  0.26368565  1  0  0.71976  1.031487  0  2.0976  0
Cd  Cd6  1  0.50519616  0.60952793  0.23631239  1  0  0.71977  1.031519  0  2.097626  0
Cd  Cd7  1  0.99480599  0.39047296  0.73631239  1  0  0.719793  1.031566  0  2.097579  0
H  H8  1  0.30929297  0.33997774  0.55917082  1  0  0.266048  0.372065  0  0.977387  0
H  H9  1  0.19070668  0.66002330  0.05916985  1  0  0.266056  0.372069  0  0.97738  0
H  H10  1  0.69070797  0.66002293  0.44082813  1  0  0.266087  0.37217  0  0.977247  0
H  H11  1  0.80929171  0.33997641  0.94082728  1  0  0.266075  0.372132  0  0.977291  0
H  H12  1  0.76312925  0.52673475  0.67651009  1  0  0.275494  0.358411  0  0.976349  0
H  H13  1  0.73687411  0.47326633  0.17650692  1  0  0.275503  0.358405  0  0.976357  0
H  H14  1  0.23687281  0.47326498  0.32349158  1  0  0.275474  0.358388  0  0.976395  0
H  H15  1  0.26312938  0.52673530  0.82348930  1  0  0.275479  0.358408  0  0.976354  0
H  H16  1  0.01809585  0.07678462  0.25986376  1  0  0.112761  0.129642  0  1.007893  0
H  H17  1  0.48190265  0.92321582  0.75986320  1  0  0.112764  0.129636  0  1.007849  0
H  H18  1  0.98190131  0.92321508  0.74013701  1  0  0.112757  0.129625  0  1.007861  0
H  H19  1  0.51809707  0.07678484  0.24013756  1  0  0.112753  0.129626  0  1.007864  0
H  H20  1  0.69741547  0.88611350  0.52613008  1  0  0.115635  0.126039  0  0.989082  0
H  H21  1  0.80258283  0.11388705  0.02612883  1  0  0.115632  0.126034  0  0.989067  0
H  H22  1  0.30258291  0.11388621  0.47386886  1  0  0.115639  0.126041  0  0.989058  0
H  H23  1  0.19741689  0.88611361  0.97387012  1  0  0.115617  0.126004  0  0.989084  0
H  H24  1  0.60421700  0.09886546  0.58146651  1  0  0.114025  0.092836  0  1.041077  0
H  H25  1  0.89578499  0.90113493  0.08146678  1  0  0.114032  0.092839  0  1.041048  0
H  H26  1  0.39578373  0.90113331  0.41853334  1  0  0.114033  0.092861  0  1.041062  0
H  H27  1  0.10421850  0.09886669  0.91853308  1  0  0.114033  0.09286  0  1.041072  0
C  C28  1  0.87069663  0.19194003  0.36826982  1  0  0.114446  0.114053  0  3.954027  0
C  C29  1  0.62930158  0.80805762  0.86827217  1  0  0.114438  0.114058  0  3.953974  0
C  C30  1  0.12929941  0.80806061  0.63172821  1  0  0.114451  0.11404  0  3.953987  0
C  C31  1  0.37070026  0.19194021  0.13172859  1  0  0.114449  0.114123  0  3.95393  0
C  C32  1  0.92492470  0.07757653  0.33030902  1  0  -0.067736  -0.139336  0  3.889632  0
C  C33  1  0.57507605  0.92242219  0.83030831  1  0  -0.067721  -0.13929  0  3.88954  0
C  C34  1  0.07507379  0.92242413  0.66969174  1  0  -0.067764  -0.139298  0  3.889634  0
C  C35  1  0.42492345  0.07757657  0.16969336  1  0  -0.06778  -0.13936  0  3.889613  0
C  C36  1  0.86197036  0.96513432  0.38637717  1  0  0.008148  0.023485  0  3.943825  0
C  C37  1  0.63802919  0.03486424  0.88637527  1  0  0.008161  0.023507  0  3.943807  0
C  C38  1  0.13803069  0.03486730  0.61362541  1  0  0.008176  0.023432  0  3.944013  0
C  C39  1  0.36196909  0.96513453  0.11362549  1  0  0.00815  0.023462  0  3.943953  0
C  C40  1  0.74636646  0.97175499  0.47894493  1  0  -0.069371  -0.123368  0  3.916957  0
C  C41  1  0.75363334  0.02824519  0.97894400  1  0  -0.069369  -0.123372  0  3.916903  0
C  C42  1  0.25363203  0.02824567  0.52105674  1  0  -0.069351  -0.123301  0  3.916985  0
C  C43  1  0.24636872  0.97175454  0.02105585  1  0  -0.069315  -0.123285  0  3.916998  0
C  C44  1  0.69469406  0.08939276  0.50975512  1  0  0.050539  0.092921  0  3.928741  0
C  C45  1  0.80530790  0.91060784  0.00975532  1  0  0.050529  0.092957  0  3.928578  0
C  C46  1  0.30530554  0.91060695  0.49024564  1  0  0.050514  0.092836  0  3.928641  0
C  C47  1  0.19469426  0.08939283  0.99024544  1  0  0.050529  0.092896  0  3.928682  0
C  C48  1  0.94587107  0.31588094  0.31523714  1  0  0.212517  0.564757  0  4.193291  0
C  C49  1  0.55412511  0.68412065  0.81523798  1  0  0.212553  0.564762  0  4.193164  0
C  C50  1  0.05412264  0.68412064  0.68476090  1  0  0.212585  0.564734  0  4.193233  0
C  C51  1  0.44587338  0.31588001  0.18476551  1  0  0.2125  0.564646  0  4.193486  0
C  C52  1  0.92095162  0.84086516  0.34860352  1  0  0.200904  0.558572  0  4.215773  0
C  C53  1  0.57904691  0.15913539  0.84860398  1  0  0.200882  0.558519  0  4.215816  0
C  C54  1  0.07904709  0.15913739  0.65139634  1  0  0.200906  0.558603  0  4.215838  0
C  C55  1  0.42095403  0.84086528  0.15139678  1  0  0.200911  0.55855  0  4.215734  0
N  N56  1  0.75505598  0.19697282  0.45494922  1  0  -0.315574  -0.252538  0  3.490591  0
N  N57  1  0.74494359  0.80302553  0.95495163  1  0  -0.31558  -0.252597  0  3.490485  0
N  N58  1  0.24494097  0.80302499  0.54504882  1  0  -0.315572  -0.252482  0  3.490441  0
N  N59  1  0.25505846  0.19697420  0.04505004  1  0  -0.315561  -0.252547  0  3.490499  0
O  O60  1  0.40686050  0.40170696  0.56667792  1  0  -0.604652  -0.884517  0  2.11735  0
O  O61  1  0.09313915  0.59829405  0.06667526  1  0  -0.604659  -0.884475  0  2.117267  0
O  O62  1  0.59313810  0.59829464  0.43332193  1  0  -0.604695  -0.884645  0  2.117276  0
O  O63  1  0.90686158  0.40170472  0.93332005  1  0  -0.604694  -0.884633  0  2.117346  0
O  O64  1  0.74825151  0.43491214  0.66501328  1  0  -0.594482  -0.857093  0  2.112716  0
O  O65  1  0.75175073  0.56508991  0.16501259  1  0  -0.594494  -0.857098  0  2.112723  0
O  O66  1  0.25174943  0.56508853  0.33498476  1  0  -0.594455  -0.857097  0  2.11275  0
O  O67  1  0.24825155  0.43491171  0.83498545  1  0  -0.594453  -0.857103  0  2.112713  0
O  O68  1  0.89759058  0.41834815  0.35891281  1  0  -0.319645  -0.557904  0  2.389422  0
O  O69  1  0.60241029  0.58165144  0.85891123  1  0  -0.319677  -0.557968  0  2.389273  0
O  O70  1  0.10240536  0.58165155  0.64108976  1  0  -0.319647  -0.557929  0  2.389364  0
O  O71  1  0.39759155  0.41834639  0.14108953  1  0  -0.319625  -0.557883  0  2.38939  0
O  O72  1  0.05318348  0.31084813  0.23386361  1  0  -0.320642  -0.569872  0  2.254643  0
O  O73  1  0.44680756  0.68915141  0.73386732  1  0  -0.320662  -0.569845  0  2.25472  0
O  O74  1  0.94680677  0.68915533  0.76613170  1  0  -0.320713  -0.569856  0  2.254715  0
O  O75  1  0.55318838  0.31084829  0.26613617  1  0  -0.320648  -0.569827  0  2.254921  0
O  O76  1  0.00542278  0.83790354  0.25194494  1  0  -0.319375  -0.548755  0  2.185946  0
O  O77  1  0.49457449  0.16209693  0.75194466  1  0  -0.319402  -0.548769  0  2.185996  0
O  O78  1  0.99457593  0.16209902  0.74805582  1  0  -0.319381  -0.548799  0  2.185971  0
O  O79  1  0.50542368  0.83790089  0.24805610  1  0  -0.319398  -0.548785  0  2.185971  0
O  O80  1  0.88451005  0.74348482  0.41514071  1  0  -0.31669  -0.552576  0  2.226888  0
O  O81  1  0.61549063  0.25651270  0.91514275  1  0  -0.316655  -0.552535  0  2.226903  0
O  O82  1  0.11549068  0.25651395  0.58485914  1  0  -0.316704  -0.552574  0  2.226944  0
O  O83  1  0.38451398  0.74348798  0.08485711  1  0  -0.316686  -0.552535  0  2.226827  0
