# generated using pymatgen
data_KBaH6C8NO8
_symmetry_space_group_name_H-M   'P 1'
_cell_length_a   6.73923848
_cell_length_b   9.70960425
_cell_length_c   10.36200711
_cell_angle_alpha   117.21752424
_cell_angle_beta   108.03213188
_cell_angle_gamma   91.94617920
_symmetry_Int_Tables_number   1
_chemical_formula_structural   KBaH6C8NO8
_chemical_formula_sum   'K2 Ba2 H12 C16 N2 O16'
_cell_volume   560.86028082
_cell_formula_units_Z   2
loop_
 _symmetry_equiv_pos_site_id
 _symmetry_equiv_pos_as_xyz
  1  'x, y, z'
loop_
 _atom_site_type_symbol
 _atom_site_label
 _atom_site_symmetry_multiplicity
 _atom_site_fract_x
 _atom_site_fract_y
 _atom_site_fract_z
 _atom_site_occupancy
 _atom_site_hle17_bader_spin_density
 _atom_site_hle17_ddec_charge
 _atom_site_hle17_ddec_spin_density
 _atom_site_hle17_ddec_sum_bond_order
 _atom_site_hle17_magmom
 _atom_site_hse06_10hf_bader_spin_density
 _atom_site_hse06_10hf_ddec_charge
 _atom_site_hse06_10hf_ddec_spin_density
 _atom_site_hse06_10hf_ddec_sum_bond_order
 _atom_site_hse06_10hf_magmom
 _atom_site_hse06_bader_spin_density
 _atom_site_hse06_ddec_charge
 _atom_site_hse06_ddec_spin_density
 _atom_site_hse06_ddec_sum_bond_order
 _atom_site_hse06_magmom
 _atom_site_pbe_bader_spin_density
 _atom_site_pbe_cm5_charge
 _atom_site_pbe_ddec_charge
 _atom_site_pbe_ddec_spin_density
 _atom_site_pbe_ddec_sum_bond_order
 _atom_site_pbe_magmom
K  K0  1  0.30255643  0.05277201  0.10542263  1  0  0.92422  0  0.539666  0  0  0.883082  0  0.734725  0  0  0.897277  0  0.711023  0  0  0.834797  0.872178  0  0.752571  0
K  K1  1  0.69744546  0.94722637  0.89457838  1  0  0.924192  0  0.539703  0  0  0.88307  0  0.734744  0  0  0.897268  0  0.711042  0  0  0.83481  0.872176  0  0.752587  0
Ba  Ba2  1  0.01352275  0.76354534  0.52710210  1  0  1.62473  0  1.092137  0  0  1.460805  0  1.488085  0  0  1.503556  0  1.444305  0  0  0.906689  1.428737  0  1.521162  0
Ba  Ba3  1  0.98647569  0.23645186  0.47289674  1  0  1.624751  0  1.092123  0  0  1.460805  0  1.488101  0  0  1.503553  0  1.444325  0  0  0.906694  1.428734  0  1.521183  0
H  H4  1  0.42792436  0.76814658  0.11743862  1  0  0.11012  0  0.963896  0  0  0.117235  0  1.033065  0  0  0.121847  0  1.029207  0  0  0.119073  0.113736  0  1.036528  0
H  H5  1  0.18983273  0.35016276  0.11761737  1  0  0.111026  0  0.965343  0  0  0.117263  0  1.035168  0  0  0.121864  0  1.031375  0  0  0.119651  0.114042  0  1.037969  0
H  H6  1  0.57208041  0.23185655  0.88256115  1  0  0.110055  0  0.963956  0  0  0.117164  0  1.033137  0  0  0.121776  0  1.029276  0  0  0.119049  0.113669  0  1.036606  0
H  H7  1  0.81016456  0.64984155  0.88238044  1  0  0.111067  0  0.965226  0  0  0.11729  0  1.035087  0  0  0.121887  0  1.031295  0  0  0.119657  0.11407  0  1.037886  0
H  H8  1  0.41585224  0.05725516  0.63780581  1  0  0.428922  0  0.873814  0  0  0.400212  0  0.93416  0  0  0.410572  0  0.919031  0  0  0.302851  0.392567  0  0.94536  0
H  H9  1  0.72173672  0.58031321  0.63774850  1  0  0.428528  0  0.874285  0  0  0.399637  0  0.934914  0  0  0.410001  0  0.919786  0  0  0.302697  0.392064  0  0.946005  0
H  H10  1  0.58414407  0.94274559  0.36219702  1  0  0.428882  0  0.873883  0  0  0.400181  0  0.934213  0  0  0.410541  0  0.919084  0  0  0.302838  0.392538  0  0.945408  0
H  H11  1  0.27825959  0.41968753  0.36225337  1  0  0.428529  0  0.874286  0  0  0.399647  0  0.934899  0  0  0.41001  0  0.919773  0  0  0.30271  0.39207  0  0.945997  0
H  H12  1  0.48968448  0.89903622  0.56244686  1  0  0.412801  0  0.893949  0  0  0.382265  0  0.958318  0  0  0.393293  0  0.942091  0  0  0.301617  0.374227  0  0.970169  0
H  H13  1  0.57275209  0.66320472  0.56223652  1  0  0.411785  0  0.894838  0  0  0.382215  0  0.958008  0  0  0.393213  0  0.941786  0  0  0.301204  0.373977  0  0.970309  0
H  H14  1  0.51031184  0.10096453  0.43755501  1  0  0.412747  0  0.894021  0  0  0.382223  0  0.95839  0  0  0.393235  0  0.942174  0  0  0.301597  0.374183  0  0.970245  0
H  H15  1  0.42724579  0.33679603  0.43776470  1  0  0.411807  0  0.89483  0  0  0.382232  0  0.957988  0  0  0.393229  0  0.941769  0  0  0.301197  0.373995  0  0.970286  0
C  C16  1  0.25854317  0.64334794  0.80037190  1  0  0.636663  0  3.9514  0  0  0.590455  0  4.244797  0  0  0.623128  0  4.236857  0  0  0.215892  0.568461  0  4.249117  0
C  C17  1  0.04220244  0.15757113  0.80061045  1  0  0.636826  0  3.953498  0  0  0.59046  0  4.246997  0  0  0.623151  0  4.239067  0  0  0.215994  0.568283  0  4.251688  0
C  C18  1  0.74146283  0.35665400  0.19962760  1  0  0.636565  0  3.951456  0  0  0.590311  0  4.244906  0  0  0.622984  0  4.236968  0  0  0.215828  0.568316  0  4.249222  0
C  C19  1  0.95779889  0.84243080  0.19939487  1  0  0.636752  0  3.953521  0  0  0.590424  0  4.247008  0  0  0.623113  0  4.23908  0  0  0.215956  0.568251  0  4.251693  0
C  C20  1  0.25371011  0.56183587  0.89522526  1  0  0.095976  0  3.730311  0  0  0.106531  0  3.97628  0  0  0.105733  0  3.994814  0  0  0.120366  0.106763  0  3.963728  0
C  C21  1  0.14160753  0.33406544  0.89537306  1  0  0.095054  0  3.733116  0  0  0.105922  0  3.97829  0  0  0.105123  0  3.996825  0  0  0.120503  0.10622  0  3.965501  0
C  C22  1  0.74629055  0.43816370  0.10477022  1  0  0.09606  0  3.730387  0  0  0.106685  0  3.976255  0  0  0.105889  0  3.994788  0  0  0.120437  0.106917  0  3.963706  0
C  C23  1  0.85839257  0.66593767  0.10462963  1  0  0.095124  0  3.733068  0  0  0.105911  0  3.978375  0  0  0.105113  0  3.996909  0  0  0.120539  0.106216  0  3.965581  0
C  C24  1  0.34364178  0.64580208  0.05807048  1  0  -0.100146  0  3.659518  0  0  -0.138114  0  3.912388  0  0  -0.139286  0  3.931132  0  0  -0.06237  -0.137706  0  3.900415  0
C  C25  1  0.21450039  0.41296479  0.05817093  1  0  -0.101438  0  3.665856  0  0  -0.138737  0  3.918355  0  0  -0.139886  0  3.937025  0  0  -0.062974  -0.137694  0  3.905268  0
C  C26  1  0.65635543  0.35419630  0.94192863  1  0  -0.099972  0  3.659579  0  0  -0.137948  0  3.912404  0  0  -0.139122  0  3.931144  0  0  -0.062295  -0.137546  0  3.900445  0
C  C27  1  0.78549904  0.58703596  0.94183060  1  0  -0.101438  0  3.665623  0  0  -0.138752  0  3.918237  0  0  -0.139897  0  3.936902  0  0  -0.06296  -0.137717  0  3.905157  0
C  C28  1  0.32103631  0.57131740  0.14200356  1  0  -0.015747  0  3.704434  0  0  0.004345  0  3.94779  0  0  0.000202  0  3.967152  0  0  0.006927  0.007236  0  3.934531  0
C  C29  1  0.67896057  0.42867979  0.85799787  1  0  -0.015803  0  3.704449  0  0  0.004288  0  3.947796  0  0  0.000152  0  3.967151  0  0  0.006827  0.007171  0  3.934549  0
C  C30  1  0.40907182  0.65915506  0.31779186  1  0  0.670402  0  3.85746  0  0  0.612475  0  4.154732  0  0  0.645872  0  4.147005  0  0  0.240593  0.589996  0  4.1586  0
C  C31  1  0.59092638  0.34084687  0.68220704  1  0  0.670275  0  3.85745  0  0  0.612361  0  4.154687  0  0  0.645755  0  4.146967  0  0  0.240578  0.589895  0  4.15854  0
N  N32  1  0.15780226  0.40806772  0.81562893  1  0  -0.357347  0  3.189556  0  0  -0.324186  0  3.449181  0  0  -0.333372  0  3.467565  0  0  -0.336901  -0.317044  0  3.436473  0
N  N33  1  0.84219651  0.59193066  0.18437049  1  0  -0.357437  0  3.189637  0  0  -0.32427  0  3.449272  0  0  -0.333459  0  3.467655  0  0  -0.336942  -0.317135  0  3.43657  0
O  O34  1  0.17537978  0.55974699  0.65276192  1  0  -0.696689  0  1.982801  0  0  -0.63551  0  2.223849  0  0  -0.661293  0  2.215007  0  0  -0.375596  -0.616987  0  2.230331  0
O  O35  1  0.97826260  0.09335593  0.65298690  1  0  -0.697347  0  1.984228  0  0  -0.63582  0  2.224832  0  0  -0.661681  0  2.216039  0  0  -0.3758  -0.617234  0  2.230489  0
O  O36  1  0.82462826  0.44024548  0.34723297  1  0  -0.696666  0  1.982988  0  0  -0.635475  0  2.224055  0  0  -0.661255  0  2.215212  0  0  -0.375587  -0.616953  0  2.23054  0
O  O37  1  0.02174209  0.90664127  0.34701417  1  0  -0.697328  0  1.984361  0  0  -0.635801  0  2.224947  0  0  -0.661659  0  2.216153  0  0  -0.375777  -0.617218  0  2.2306  0
O  O38  1  0.34094031  0.78993594  0.87491507  1  0  -0.73874  0  1.957649  0  0  -0.692518  0  2.19606  0  0  -0.715923  0  2.185892  0  0  -0.468313  -0.675654  0  2.202992  0
O  O39  1  0.03397917  0.08572868  0.87526031  1  0  -0.737665  0  1.959351  0  0  -0.691398  0  2.197748  0  0  -0.714818  0  2.187647  0  0  -0.468202  -0.674822  0  2.204925  0
O  O40  1  0.65906215  0.21005890  0.12507971  1  0  -0.73875  0  1.957486  0  0  -0.692513  0  2.195915  0  0  -0.71592  0  2.185748  0  0  -0.468306  -0.675646  0  2.202841  0
O  O41  1  0.96602059  0.91427326  0.12473987  1  0  -0.737668  0  1.959246  0  0  -0.6914  0  2.197632  0  0  -0.714822  0  2.187534  0  0  -0.468208  -0.674824  0  2.204808  0
O  O42  1  0.33088838  0.60817905  0.38903172  1  0  -0.670987  0  2.020646  0  0  -0.599543  0  2.243883  0  0  -0.625736  0  2.234275  0  0  -0.305973  -0.581101  0  2.251209  0
O  O43  1  0.55869944  0.78130674  0.38915559  1  0  -0.671416  0  2.020734  0  0  -0.600739  0  2.245379  0  0  -0.626917  0  2.235615  0  0  -0.30569  -0.581637  0  2.251376  0
O  O44  1  0.66911360  0.39182526  0.61096799  1  0  -0.670985  0  2.020612  0  0  -0.599507  0  2.243795  0  0  -0.6257  0  2.234193  0  0  -0.305948  -0.581066  0  2.251116  0
O  O45  1  0.44130000  0.21869402  0.61084498  1  0  -0.671362  0  2.020777  0  0  -0.600683  0  2.245421  0  0  -0.626855  0  2.235645  0  0  -0.305674  -0.581586  0  2.251416  0
O  O46  1  0.42577254  0.95709277  0.64109175  1  0  -0.900751  0  1.803268  0  0  -0.848927  0  1.98118  0  0  -0.868703  0  1.949747  0  0  -0.67407  -0.834846  0  2.004603  0
O  O47  1  0.71525917  0.68374856  0.64101637  1  0  -0.898738  0  1.804285  0  0  -0.847378  0  1.981184  0  0  -0.867189  0  1.94994  0  0  -0.672969  -0.833729  0  2.004225  0
O  O48  1  0.57422378  0.04290798  0.35891012  1  0  -0.900683  0  1.803399  0  0  -0.848884  0  1.981256  0  0  -0.868639  0  1.949872  0  0  -0.674054  -0.834807  0  2.004673  0
O  O49  1  0.28474026  0.31625219  0.35898323  1  0  -0.898754  0  1.804275  0  0  -0.84739  0  1.981155  0  0  -0.8672  0  1.949915  0  0  -0.672964  -0.833738  0  2.004198  0
