# generated using pymatgen
data_CdP2H19C7N(ClO4)2
_symmetry_space_group_name_H-M   'P 1'
_cell_length_a   5.74649851
_cell_length_b   8.87192940
_cell_length_c   16.17063593
_cell_angle_alpha   104.15397359
_cell_angle_beta   89.99969566
_cell_angle_gamma   90.00003356
_symmetry_Int_Tables_number   1
_chemical_formula_structural   CdP2H19C7N(ClO4)2
_chemical_formula_sum   'Cd2 P4 H38 C14 N2 Cl4 O16'
_cell_volume   799.39225605
_cell_formula_units_Z   2
loop_
 _symmetry_equiv_pos_site_id
 _symmetry_equiv_pos_as_xyz
  1  'x, y, z'
loop_
 _atom_site_type_symbol
 _atom_site_label
 _atom_site_symmetry_multiplicity
 _atom_site_fract_x
 _atom_site_fract_y
 _atom_site_fract_z
 _atom_site_occupancy
 _atom_site_hle17_bader_spin_density
 _atom_site_hle17_ddec_charge
 _atom_site_hle17_ddec_spin_density
 _atom_site_hle17_ddec_sum_bond_order
 _atom_site_hle17_magmom
 _atom_site_hse06_10hf_bader_spin_density
 _atom_site_hse06_10hf_ddec_charge
 _atom_site_hse06_10hf_ddec_spin_density
 _atom_site_hse06_10hf_ddec_sum_bond_order
 _atom_site_hse06_10hf_magmom
 _atom_site_hse06_bader_spin_density
 _atom_site_hse06_ddec_charge
 _atom_site_hse06_ddec_spin_density
 _atom_site_hse06_ddec_sum_bond_order
 _atom_site_hse06_magmom
 _atom_site_pbe_bader_spin_density
 _atom_site_pbe_cm5_charge
 _atom_site_pbe_ddec_charge
 _atom_site_pbe_ddec_spin_density
 _atom_site_pbe_ddec_sum_bond_order
 _atom_site_pbe_magmom
Cd  Cd0  1  0.83159427  0.80575499  0.61176430  1  0  1.398652  0  1.491757  0  0  1.233375  0  1.933921  0  0  1.283454  0  1.87424  0  0  0.812691  1.196999  0  1.975657  0
Cd  Cd1  1  0.33158515  0.19425204  0.38823634  1  0  1.398608  0  1.491794  0  0  1.233333  0  1.933957  0  0  1.283412  0  1.874279  0  0  0.812694  1.196957  0  1.975699  0
P  P2  1  0.48289425  0.14887833  0.67315116  1  0  1.374871  0  4.857254  0  0  1.201423  0  5.361913  0  0  1.25178  0  5.325734  0  0  0.354721  1.166148  0  5.38649  0
P  P3  1  0.98287465  0.85111819  0.32684905  1  0  1.374717  0  4.857471  0  0  1.201268  0  5.36215  0  0  1.25163  0  5.325972  0  0  0.354671  1.166001  0  5.386717  0
P  P4  1  0.32773689  0.86424899  0.74530687  1  0  1.304862  0  4.901799  0  0  1.137461  0  5.399451  0  0  1.186011  0  5.371393  0  0  0.363773  1.103461  0  5.418648  0
P  P5  1  0.82775089  0.13575804  0.25469316  1  0  1.304914  0  4.901758  0  0  1.13754  0  5.399387  0  0  1.18609  0  5.371326  0  0  0.363796  1.103537  0  5.418592  0
H  H6  1  0.19655227  0.97535950  0.57200896  1  0  0.415208  0  0.900886  0  0  0.382019  0  0.969196  0  0  0.392627  0  0.953949  0  0  0.288331  0.374501  0  0.98001  0
H  H7  1  0.69654616  0.02463943  0.42798716  1  0  0.415178  0  0.900905  0  0  0.38197  0  0.969253  0  0  0.392582  0  0.954002  0  0  0.28832  0.374453  0  0.980065  0
H  H8  1  0.14769365  0.89808935  0.47518273  1  0  0.420322  0  0.886628  0  0  0.390051  0  0.948813  0  0  0.400755  0  0.933311  0  0  0.290216  0.382422  0  0.95989  0
H  H9  1  0.64769484  0.10191542  0.52481548  1  0  0.42028  0  0.886642  0  0  0.389966  0  0.948914  0  0  0.400674  0  0.933406  0  0  0.290207  0.382332  0  0.960004  0
H  H10  1  0.21149830  0.61110078  0.61456945  1  0  0.437501  0  0.831341  0  0  0.412793  0  0.891819  0  0  0.422492  0  0.877545  0  0  0.30779  0.40562  0  0.902537  0
H  H11  1  0.71149486  0.38890398  0.38543111  1  0  0.437502  0  0.831361  0  0  0.412799  0  0.891816  0  0  0.422494  0  0.877548  0  0  0.307796  0.405626  0  0.902531  0
H  H12  1  0.06193630  0.47091808  0.55767474  1  0  0.441038  0  0.851297  0  0  0.411288  0  0.909869  0  0  0.422201  0  0.894116  0  0  0.291467  0.403449  0  0.921175  0
H  H13  1  0.56194428  0.52909137  0.44232425  1  0  0.440984  0  0.851377  0  0  0.411227  0  0.90996  0  0  0.42214  0  0.894207  0  0  0.291398  0.403386  0  0.921269  0
H  H14  1  0.64800546  0.76812954  0.44372487  1  0  0.442482  0  0.854245  0  0  0.408237  0  0.921187  0  0  0.419264  0  0.905454  0  0  0.297377  0.400351  0  0.932481  0
H  H15  1  0.14799732  0.23187405  0.55627133  1  0  0.442383  0  0.854391  0  0  0.408174  0  0.921266  0  0  0.419201  0  0.905536  0  0  0.297333  0.400288  0  0.932558  0
H  H16  1  0.43382933  0.77353094  0.50914430  1  0  0.433352  0  0.855709  0  0  0.401338  0  0.923499  0  0  0.412326  0  0.907717  0  0  0.294709  0.393521  0  0.934704  0
H  H17  1  0.93381895  0.22646906  0.49085274  1  0  0.433392  0  0.855621  0  0  0.40137  0  0.923466  0  0  0.412365  0  0.907672  0  0  0.294691  0.393551  0  0.934669  0
H  H18  1  0.82731361  0.39986929  0.79344837  1  0  0.074883  0  0.967457  0  0  0.086279  0  1.044451  0  0  0.087094  0  1.043916  0  0  0.089975  0.085828  0  1.044336  0
H  H19  1  0.32730581  0.60014003  0.20654764  1  0  0.074915  0  0.967383  0  0  0.086289  0  1.044399  0  0  0.087086  0  1.04388  0  0  0.089985  0.085837  0  1.044285  0
H  H20  1  0.83759018  0.46974596  0.69804581  1  0  0.099885  0  0.941596  0  0  0.117905  0  1.0018  0  0  0.119435  0  0.999969  0  0  0.09971  0.116802  0  1.003229  0
H  H21  1  0.33759307  0.53026103  0.30194863  1  0  0.09987  0  0.941601  0  0  0.117815  0  1.001908  0  0  0.119345  0  1.000073  0  0  0.09966  0.11671  0  1.003337  0
H  H22  1  0.92072075  0.27338625  0.69519094  1  0  0.100303  0  0.98484  0  0  0.10986  0  1.058275  0  0  0.111807  0  1.057224  0  0  0.095625  0.108373  0  1.059199  0
H  H23  1  0.42071156  0.72662187  0.30480473  1  0  0.100215  0  0.985024  0  0  0.109833  0  1.058382  0  0  0.111782  0  1.057325  0  0  0.095585  0.108346  0  1.059307  0
H  H24  1  0.65736595  0.81439920  0.90607304  1  0  0.038709  0  0.945166  0  0  0.053942  0  1.018599  0  0  0.054107  0  1.018683  0  0  0.088094  0.053836  0  1.018439  0
H  H25  1  0.15736476  0.18560094  0.09392887  1  0  0.03866  0  0.945125  0  0  0.053914  0  1.018562  0  0  0.054059  0  1.018667  0  0  0.088079  0.053809  0  1.018402  0
H  H26  1  0.66892679  0.69677763  0.79997844  1  0  0.071937  0  0.938887  0  0  0.08991  0  0.999944  0  0  0.090496  0  1.000037  0  0  0.107044  0.089533  0  0.999973  0
H  H27  1  0.16892582  0.30322249  0.20002097  1  0  0.071894  0  0.938881  0  0  0.08988  0  0.999931  0  0  0.090464  0  1.000025  0  0  0.107031  0.089504  0  0.999958  0
H  H28  1  0.40362574  0.50443051  0.83921810  1  0  0.074288  0  0.957523  0  0  0.088072  0  1.025169  0  0  0.089587  0  1.024773  0  0  0.083902  0.086957  0  1.02529  0
H  H29  1  0.90361880  0.49556603  0.16078040  1  0  0.074277  0  0.957546  0  0  0.088073  0  1.025197  0  0  0.089578  0  1.024801  0  0  0.083909  0.086962  0  1.025324  0
H  H30  1  0.64784699  0.53534476  0.90766686  1  0  0.057839  0  0.969627  0  0  0.075136  0  1.035583  0  0  0.075896  0  1.035635  0  0  0.084849  0.074718  0  1.035131  0
H  H31  1  0.14784255  0.46465653  0.09233213  1  0  0.057881  0  0.96955  0  0  0.075205  0  1.035498  0  0  0.075964  0  1.035537  0  0  0.08487  0.074793  0  1.03505  0
H  H32  1  0.42289591  0.71787928  0.02007281  1  0  0.048872  0  0.961955  0  0  0.064568  0  1.033171  0  0  0.065224  0  1.033258  0  0  0.072018  0.06396  0  1.033301  0
H  H33  1  0.92288688  0.28211147  0.97992921  1  0  0.048828  0  0.961938  0  0  0.064509  0  1.033148  0  0  0.065174  0  1.033232  0  0  0.072005  0.0639  0  1.033277  0
H  H34  1  0.27485924  0.53818056  0.98998924  1  0  0.061761  0  0.953782  0  0  0.083506  0  1.010005  0  0  0.083757  0  1.011283  0  0  0.084609  0.083071  0  1.009335  0
H  H35  1  0.77484760  0.46181139  0.01000951  1  0  0.061682  0  0.953696  0  0  0.08347  0  1.009868  0  0  0.083728  0  1.011136  0  0  0.084524  0.083037  0  1.009196  0
H  H36  1  0.00542214  0.76846994  0.99987621  1  0  0.059544  0  0.965861  0  0  0.070181  0  1.042954  0  0  0.071312  0  1.042777  0  0  0.078312  0.069392  0  1.042995  0
H  H37  1  0.50541569  0.23152214  0.00012616  1  0  0.059529  0  0.965853  0  0  0.070165  0  1.042965  0  0  0.071292  0  1.042788  0  0  0.0783  0.069379  0  1.043002  0
H  H38  1  0.01138128  0.64186948  0.89617371  1  0  0.066046  0  0.941251  0  0  0.088951  0  0.997797  0  0  0.089214  0  0.998875  0  0  0.089662  0.088771  0  0.996903  0
H  H39  1  0.51137685  0.35812144  0.10382849  1  0  0.065972  0  0.941244  0  0  0.088911  0  0.997782  0  0  0.089185  0  0.99884  0  0  0.089639  0.08873  0  0.996887  0
H  H40  1  0.03505329  0.91093532  0.88309192  1  0  0.058147  0  0.972515  0  0  0.07105  0  1.046079  0  0  0.071776  0  1.045682  0  0  0.095306  0.070499  0  1.046643  0
H  H41  1  0.53505715  0.08906022  0.11690961  1  0  0.058204  0  0.972535  0  0  0.071077  0  1.046113  0  0  0.071807  0  1.045715  0  0  0.095289  0.070529  0  1.04667  0
H  H42  1  0.27195528  0.95082774  0.95595037  1  0  0.043123  0  0.923889  0  0  0.059505  0  0.993537  0  0  0.060017  0  0.993027  0  0  0.087648  0.059107  0  0.993898  0
H  H43  1  0.77194629  0.04916889  0.04405334  1  0  0.043142  0  0.924028  0  0  0.059544  0  0.993593  0  0  0.060049  0  0.993093  0  0  0.087656  0.059143  0  0.993962  0
C  C44  1  0.43552030  0.07252242  0.76919897  1  0  -0.315245  0  3.5508  0  0  -0.270246  0  3.827501  0  0  -0.276441  0  3.831101  0  0  0.028433  -0.266107  0  3.825178  0
C  C45  1  0.93551439  0.92747994  0.23080395  1  0  -0.315253  0  3.550876  0  0  -0.270277  0  3.827598  0  0  -0.276474  0  3.831198  0  0  0.028419  -0.266143  0  3.825291  0
C  C46  1  0.80372759  0.36912332  0.72416824  1  0  -0.040522  0  3.570541  0  0  -0.138686  0  3.835227  0  0  -0.132013  0  3.837459  0  0  -0.144681  -0.1431  0  3.833899  0
C  C47  1  0.30372746  0.63088136  0.27582657  1  0  -0.040415  0  3.570491  0  0  -0.138533  0  3.835123  0  0  -0.131839  0  3.837367  0  0  -0.144562  -0.142944  0  3.833789  0
C  C48  1  0.55846259  0.73071457  0.85670247  1  0  0.047546  0  3.666313  0  0  -0.014081  0  3.926362  0  0  -0.009197  0  3.939079  0  0  -0.065476  -0.017635  0  3.917673  0
C  C49  1  0.05844505  0.26927867  0.14330243  1  0  0.047726  0  3.66632  0  0  -0.013935  0  3.926454  0  0  -0.009048  0  3.939166  0  0  -0.065399  -0.017483  0  3.91777  0
C  C50  1  0.49020332  0.59069998  0.89035078  1  0  -0.141344  0  3.6979  0  0  -0.182265  0  3.96015  0  0  -0.184217  0  3.974323  0  0  -0.174847  -0.180591  0  3.949836  0
C  C51  1  0.99020580  0.40929075  0.10965235  1  0  -0.141398  0  3.697844  0  0  -0.182394  0  3.960174  0  0  -0.184318  0  3.974314  0  0  -0.174906  -0.180745  0  3.949897  0
C  C52  1  0.32878620  0.63966210  0.96708595  1  0  -0.099258  0  3.694057  0  0  -0.137873  0  3.953071  0  0  -0.138727  0  3.96794  0  0  -0.172626  -0.136916  0  3.942668  0
C  C53  1  0.82878284  0.36033219  0.03291858  1  0  -0.099125  0  3.693884  0  0  -0.137665  0  3.952835  0  0  -0.138544  0  3.967699  0  0  -0.172497  -0.136703  0  3.942433  0
C  C54  1  0.11620479  0.72404895  0.94372698  1  0  -0.131422  0  3.68284  0  0  -0.170135  0  3.940296  0  0  -0.171742  0  3.954515  0  0  -0.170835  -0.16888  0  3.930389  0
C  C55  1  0.61620449  0.27594770  0.05627021  1  0  -0.131252  0  3.682792  0  0  -0.170082  0  3.94032  0  0  -0.171679  0  3.954525  0  0  -0.170806  -0.168829  0  3.930407  0
C  C56  1  0.18756684  0.85919103  0.90604028  1  0  0.046702  0  3.663701  0  0  -0.015437  0  3.928706  0  0  -0.010385  0  3.940859  0  0  -0.066659  -0.018918  0  3.920332  0
C  C57  1  0.68756065  0.14079395  0.09395463  1  0  0.046564  0  3.663655  0  0  -0.015499  0  3.928562  0  0  -0.010462  0  3.940738  0  0  -0.066624  -0.018974  0  3.920173  0
N  N58  1  0.34944681  0.80711918  0.83461627  1  0  -0.45172  0  3.34324  0  0  -0.34842  0  3.599689  0  0  -0.370312  0  3.614165  0  0  -0.331763  -0.332698  0  3.589198  0
N  N59  1  0.84944131  0.19287160  0.16538590  1  0  -0.45178  0  3.343315  0  0  -0.348518  0  3.599841  0  0  -0.370394  0  3.61428  0  0  -0.331788  -0.3328  0  3.589363  0
Cl  Cl60  1  0.70613512  0.08232814  0.82352321  1  0  -0.032804  0  1.545833  0  0  -0.017126  0  1.816053  0  0  -0.019899  0  1.809493  0  0  0.033783  -0.015521  0  1.820213  0
Cl  Cl61  1  0.20613150  0.91767896  0.17647953  1  0  -0.032871  0  1.545987  0  0  -0.017163  0  1.816186  0  0  -0.019935  0  1.809623  0  0  0.033755  -0.015553  0  1.820349  0
Cl  Cl62  1  0.23271634  0.19746251  0.83743536  1  0  -0.036282  0  1.440457  0  0  -0.018436  0  1.693634  0  0  -0.020237  0  1.685944  0  0  0.027677  -0.017264  0  1.698647  0
Cl  Cl63  1  0.73271484  0.80253876  0.16256594  1  0  -0.036289  0  1.440428  0  0  -0.018443  0  1.693633  0  0  -0.020244  0  1.685942  0  0  0.02767  -0.017268  0  1.698652  0
O  O64  1  0.16072376  0.87180855  0.53180094  1  0  -0.853939  0  1.883312  0  0  -0.786178  0  2.07208  0  0  -0.809977  0  2.038686  0  0  -0.575314  -0.769066  0  2.095501  0
O  O65  1  0.66072234  0.12819737  0.46819616  1  0  -0.853896  0  1.883419  0  0  -0.786055  0  2.072104  0  0  -0.809836  0  2.038655  0  0  -0.575268  -0.768949  0  2.095545  0
O  O66  1  0.05452982  0.57948131  0.59359484  1  0  -0.867283  0  1.834811  0  0  -0.802882  0  2.021124  0  0  -0.824412  0  1.986162  0  0  -0.587866  -0.787367  0  2.045931  0
O  O67  1  0.55453652  0.42052581  0.40640324  1  0  -0.867238  0  1.834834  0  0  -0.802831  0  2.021148  0  0  -0.82436  0  1.986191  0  0  -0.587812  -0.787309  0  2.045953  0
O  O68  1  0.58846622  0.72357699  0.49142273  1  0  -0.848797  0  1.878564  0  0  -0.772275  0  2.066027  0  0  -0.798017  0  2.031672  0  0  -0.558115  -0.753616  0  2.089976  0
O  O69  1  0.08846231  0.27642779  0.50857436  1  0  -0.848765  0  1.87864  0  0  -0.772268  0  2.066084  0  0  -0.798014  0  2.031718  0  0  -0.558067  -0.753606  0  2.090037  0
O  O70  1  0.67362468  0.05289381  0.61934226  1  0  -0.861073  0  2.042878  0  0  -0.770602  0  2.308758  0  0  -0.798394  0  2.288155  0  0  -0.370239  -0.750668  0  2.322579  0
O  O71  1  0.17361974  0.94711215  0.38066287  1  0  -0.861093  0  2.042572  0  0  -0.770665  0  2.308476  0  0  -0.79846  0  2.287881  0  0  -0.370235  -0.750733  0  2.322294  0
O  O72  1  0.24922011  0.14965749  0.62989397  1  0  -0.809247  0  2.017318  0  0  -0.724056  0  2.254955  0  0  -0.750726  0  2.237495  0  0  -0.351837  -0.705285  0  2.266902  0
O  O73  1  0.74922595  0.85033796  0.37010592  1  0  -0.809117  0  2.017677  0  0  -0.723885  0  2.2553  0  0  -0.750556  0  2.237836  0  0  -0.351765  -0.705111  0  2.267246  0
O  O74  1  0.56178734  0.32534137  0.70536853  1  0  -0.444645  0  2.263054  0  0  -0.351051  0  2.512594  0  0  -0.371252  0  2.504841  0  0  -0.218594  -0.33748  0  2.519068  0
O  O75  1  0.06178348  0.67466228  0.29462970  1  0  -0.444602  0  2.26314  0  0  -0.35101  0  2.512666  0  0  -0.371221  0  2.50491  0  0  -0.218605  -0.337437  0  2.519137  0
O  O76  1  0.49043991  0.76717281  0.67883712  1  0  -0.842413  0  1.97098  0  0  -0.756625  0  2.240686  0  0  -0.784549  0  2.220039  0  0  -0.376288  -0.736853  0  2.255212  0
O  O77  1  0.99042514  0.23282488  0.32116446  1  0  -0.842348  0  1.97115  0  0  -0.756573  0  2.240874  0  0  -0.784496  0  2.220222  0  0  -0.376267  -0.736803  0  2.255411  0
O  O78  1  0.07491007  0.87320858  0.72209062  1  0  -0.841863  0  2.082141  0  0  -0.760471  0  2.375585  0  0  -0.790141  0  2.35757  0  0  -0.382615  -0.739357  0  2.387412  0
O  O79  1  0.57490630  0.12678809  0.27790728  1  0  -0.841891  0  2.081822  0  0  -0.76054  0  2.375332  0  0  -0.790216  0  2.357323  0  0  -0.382653  -0.739418  0  2.387154  0
