# generated using pymatgen
data_ZnH12C10(SN4)2
_symmetry_space_group_name_H-M   'P 1'
_cell_length_a   5.75891275
_cell_length_b   8.38218636
_cell_length_c   18.03507925
_cell_angle_alpha   98.99640130
_cell_angle_beta   90.02597643
_cell_angle_gamma   110.05630451
_symmetry_Int_Tables_number   1
_chemical_formula_structural   ZnH12C10(SN4)2
_chemical_formula_sum   'Zn2 H24 C20 S4 N16'
_cell_volume   806.36436359
_cell_formula_units_Z   2
loop_
 _symmetry_equiv_pos_site_id
 _symmetry_equiv_pos_as_xyz
  1  'x, y, z'
loop_
 _atom_site_type_symbol
 _atom_site_label
 _atom_site_symmetry_multiplicity
 _atom_site_fract_x
 _atom_site_fract_y
 _atom_site_fract_z
 _atom_site_occupancy
 _atom_site_hle17_bader_spin_density
 _atom_site_hle17_ddec_charge
 _atom_site_hle17_ddec_spin_density
 _atom_site_hle17_ddec_sum_bond_order
 _atom_site_hle17_magmom
 _atom_site_hse06_10hf_bader_spin_density
 _atom_site_hse06_10hf_ddec_charge
 _atom_site_hse06_10hf_ddec_spin_density
 _atom_site_hse06_10hf_ddec_sum_bond_order
 _atom_site_hse06_10hf_magmom
 _atom_site_hse06_bader_spin_density
 _atom_site_hse06_ddec_charge
 _atom_site_hse06_ddec_spin_density
 _atom_site_hse06_ddec_sum_bond_order
 _atom_site_hse06_magmom
 _atom_site_pbe_bader_spin_density
 _atom_site_pbe_cm5_charge
 _atom_site_pbe_ddec_charge
 _atom_site_pbe_ddec_spin_density
 _atom_site_pbe_ddec_sum_bond_order
 _atom_site_pbe_magmom
Zn  Zn0  1  0.29413961  0.00034825  0.24962094  1  0  1.010917  0  2.087802  0  0  0.822522  0  2.598272  0  0  0.862522  0  2.545802  0  0  0.760071  0.795234  0  2.634021  0
Zn  Zn1  1  0.70589894  0.99965126  0.75037503  1  0  1.010997  0  2.087859  0  0  0.822588  0  2.598352  0  0  0.862574  0  2.54587  0  0  0.760201  0.795298  0  2.634094  0
H  H2  1  0.21619810  0.37004971  0.22161471  1  0  0.098737  0  0.951015  0  0  0.098697  0  1.026408  0  0  0.10192  0  1.022872  0  0  0.132148  0.096365  0  1.028896  0
H  H3  1  0.84866740  0.63041459  0.27813014  1  0  0.098783  0  0.951284  0  0  0.098771  0  1.026618  0  0  0.102027  0  1.023045  0  0  0.132306  0.096428  0  1.029116  0
H  H4  1  0.78382084  0.62996269  0.77838170  1  0  0.098725  0  0.951043  0  0  0.098661  0  1.026444  0  0  0.10191  0  1.022884  0  0  0.132166  0.096329  0  1.028933  0
H  H5  1  0.15135931  0.36957860  0.72186089  1  0  0.09897  0  0.951006  0  0  0.098884  0  1.026389  0  0  0.102138  0  1.022818  0  0  0.132333  0.09654  0  1.028888  0
H  H6  1  0.00933098  0.07678658  0.39650569  1  0  0.100249  0  0.973485  0  0  0.10471  0  1.047714  0  0  0.107548  0  1.044711  0  0  0.129807  0.102555  0  1.04994  0
H  H7  1  0.93009532  0.92318239  0.10317873  1  0  0.100981  0  0.973856  0  0  0.105268  0  1.048377  0  0  0.108121  0  1.045365  0  0  0.129979  0.103067  0  1.050637  0
H  H8  1  0.99070916  0.92320917  0.60348610  1  0  0.100214  0  0.973309  0  0  0.104709  0  1.047532  0  0  0.107545  0  1.04452  0  0  0.129807  0.102552  0  1.049758  0
H  H9  1  0.06987072  0.07683880  0.89682559  1  0  0.101078  0  0.973795  0  0  0.105333  0  1.048367  0  0  0.108198  0  1.045347  0  0  0.130039  0.103133  0  1.050623  0
H  H10  1  0.59180835  0.31656515  0.39870574  1  0  0.083725  0  0.920926  0  0  0.097312  0  0.987136  0  0  0.097837  0  0.987126  0  0  0.110891  0.09685  0  0.987259  0
H  H11  1  0.27336285  0.68137785  0.10167627  1  0  0.082401  0  0.922941  0  0  0.095981  0  0.988513  0  0  0.096475  0  0.988482  0  0  0.110418  0.095541  0  0.988644  0
H  H12  1  0.40819915  0.68341731  0.60129943  1  0  0.083664  0  0.920993  0  0  0.097217  0  0.987236  0  0  0.097752  0  0.987215  0  0  0.110848  0.096754  0  0.987358  0
H  H13  1  0.72659052  0.31863530  0.89833851  1  0  0.08246  0  0.923071  0  0  0.096178  0  0.988532  0  0  0.096648  0  0.988566  0  0  0.11049  0.095735  0  0.988662  0
H  H14  1  0.72051909  0.21536376  0.45841382  1  0  0.078906  0  0.947218  0  0  0.090844  0  1.018072  0  0  0.090808  0  1.019507  0  0  0.10621  0.090761  0  1.017178  0
H  H15  1  0.50181113  0.78376948  0.04191541  1  0  0.078986  0  0.948979  0  0  0.090872  0  1.019096  0  0  0.090798  0  1.02051  0  0  0.106444  0.090827  0  1.018198  0
H  H16  1  0.27949453  0.78459970  0.54157878  1  0  0.078915  0  0.94724  0  0  0.09081  0  1.01814  0  0  0.090778  0  1.019575  0  0  0.10618  0.090726  0  1.017249  0
H  H17  1  0.49813160  0.21625020  0.95809655  1  0  0.079103  0  0.948795  0  0  0.091001  0  1.018944  0  0  0.090952  0  1.020362  0  0  0.106446  0.090953  0  1.018043  0
H  H18  1  0.92417608  0.59887298  0.44475654  1  0  0.076999  0  0.951727  0  0  0.094977  0  1.01339  0  0  0.095932  0  1.013335  0  0  0.085945  0.094203  0  1.013574  0
H  H19  1  0.32609729  0.40012737  0.05512031  1  0  0.077182  0  0.951185  0  0  0.09535  0  1.012718  0  0  0.096302  0  1.012671  0  0  0.086152  0.094572  0  1.012874  0
H  H20  1  0.07586899  0.40109774  0.55525325  1  0  0.077176  0  0.951445  0  0  0.095202  0  1.013043  0  0  0.096156  0  1.012979  0  0  0.086064  0.094428  0  1.013232  0
H  H21  1  0.67386367  0.59989753  0.94488984  1  0  0.077214  0  0.950994  0  0  0.095369  0  1.012509  0  0  0.096327  0  1.012457  0  0  0.086118  0.094588  0  1.012664  0
H  H22  1  0.74239466  0.50931422  0.51733993  1  0  0.07447  0  0.940641  0  0  0.09109  0  1.004612  0  0  0.091703  0  1.005521  0  0  0.088256  0.090546  0  1.00411  0
H  H23  1  0.23244921  0.48967414  0.98274123  1  0  0.073813  0  0.940051  0  0  0.090611  0  1.004281  0  0  0.091247  0  1.005154  0  0  0.087968  0.090101  0  1.003736  0
H  H24  1  0.25761910  0.49064250  0.48266267  1  0  0.074569  0  0.940488  0  0  0.091166  0  1.004499  0  0  0.091815  0  1.005366  0  0  0.088247  0.090623  0  1.003992  0
H  H25  1  0.76747282  0.51034928  0.01727491  1  0  0.073766  0  0.940263  0  0  0.090614  0  1.004396  0  0  0.091251  0  1.005266  0  0  0.087964  0.090093  0  1.003854  0
C  C26  1  0.13129579  0.32189562  0.27118206  1  0  0.21076  0  3.689712  0  0  0.159829  0  3.974271  0  0  0.170455  0  3.987634  0  0  0.152247  0.152934  0  3.965111  0
C  C27  1  0.81081056  0.67845718  0.22864076  1  0  0.210729  0  3.688339  0  0  0.159723  0  3.972653  0  0  0.170339  0  3.985936  0  0  0.151571  0.152846  0  3.963483  0
C  C28  1  0.86872515  0.67811034  0.72881385  1  0  0.210775  0  3.689823  0  0  0.159863  0  3.974364  0  0  0.170465  0  3.987709  0  0  0.152248  0.152968  0  3.965203  0
C  C29  1  0.18919719  0.32153977  0.77135445  1  0  0.210627  0  3.68821  0  0  0.159672  0  3.972513  0  0  0.170286  0  3.985799  0  0  0.151617  0.152797  0  3.963345  0
C  C30  1  0.03323535  0.17209220  0.35987748  1  0  0.1735  0  3.6412  0  0  0.096876  0  3.897178  0  0  0.110245  0  3.909538  0  0  0.162594  0.088355  0  3.888615  0
C  C31  1  0.85973829  0.82795407  0.13989252  1  0  0.172795  0  3.640479  0  0  0.096152  0  3.896917  0  0  0.109533  0  3.909276  0  0  0.162839  0.087706  0  3.888353  0
C  C32  1  0.96677964  0.82789838  0.64011446  1  0  0.173557  0  3.641  0  0  0.096873  0  3.897035  0  0  0.110258  0  3.90938  0  0  0.16251  0.088355  0  3.88847  0
C  C33  1  0.14024019  0.17206073  0.86010964  1  0  0.172735  0  3.640657  0  0  0.09611  0  3.897013  0  0  0.109483  0  3.909351  0  0  0.162775  0.08766  0  3.888455  0
C  C34  1  0.76451642  0.32284094  0.42680865  1  0  -0.015372  0  3.639666  0  0  -0.092685  0  3.901426  0  0  -0.089348  0  3.913298  0  0  -0.051312  -0.094711  0  3.893225  0
C  C35  1  0.43993064  0.67609860  0.07342739  1  0  -0.015057  0  3.641566  0  0  -0.090041  0  3.900274  0  0  -0.086492  0  3.911873  0  0  -0.050735  -0.092233  0  3.89233  0
C  C36  1  0.23549818  0.67713141  0.57318907  1  0  -0.015189  0  3.63968  0  0  -0.092347  0  3.901235  0  0  -0.089015  0  3.913113  0  0  -0.051169  -0.094372  0  3.893032  0
C  C37  1  0.56002204  0.32392362  0.92658588  1  0  -0.015312  0  3.641817  0  0  -0.090563  0  3.900713  0  0  -0.087103  0  3.912467  0  0  -0.050903  -0.092743  0  3.892747  0
C  C38  1  0.88346525  0.49473148  0.47833769  1  0  -0.131392  0  3.700599  0  0  -0.173832  0  3.965234  0  0  -0.175566  0  3.979228  0  0  -0.170558  -0.172468  0  3.955576  0
C  C39  1  0.38849867  0.50461773  0.02169732  1  0  -0.130041  0  3.696893  0  0  -0.173874  0  3.962682  0  0  -0.175572  0  3.976408  0  0  -0.170504  -0.172507  0  3.953089  0
C  C40  1  0.11655626  0.50523033  0.52166753  1  0  -0.131816  0  3.700367  0  0  -0.174325  0  3.965065  0  0  -0.176061  0  3.979022  0  0  -0.170735  -0.172957  0  3.955409  0
C  C41  1  0.61144144  0.49540716  0.97831283  1  0  -0.130319  0  3.697043  0  0  -0.174031  0  3.96277  0  0  -0.175698  0  3.976513  0  0  -0.170488  -0.17264  0  3.953149  0
C  C42  1  0.64971953  0.13228701  0.12582952  1  0  0.324873  0  4.096304  0  0  0.303103  0  4.397055  0  0  0.326729  0  4.41049  0  0  0.151633  0.287163  0  4.387445  0
C  C43  1  0.51824913  0.86810058  0.37336163  1  0  0.325535  0  4.093933  0  0  0.303855  0  4.394542  0  0  0.327479  0  4.407982  0  0  0.151405  0.287911  0  4.384948  0
C  C44  1  0.35028197  0.86774617  0.87416242  1  0  0.325052  0  4.096064  0  0  0.303304  0  4.396787  0  0  0.32693  0  4.41022  0  0  0.151759  0.287364  0  4.387177  0
C  C45  1  0.48177565  0.13187827  0.62663438  1  0  0.32532  0  4.094269  0  0  0.303633  0  4.394889  0  0  0.327256  0  4.408334  0  0  0.151248  0.287691  0  4.385291  0
S  S46  1  0.85213769  0.19308024  0.06512945  1  0  -0.351189  0  2.039067  0  0  -0.331544  0  2.323627  0  0  -0.347015  0  2.320057  0  0  -0.150661  -0.320737  0  2.325763  0
S  S47  1  0.65867745  0.80685109  0.43428430  1  0  -0.351348  0  2.036377  0  0  -0.331691  0  2.320166  0  0  -0.347147  0  2.316616  0  0  -0.150783  -0.320902  0  2.322301  0
S  S48  1  0.14788208  0.80697212  0.93486898  1  0  -0.351277  0  2.039054  0  0  -0.331642  0  2.323609  0  0  -0.347113  0  2.320039  0  0  -0.150685  -0.320831  0  2.325743  0
S  S49  1  0.34133208  0.19308679  0.56570020  1  0  -0.351301  0  2.0363  0  0  -0.331665  0  2.320119  0  0  -0.347101  0  2.316533  0  0  -0.15076  -0.320878  0  2.322258  0
N  N50  1  0.16393324  0.18642413  0.29822105  1  0  -0.423354  0  3.260288  0  0  -0.342717  0  3.565175  0  0  -0.364283  0  3.574878  0  0  -0.354246  -0.328261  0  3.558249  0
N  N51  1  0.97755875  0.81404957  0.20140038  1  0  -0.423511  0  3.259886  0  0  -0.342687  0  3.564897  0  0  -0.364233  0  3.574543  0  0  -0.354134  -0.328226  0  3.557958  0
N  N52  1  0.83609403  0.81358063  0.70177200  1  0  -0.423331  0  3.26027  0  0  -0.342593  0  3.565125  0  0  -0.364158  0  3.574832  0  0  -0.354189  -0.328136  0  3.558196  0
N  N53  1  0.02244418  0.18595511  0.79859489  1  0  -0.423671  0  3.26011  0  0  -0.342796  0  3.56509  0  0  -0.364337  0  3.574738  0  0  -0.354198  -0.328333  0  3.558146  0
N  N54  1  0.98813023  0.38991933  0.31278104  1  0  -0.256613  0  2.823263  0  0  -0.253645  0  3.077707  0  0  -0.262854  0  3.091951  0  0  -0.212477  -0.247465  0  3.068138  0
N  N55  1  0.59911684  0.60990947  0.18730016  1  0  -0.257258  0  2.821601  0  0  -0.25412  0  3.076369  0  0  -0.263265  0  3.090655  0  0  -0.212574  -0.247929  0  3.066768  0
N  N56  1  0.01188033  0.61007626  0.68721628  1  0  -0.256708  0  2.823479  0  0  -0.253745  0  3.07797  0  0  -0.262941  0  3.092225  0  0  -0.212594  -0.247564  0  3.0684  0
N  N57  1  0.40087971  0.39009631  0.81270184  1  0  -0.257172  0  2.821685  0  0  -0.254052  0  3.076439  0  0  -0.263197  0  3.090721  0  0  -0.212625  -0.24786  0  3.066841  0
N  N58  1  0.92693382  0.29227927  0.36842912  1  0  0.050925  0  3.56125  0  0  0.177116  0  3.739097  0  0  0.168163  0  3.760986  0  0  -0.128416  0.182735  0  3.724528  0
N  N59  1  0.63378755  0.70738277  0.13163064  1  0  0.051192  0  3.560488  0  0  0.176116  0  3.739171  0  0  0.166804  0  3.761617  0  0  -0.129356  0.18177  0  3.724606  0
N  N60  1  0.07307164  0.70770611  0.63156408  1  0  0.050875  0  3.561294  0  0  0.176997  0  3.739263  0  0  0.167991  0  3.761254  0  0  -0.128354  0.182618  0  3.724694  0
N  N61  1  0.36618696  0.29263450  0.86837559  1  0  0.051106  0  3.560873  0  0  0.176075  0  3.739554  0  0  0.166806  0  3.762003  0  0  -0.129331  0.181722  0  3.724986  0
N  N62  1  0.50283224  0.08386696  0.17088353  1  0  -0.600133  0  3.032521  0  0  -0.530973  0  3.348985  0  0  -0.553098  0  3.34589  0  0  -0.431225  -0.516031  0  3.350953  0
N  N63  1  0.42051233  0.91687333  0.32819957  1  0  -0.600978  0  3.030325  0  0  -0.531782  0  3.346517  0  0  -0.553944  0  3.343491  0  0  -0.431824  -0.516825  0  3.348455  0
N  N64  1  0.49715896  0.91615602  0.82910374  1  0  -0.600225  0  3.032159  0  0  -0.531076  0  3.348602  0  0  -0.553196  0  3.345499  0  0  -0.431384  -0.516133  0  3.350569  0
N  N65  1  0.57953112  0.08313249  0.67180132  1  0  -0.600789  0  3.030708  0  0  -0.531612  0  3.346906  0  0  -0.553771  0  3.343884  0  0  -0.431726  -0.516656  0  3.348837  0
