# generated using pymatgen
data_LiH9C5INO2
_symmetry_space_group_name_H-M   'P 1'
_cell_length_a   5.07230028
_cell_length_b   9.90913258
_cell_length_c   15.97574777
_cell_angle_alpha   90.00005764
_cell_angle_beta   89.99980082
_cell_angle_gamma   89.99972480
_symmetry_Int_Tables_number   1
_chemical_formula_structural   LiH9C5INO2
_chemical_formula_sum   'Li4 H36 C20 I4 N4 O8'
_cell_volume   802.97456805
_cell_formula_units_Z   4
loop_
 _symmetry_equiv_pos_site_id
 _symmetry_equiv_pos_as_xyz
  1  'x, y, z'
loop_
 _atom_site_type_symbol
 _atom_site_label
 _atom_site_symmetry_multiplicity
 _atom_site_fract_x
 _atom_site_fract_y
 _atom_site_fract_z
 _atom_site_occupancy
 _atom_site_hle17_bader_spin_density
 _atom_site_hle17_ddec_charge
 _atom_site_hle17_ddec_spin_density
 _atom_site_hle17_ddec_sum_bond_order
 _atom_site_hle17_magmom
 _atom_site_hse06_10hf_bader_spin_density
 _atom_site_hse06_10hf_ddec_charge
 _atom_site_hse06_10hf_ddec_spin_density
 _atom_site_hse06_10hf_ddec_sum_bond_order
 _atom_site_hse06_10hf_magmom
 _atom_site_hse06_bader_spin_density
 _atom_site_hse06_ddec_charge
 _atom_site_hse06_ddec_spin_density
 _atom_site_hse06_ddec_sum_bond_order
 _atom_site_hse06_magmom
 _atom_site_pbe_bader_spin_density
 _atom_site_pbe_cm5_charge
 _atom_site_pbe_ddec_charge
 _atom_site_pbe_ddec_spin_density
 _atom_site_pbe_ddec_sum_bond_order
 _atom_site_pbe_magmom
Li  Li0  1  0.81532556  0.49231084  0.44383371  1  0  0.847759  0  0.397389  0  0  0.798819  0  0.514001  0  0  0.809952  0  0.495479  0  0  0.427365  0.790587  0  0.527676  0
Li  Li1  1  0.31533477  0.50769029  0.55616738  1  0  0.84775  0  0.397439  0  0  0.798806  0  0.514055  0  0  0.809937  0  0.495534  0  0  0.427362  0.790572  0  0.527732  0
Li  Li2  1  0.31532316  0.00768921  0.94383296  1  0  0.847773  0  0.397392  0  0  0.798829  0  0.514  0  0  0.809956  0  0.495487  0  0  0.427364  0.790599  0  0.527684  0
Li  Li3  1  0.81532337  0.99230991  0.05616813  1  0  0.847761  0  0.397391  0  0  0.798808  0  0.514021  0  0  0.809938  0  0.495503  0  0  0.427363  0.79058  0  0.527704  0
H  H4  1  0.64403004  0.30396148  0.32693467  1  0  0.078126  0  0.956371  0  0  0.079981  0  1.031177  0  0  0.083574  0  1.027875  0  0  0.112821  0.07709  0  1.033997  0
H  H5  1  0.14403622  0.69604209  0.67306473  1  0  0.078104  0  0.956384  0  0  0.079968  0  1.031187  0  0  0.083545  0  1.027898  0  0  0.112792  0.077075  0  1.034012  0
H  H6  1  0.14402786  0.19603679  0.82693405  1  0  0.078179  0  0.956291  0  0  0.080036  0  1.031102  0  0  0.083622  0  1.027806  0  0  0.112829  0.077145  0  1.03392  0
H  H7  1  0.64402855  0.80396174  0.17306661  1  0  0.078155  0  0.956339  0  0  0.08004  0  1.031111  0  0  0.083613  0  1.027826  0  0  0.112825  0.07715  0  1.033932  0
H  H8  1  0.07399634  0.01374604  0.28978358  1  0  0.07397  0  0.946975  0  0  0.080042  0  1.023388  0  0  0.081924  0  1.022146  0  0  0.098529  0.078442  0  1.024573  0
H  H9  1  0.57399146  0.98625267  0.71021715  1  0  0.073915  0  0.947009  0  0  0.080003  0  1.023409  0  0  0.081885  0  1.022167  0  0  0.098511  0.078402  0  1.024595  0
H  H10  1  0.57399533  0.48625639  0.78978635  1  0  0.073931  0  0.946964  0  0  0.080038  0  1.023371  0  0  0.081922  0  1.022129  0  0  0.09852  0.078441  0  1.024556  0
H  H11  1  0.07399641  0.51374433  0.21021376  1  0  0.073949  0  0.946961  0  0  0.080056  0  1.023363  0  0  0.08194  0  1.022121  0  0  0.098534  0.078458  0  1.024547  0
H  H12  1  0.42173152  0.98929214  0.27704127  1  0  0.070967  0  0.924267  0  0  0.08475  0  0.988757  0  0  0.085689  0  0.988677  0  0  0.102394  0.08395  0  0.988988  0
H  H13  1  0.92172772  0.01070772  0.72295783  1  0  0.070979  0  0.92426  0  0  0.084757  0  0.988758  0  0  0.085695  0  0.988678  0  0  0.102413  0.083956  0  0.988987  0
H  H14  1  0.92172707  0.51070814  0.77704372  1  0  0.07098  0  0.924247  0  0  0.084752  0  0.988779  0  0  0.08569  0  0.988702  0  0  0.102421  0.083955  0  0.989011  0
H  H15  1  0.42173218  0.48929172  0.22295663  1  0  0.070966  0  0.924254  0  0  0.084736  0  0.988789  0  0  0.085675  0  0.988713  0  0  0.102415  0.083939  0  0.989015  0
H  H16  1  0.12800828  0.24214941  0.28327626  1  0  0.285574  0  0.879901  0  0  0.266743  0  0.944526  0  0  0.275081  0  0.937977  0  0  0.297295  0.260803  0  0.949174  0
H  H17  1  0.62801137  0.75784916  0.71672253  1  0  0.285523  0  0.87988  0  0  0.266688  0  0.944519  0  0  0.275026  0  0.937969  0  0  0.297286  0.260747  0  0.949175  0
H  H18  1  0.62801335  0.25785388  0.78327450  1  0  0.285535  0  0.879919  0  0  0.266665  0  0.944577  0  0  0.275003  0  0.938026  0  0  0.297252  0.260726  0  0.949222  0
H  H19  1  0.12801222  0.74214671  0.21672492  1  0  0.285531  0  0.879901  0  0  0.266661  0  0.944561  0  0  0.274999  0  0.938012  0  0  0.297247  0.260719  0  0.949215  0
H  H20  1  0.40848307  0.20345139  0.23136428  1  0  0.265724  0  0.91812  0  0  0.246764  0  0.984714  0  0  0.255431  0  0.978622  0  0  0.269198  0.240546  0  0.989142  0
H  H21  1  0.90848326  0.79654952  0.76863608  1  0  0.265707  0  0.918141  0  0  0.246742  0  0.984735  0  0  0.255406  0  0.978647  0  0  0.269189  0.240523  0  0.98917  0
H  H22  1  0.90848580  0.29655113  0.73136379  1  0  0.265724  0  0.918151  0  0  0.246737  0  0.984733  0  0  0.255401  0  0.978645  0  0  0.269208  0.240517  0  0.989169  0
H  H23  1  0.40848448  0.70344876  0.26863594  1  0  0.265761  0  0.918124  0  0  0.246776  0  0.984702  0  0  0.255442  0  0.978613  0  0  0.269222  0.240559  0  0.989131  0
H  H24  1  0.37442895  0.93862390  0.42363285  1  0  0.086626  0  0.961177  0  0  0.099291  0  1.028797  0  0  0.100887  0  1.028617  0  0  0.087742  0.097993  0  1.029174  0
H  H25  1  0.87442233  0.06137507  0.57636630  1  0  0.086629  0  0.961171  0  0  0.099294  0  1.028811  0  0  0.100892  0  1.028627  0  0  0.087739  0.097993  0  1.029188  0
H  H26  1  0.87442994  0.56137672  0.92363596  1  0  0.086701  0  0.961172  0  0  0.099416  0  1.028759  0  0  0.101015  0  1.028574  0  0  0.087783  0.098114  0  1.029134  0
H  H27  1  0.37443515  0.43862427  0.07636444  1  0  0.086613  0  0.961243  0  0  0.099307  0  1.02884  0  0  0.100903  0  1.028659  0  0  0.087759  0.098009  0  1.029214  0
H  H28  1  0.14353964  0.07188537  0.43996245  1  0  0.079691  0  0.938938  0  0  0.099029  0  0.996686  0  0  0.099762  0  0.99765  0  0  0.093736  0.098525  0  0.995966  0
H  H29  1  0.64353693  0.92811518  0.56003821  1  0  0.079709  0  0.938881  0  0  0.099069  0  0.996612  0  0  0.099803  0  0.997573  0  0  0.093751  0.098563  0  0.995892  0
H  H30  1  0.64353720  0.42811309  0.93996455  1  0  0.079722  0  0.938844  0  0  0.099079  0  0.996618  0  0  0.099812  0  0.99758  0  0  0.093755  0.098571  0  0.995898  0
H  H31  1  0.14354529  0.57188646  0.06003611  1  0  0.07965  0  0.939005  0  0  0.099021  0  0.996741  0  0  0.099754  0  0.997702  0  0  0.093744  0.098516  0  0.996018  0
H  H32  1  0.73067179  0.09750340  0.39663458  1  0  0.079342  0  0.943118  0  0  0.095811  0  1.006017  0  0  0.096954  0  1.006357  0  0  0.091961  0.09481  0  1.006163  0
H  H33  1  0.23066891  0.90249795  0.60336285  1  0  0.079279  0  0.9432  0  0  0.095755  0  1.006089  0  0  0.096899  0  1.006428  0  0  0.091936  0.094751  0  1.006238  0
H  H34  1  0.23067359  0.40249477  0.89663534  1  0  0.079305  0  0.943175  0  0  0.095767  0  1.006068  0  0  0.096909  0  1.00641  0  0  0.091941  0.094764  0  1.006211  0
H  H35  1  0.73067894  0.59750455  0.10336397  1  0  0.079352  0  0.943179  0  0  0.095826  0  1.006077  0  0  0.09697  0  1.006419  0  0  0.091982  0.094826  0  1.00622  0
H  H36  1  0.56285163  0.17884984  0.48073655  1  0  0.096073  0  0.952632  0  0  0.109838  0  1.016282  0  0  0.111815  0  1.015823  0  0  0.098417  0.108349  0  1.016735  0
H  H37  1  0.06285042  0.82114990  0.51926231  1  0  0.096062  0  0.952632  0  0  0.109817  0  1.016291  0  0  0.111796  0  1.015831  0  0  0.098412  0.108327  0  1.016744  0
H  H38  1  0.06285419  0.32114786  0.98073664  1  0  0.096067  0  0.952673  0  0  0.109819  0  1.016316  0  0  0.111795  0  1.01586  0  0  0.098408  0.108331  0  1.016767  0
H  H39  1  0.56285575  0.67885188  0.01926348  1  0  0.09606  0  0.952653  0  0  0.109829  0  1.016302  0  0  0.111806  0  1.015845  0  0  0.098412  0.108342  0  1.016749  0
C  C40  1  0.46946236  0.25869943  0.35632117  1  0  -0.001099  0  3.498555  0  0  -0.021793  0  3.738051  0  0  -0.022749  0  3.748062  0  0  0.0084  -0.021091  0  3.731389  0
C  C41  1  0.96946640  0.74130132  0.64367912  1  0  -0.001138  0  3.498514  0  0  -0.021848  0  3.737999  0  0  -0.022793  0  3.748014  0  0  0.008407  -0.021145  0  3.73134  0
C  C42  1  0.96945772  0.24129909  0.85632127  1  0  -0.001054  0  3.498616  0  0  -0.02181  0  3.738004  0  0  -0.022759  0  3.748028  0  0  0.008417  -0.021112  0  3.731339  0
C  C43  1  0.46945921  0.75869964  0.14367902  1  0  -0.001076  0  3.498611  0  0  -0.021834  0  3.738014  0  0  -0.022771  0  3.748041  0  0  0.008403  -0.021141  0  3.731359  0
C  C44  1  0.26940052  0.04662861  0.31067327  1  0  0.040344  0  3.515735  0  0  -0.0169  0  3.77339  0  0  -0.012746  0  3.782761  0  0  -0.066299  -0.019462  0  3.766767  0
C  C45  1  0.76939617  0.95337062  0.68932662  1  0  0.040412  0  3.515642  0  0  -0.016868  0  3.773354  0  0  -0.012719  0  3.782736  0  0  -0.066282  -0.01942  0  3.766721  0
C  C46  1  0.76939784  0.45337236  0.81067539  1  0  0.040448  0  3.515504  0  0  -0.016914  0  3.773351  0  0  -0.012755  0  3.782709  0  0  -0.066305  -0.019466  0  3.766698  0
C  C47  1  0.26940081  0.54662586  0.18932575  1  0  0.040438  0  3.515649  0  0  -0.01691  0  3.773418  0  0  -0.012751  0  3.78277  0  0  -0.066303  -0.019469  0  3.766784  0
C  C48  1  0.31904418  0.04099342  0.40450735  1  0  -0.139112  0  3.666609  0  0  -0.181084  0  3.924702  0  0  -0.18307  0  3.937783  0  0  -0.168382  -0.179537  0  3.91545  0
C  C49  1  0.81904079  0.95900670  0.59549186  1  0  -0.139117  0  3.66655  0  0  -0.181123  0  3.924654  0  0  -0.18311  0  3.937737  0  0  -0.16838  -0.179576  0  3.915403  0
C  C50  1  0.81903948  0.45900858  0.90451197  1  0  -0.139119  0  3.666237  0  0  -0.181212  0  3.924498  0  0  -0.183198  0  3.937578  0  0  -0.168413  -0.179671  0  3.915276  0
C  C51  1  0.31904747  0.54099153  0.09548974  1  0  -0.139047  0  3.666611  0  0  -0.181068  0  3.924792  0  0  -0.183054  0  3.937881  0  0  -0.168428  -0.179533  0  3.915559  0
C  C52  1  0.54277251  0.14275887  0.41616994  1  0  -0.134714  0  3.612388  0  0  -0.177327  0  3.8646  0  0  -0.17861  0  3.876498  0  0  -0.154678  -0.176333  0  3.856645  0
C  C53  1  0.04277026  0.85724092  0.58382895  1  0  -0.134611  0  3.612477  0  0  -0.177197  0  3.864639  0  0  -0.17848  0  3.876536  0  0  -0.154637  -0.176199  0  3.856675  0
C  C54  1  0.04277078  0.35723879  0.91617004  1  0  -0.134782  0  3.612524  0  0  -0.177306  0  3.864679  0  0  -0.17859  0  3.876582  0  0  -0.15469  -0.176312  0  3.856717  0
C  C55  1  0.54277592  0.64275999  0.08383010  1  0  -0.134739  0  3.612468  0  0  -0.177371  0  3.864738  0  0  -0.178656  0  3.876638  0  0  -0.154706  -0.176373  0  3.856776  0
C  C56  1  0.30985354  0.36832884  0.40065412  1  0  0.699454  0  3.874314  0  0  0.653391  0  4.174728  0  0  0.685707  0  4.165869  0  0  0.23218  0.631269  0  4.180261  0
C  C57  1  0.80985712  0.63167130  0.59934698  1  0  0.699431  0  3.874295  0  0  0.653351  0  4.174733  0  0  0.685666  0  4.165872  0  0  0.232126  0.631236  0  4.180258  0
C  C58  1  0.80986570  0.13166914  0.90065415  1  0  0.699235  0  3.87444  0  0  0.653281  0  4.17467  0  0  0.685576  0  4.165843  0  0  0.232061  0.631171  0  4.180191  0
C  C59  1  0.30986665  0.86833100  0.09934632  1  0  0.699159  0  3.874517  0  0  0.653237  0  4.174695  0  0  0.685529  0  4.165873  0  0  0.232032  0.631126  0  4.180216  0
I  I60  1  0.79329148  0.74304819  0.35460104  1  0  -0.640725  0  0.740189  0  0  -0.592172  0  0.986785  0  0  -0.606705  0  0.967175  0  0  -0.230149  -0.580795  0  1.001158  0
I  I61  1  0.29330206  0.25695502  0.64539757  1  0  -0.640731  0  0.740194  0  0  -0.592164  0  0.986788  0  0  -0.606697  0  0.967183  0  0  -0.230144  -0.580786  0  1.001165  0
I  I62  1  0.29330450  0.75695455  0.85459983  1  0  -0.640727  0  0.740194  0  0  -0.592169  0  0.98678  0  0  -0.606704  0  0.967171  0  0  -0.230134  -0.580778  0  1.001154  0
I  I63  1  0.79330876  0.24304462  0.14540066  1  0  -0.64071  0  0.740178  0  0  -0.592166  0  0.986783  0  0  -0.606704  0  0.967177  0  0  -0.230136  -0.580781  0  1.001155  0
N  N64  1  0.30823440  0.19311362  0.28868309  1  0  -0.287989  0  3.320906  0  0  -0.221847  0  3.513395  0  0  -0.236137  0  3.521519  0  0  -0.477745  -0.211946  0  3.507756  0
N  N65  1  0.80823513  0.80688552  0.71131738  1  0  -0.287942  0  3.320765  0  0  -0.221779  0  3.513237  0  0  -0.236063  0  3.521358  0  0  -0.477764  -0.211879  0  3.507607  0
N  N66  1  0.80823901  0.30689025  0.78868261  1  0  -0.288039  0  3.320963  0  0  -0.221726  0  3.513324  0  0  -0.236012  0  3.52145  0  0  -0.477731  -0.21183  0  3.50769  0
N  N67  1  0.30823841  0.69310990  0.21131661  1  0  -0.288044  0  3.320903  0  0  -0.221743  0  3.513269  0  0  -0.236031  0  3.521393  0  0  -0.477728  -0.211844  0  3.507634  0
O  O68  1  0.44329928  0.44403362  0.44918138  1  0  -0.8076  0  2.009453  0  0  -0.759215  0  2.254002  0  0  -0.780415  0  2.238256  0  0  -0.447964  -0.744299  0  2.264991  0
O  O69  1  0.94331001  0.55596619  0.55081644  1  0  -0.80759  0  2.009406  0  0  -0.759199  0  2.253949  0  0  -0.780398  0  2.238205  0  0  -0.447949  -0.74428  0  2.264934  0
O  O70  1  0.94328455  0.05596915  0.94918073  1  0  -0.807459  0  2.009839  0  0  -0.759108  0  2.254327  0  0  -0.780297  0  2.238592  0  0  -0.447883  -0.7442  0  2.265326  0
O  O71  1  0.44328729  0.94402965  0.05082022  1  0  -0.8074  0  2.009855  0  0  -0.759054  0  2.254326  0  0  -0.780244  0  2.238593  0  0  -0.447867  -0.744141  0  2.265318  0
O  O72  1  0.06421553  0.37374030  0.38830867  1  0  -0.692415  0  1.924676  0  0  -0.644122  0  2.156571  0  0  -0.666351  0  2.144987  0  0  -0.374837  -0.628913  0  2.164522  0
O  O73  1  0.56422690  0.62625843  0.61169332  1  0  -0.692375  0  1.924758  0  0  -0.644066  0  2.156648  0  0  -0.666293  0  2.145058  0  0  -0.374776  -0.62886  0  2.164599  0
O  O74  1  0.56420013  0.12625726  0.88830369  1  0  -0.692417  0  1.924302  0  0  -0.644178  0  2.1562  0  0  -0.666381  0  2.144573  0  0  -0.374792  -0.628964  0  2.164147  0
O  O75  1  0.06419893  0.87374248  0.11169643  1  0  -0.69237  0  1.924324  0  0  -0.644151  0  2.156208  0  0  -0.666354  0  2.144587  0  0  -0.374761  -0.628934  0  2.164155  0
