# generated using pymatgen
data_ZnH24C28(N2O3)2
_symmetry_space_group_name_H-M   'P 1'
_cell_length_a   10.71892170
_cell_length_b   11.45832302
_cell_length_c   11.98779033
_cell_angle_alpha   88.10767546
_cell_angle_beta   84.44174003
_cell_angle_gamma   73.86164685
_symmetry_Int_Tables_number   1
_chemical_formula_structural   ZnH24C28(N2O3)2
_chemical_formula_sum   'Zn2 H48 C56 N8 O12'
_cell_volume   1407.65182629
_cell_formula_units_Z   2
loop_
 _symmetry_equiv_pos_site_id
 _symmetry_equiv_pos_as_xyz
  1  'x, y, z'
loop_
 _atom_site_type_symbol
 _atom_site_label
 _atom_site_symmetry_multiplicity
 _atom_site_fract_x
 _atom_site_fract_y
 _atom_site_fract_z
 _atom_site_occupancy
 _atom_site_hle17_bader_spin_density
 _atom_site_hle17_ddec_charge
 _atom_site_hle17_ddec_spin_density
 _atom_site_hle17_ddec_sum_bond_order
 _atom_site_hle17_magmom
 _atom_site_hse06_10hf_bader_spin_density
 _atom_site_hse06_10hf_ddec_charge
 _atom_site_hse06_10hf_ddec_spin_density
 _atom_site_hse06_10hf_ddec_sum_bond_order
 _atom_site_hse06_10hf_magmom
 _atom_site_hse06_bader_spin_density
 _atom_site_hse06_ddec_charge
 _atom_site_hse06_ddec_spin_density
 _atom_site_hse06_ddec_sum_bond_order
 _atom_site_hse06_magmom
 _atom_site_pbe_bader_spin_density
 _atom_site_pbe_cm5_charge
 _atom_site_pbe_ddec_charge
 _atom_site_pbe_ddec_spin_density
 _atom_site_pbe_ddec_sum_bond_order
 _atom_site_pbe_magmom
Zn  Zn0  1  0.56978437  0.06650267  0.75032295  1  0  0.975084  0  1.872072  0  0  0.782655  0  2.344334  0  0  0.833793  0  2.287943  0  0  0.679584  0.746879  0  2.382979  0
Zn  Zn1  1  0.43021917  0.93349376  0.24968176  1  0  0.975115  0  1.872108  0  0  0.78269  0  2.344371  0  0  0.833828  0  2.287971  0  0  0.679596  0.746923  0  2.383013  0
H  H2  1  0.86580006  0.21670655  0.26308313  1  0  0.142654  0  0.923707  0  0  0.165383  0  0.976329  0  0  0.167977  0  0.975093  0  0  0.105443  0.163576  0  0.977173  0
H  H3  1  0.13420662  0.78328813  0.73689388  1  0  0.142589  0  0.923696  0  0  0.165355  0  0.976289  0  0  0.167949  0  0.975052  0  0  0.105425  0.163553  0  0.977132  0
H  H4  1  0.97343692  0.18358086  0.37240875  1  0  0.125541  0  0.937686  0  0  0.145889  0  0.994818  0  0  0.148539  0  0.993331  0  0  0.096948  0.143966  0  0.995996  0
H  H5  1  0.02655094  0.81642090  0.62757937  1  0  0.125506  0  0.937754  0  0  0.145914  0  0.994821  0  0  0.148566  0  0.993335  0  0  0.096978  0.14399  0  0.996005  0
H  H6  1  0.02588797  0.23177525  0.23756480  1  0  0.144487  0  0.955643  0  0  0.161057  0  1.020892  0  0  0.16283  0  1.022025  0  0  0.103458  0.159781  0  1.020136  0
H  H7  1  0.97411125  0.76822828  0.76243166  1  0  0.14445  0  0.955449  0  0  0.160992  0  1.020758  0  0  0.162761  0  1.021897  0  0  0.103451  0.159716  0  1.020003  0
H  H8  1  0.82842014  0.63020723  0.35286080  1  0  0.119611  0  0.982023  0  0  0.124004  0  1.049588  0  0  0.127638  0  1.048123  0  0  0.102679  0.121467  0  1.050664  0
H  H9  1  0.17158319  0.36978819  0.64712811  1  0  0.119588  0  0.982184  0  0  0.12399  0  1.049721  0  0  0.127622  0  1.048259  0  0  0.102639  0.121448  0  1.050792  0
H  H10  1  0.74117247  0.81894457  0.46339930  1  0  0.116164  0  0.959233  0  0  0.122927  0  1.024744  0  0  0.126957  0  1.020841  0  0  0.102145  0.119983  0  1.027592  0
H  H11  1  0.25884084  0.18105434  0.53658882  1  0  0.116125  0  0.959357  0  0  0.122914  0  1.024836  0  0  0.126921  0  1.020957  0  0  0.102123  0.11997  0  1.027681  0
H  H12  1  0.76187335  0.60771634  0.76893387  1  0  0.110916  0  0.958594  0  0  0.117421  0  1.024144  0  0  0.120843  0  1.021638  0  0  0.105558  0.114895  0  1.026075  0
H  H13  1  0.23813067  0.39228004  0.23104996  1  0  0.110856  0  0.958689  0  0  0.117392  0  1.024188  0  0  0.120814  0  1.021683  0  0  0.105592  0.114872  0  1.026113  0
H  H14  1  0.85597243  0.41986372  0.65910806  1  0  0.096343  0  0.957884  0  0  0.109091  0  1.01772  0  0  0.111941  0  1.016668  0  0  0.102094  0.107096  0  1.018485  0
H  H15  1  0.14402199  0.58013571  0.34087717  1  0  0.096374  0  0.957704  0  0  0.109106  0  1.017581  0  0  0.111954  0  1.016534  0  0  0.102174  0.107117  0  1.018357  0
H  H16  1  0.58166016  0.64103383  0.03785888  1  0  0.147831  0  0.929297  0  0  0.168054  0  0.986579  0  0  0.170973  0  0.984867  0  0  0.103863  0.1661  0  0.987662  0
H  H17  1  0.41833526  0.35897501  0.96213603  1  0  0.14786  0  0.929291  0  0  0.168146  0  0.986495  0  0  0.171066  0  0.984778  0  0  0.103905  0.166188  0  0.987576  0
H  H18  1  0.65546056  0.55720871  0.15356217  1  0  0.13286  0  0.959187  0  0  0.148535  0  1.023997  0  0  0.151556  0  1.022966  0  0  0.093435  0.146503  0  1.024601  0
H  H19  1  0.34454252  0.44279973  0.84643222  1  0  0.132899  0  0.959217  0  0  0.148592  0  1.024009  0  0  0.151615  0  1.022978  0  0  0.093451  0.146556  0  1.024609  0
H  H20  1  0.53240274  0.51249377  0.08818980  1  0  0.144099  0  0.966174  0  0  0.160575  0  1.02964  0  0  0.163826  0  1.02791  0  0  0.098185  0.158369  0  1.030711  0
H  H21  1  0.46759792  0.48751080  0.91180904  1  0  0.1441  0  0.966085  0  0  0.160565  0  1.029574  0  0  0.163814  0  1.027844  0  0  0.098177  0.158358  0  1.030647  0
H  H22  1  0.87199617  0.32819042  0.82077385  1  0  0.106366  0  0.993077  0  0  0.112688  0  1.058591  0  0  0.117026  0  1.055704  0  0  0.09742  0.10954  0  1.060894  0
H  H23  1  0.12800584  0.67181520  0.17923154  1  0  0.106249  0  0.993152  0  0  0.112629  0  1.058616  0  0  0.116973  0  1.055722  0  0  0.097385  0.109483  0  1.060924  0
H  H24  1  0.08828154  0.20828325  0.72873711  1  0  0.083883  0  0.956931  0  0  0.094964  0  1.018114  0  0  0.098145  0  1.015432  0  0  0.097332  0.092694  0  1.01999  0
H  H25  1  0.91172258  0.79172160  0.27127066  1  0  0.083845  0  0.956895  0  0  0.094932  0  1.018076  0  0  0.098112  0  1.015398  0  0  0.097352  0.092664  0  1.019948  0
H  H26  1  0.27088544  0.23939758  0.02567160  1  0  0.115125  0  0.957147  0  0  0.124655  0  1.018968  0  0  0.128132  0  1.016002  0  0  0.106071  0.122004  0  1.021334  0
H  H27  1  0.72911715  0.76060347  0.97434139  1  0  0.115193  0  0.957127  0  0  0.124729  0  1.018914  0  0  0.128201  0  1.015954  0  0  0.1061  0.122076  0  1.021282  0
H  H28  1  0.06009580  0.36583604  0.11297637  1  0  0.100342  0  0.962292  0  0  0.11214  0  1.022774  0  0  0.115024  0  1.022099  0  0  0.103235  0.110033  0  1.023417  0
H  H29  1  0.93990496  0.63416488  0.88703675  1  0  0.10048  0  0.962284  0  0  0.112265  0  1.022742  0  0  0.115148  0  1.02207  0  0  0.103328  0.110151  0  1.023377  0
H  H30  1  0.53656724  0.13980608  0.50730794  1  0  0.104896  0  0.906787  0  0  0.115645  0  0.96147  0  0  0.118224  0  0.959348  0  0  0.130339  0.113784  0  0.962931  0
H  H31  1  0.46343572  0.86018661  0.49270109  1  0  0.104897  0  0.906716  0  0  0.115655  0  0.961393  0  0  0.118231  0  0.959273  0  0  0.130357  0.113792  0  0.962848  0
H  H32  1  0.49094285  0.32957737  0.39543727  1  0  0.110923  0  0.954427  0  0  0.124237  0  1.00705  0  0  0.12684  0  1.007045  0  0  0.113344  0.122399  0  1.007118  0
H  H33  1  0.50906074  0.67041161  0.60456265  1  0  0.110898  0  0.954668  0  0  0.124229  0  1.007269  0  0  0.126831  0  1.007268  0  0  0.113361  0.12239  0  1.007334  0
H  H34  1  0.55655601  0.51240212  0.68686383  1  0  0.115835  0  0.950138  0  0  0.127405  0  1.0064  0  0  0.130474  0  1.005404  0  0  0.115166  0.125252  0  1.007107  0
H  H35  1  0.44343674  0.48760097  0.31313559  1  0  0.115824  0  0.950145  0  0  0.127395  0  1.006428  0  0  0.130461  0  1.005427  0  0  0.115153  0.125243  0  1.007133  0
H  H36  1  0.60245255  0.31627483  0.78366312  1  0  0.093459  0  0.938711  0  0  0.099937  0  1.004517  0  0  0.102442  0  1.002728  0  0  0.122174  0.097966  0  1.006071  0
H  H37  1  0.39754326  0.68373499  0.21634008  1  0  0.093384  0  0.93871  0  0  0.099902  0  1.004509  0  0  0.102414  0  1.00271  0  0  0.122131  0.097932  0  1.006067  0
H  H38  1  0.84951522  0.04425774  0.70171604  1  0  0.077102  0  0.92262  0  0  0.087679  0  0.979966  0  0  0.09053  0  0.977815  0  0  0.118379  0.085463  0  0.981815  0
H  H39  1  0.15048023  0.95572977  0.29829449  1  0  0.077031  0  0.922589  0  0  0.087669  0  0.979862  0  0  0.090464  0  0.977771  0  0  0.118365  0.085453  0  0.981714  0
H  H40  1  0.04858686  0.00117264  0.80263375  1  0  0.104806  0  0.957419  0  0  0.116751  0  1.013694  0  0  0.119836  0  1.012332  0  0  0.112001  0.114731  0  1.014403  0
H  H41  1  0.95140456  0.99882853  0.19737333  1  0  0.104765  0  0.957353  0  0  0.116664  0  1.013682  0  0  0.119749  0  1.012322  0  0  0.111965  0.114646  0  1.014389  0
H  H42  1  0.79604417  0.04266239  0.11245360  1  0  0.10827  0  0.956447  0  0  0.120666  0  1.011749  0  0  0.12366  0  1.01072  0  0  0.11326  0.118518  0  1.012636  0
H  H43  1  0.20395354  0.95734946  0.88755692  1  0  0.108289  0  0.956453  0  0  0.120604  0  1.011851  0  0  0.123599  0  1.010822  0  0  0.113272  0.118462  0  1.012733  0
H  H44  1  0.60871235  0.08456461  0.99771401  1  0  0.107445  0  0.909132  0  0  0.117316  0  0.964962  0  0  0.120431  0  0.96214  0  0  0.131838  0.115123  0  0.966762  0
H  H45  1  0.39128217  0.91544329  0.00229517  1  0  0.107417  0  0.909245  0  0  0.117263  0  0.965104  0  0  0.120375  0  0.962286  0  0  0.131809  0.115073  0  0.966903  0
H  H46  1  0.93110068  0.32874780  0.49188236  1  0  0.286641  0  0.882171  0  0  0.279331  0  0.929229  0  0  0.284853  0  0.926449  0  0  0.322276  0.275412  0  0.931344  0
H  H47  1  0.06888599  0.67124458  0.50810444  1  0  0.286597  0  0.882205  0  0  0.279228  0  0.929305  0  0  0.284754  0  0.926524  0  0  0.322221  0.275312  0  0.931417  0
H  H48  1  0.84311781  0.43981771  0.11264916  1  0  0.29733  0  0.943894  0  0  0.276875  0  1.011761  0  0  0.285188  0  1.005506  0  0  0.300126  0.271095  0  1.016073  0
H  H49  1  0.15687358  0.56018623  0.88735534  1  0  0.297338  0  0.943805  0  0  0.276924  0  1.011651  0  0  0.285241  0  1.005379  0  0  0.300119  0.27114  0  1.015956  0
C  C50  1  0.94263087  0.24371963  0.30116227  1  0  -0.453018  0  3.685649  0  0  -0.536634  0  3.927684  0  0  -0.542631  0  3.930916  0  0  -0.239195  -0.532309  0  3.925189  0
C  C51  1  0.05736661  0.75627909  0.69882361  1  0  -0.452862  0  3.685545  0  0  -0.536515  0  3.927646  0  0  -0.542516  0  3.930883  0  0  -0.239208  -0.532196  0  3.925155  0
C  C52  1  0.89143919  0.37625815  0.33217433  1  0  0.639467  0  3.774622  0  0  0.602425  0  4.06533  0  0  0.631294  0  4.06389  0  0  0.24675  0.583067  0  4.065449  0
C  C53  1  0.10855517  0.62374128  0.66781341  1  0  0.639598  0  3.774943  0  0  0.60242  0  4.065747  0  0  0.631297  0  4.064301  0  0  0.246771  0.583056  0  4.065869  0
C  C54  1  0.84642444  0.51268396  0.49871491  1  0  0.254299  0  3.798051  0  0  0.246869  0  4.050854  0  0  0.256686  0  4.070807  0  0  0.094523  0.240259  0  4.037954  0
C  C55  1  0.15357477  0.48731022  0.50126847  1  0  0.254077  0  3.798633  0  0  0.246639  0  4.051379  0  0  0.256464  0  4.07133  0  0  0.094308  0.240026  0  4.038467  0
C  C56  1  0.81668994  0.62585739  0.44374835  1  0  -0.174648  0  3.713627  0  0  -0.195303  0  3.9722  0  0  -0.201632  0  3.992118  0  0  -0.102715  -0.191227  0  3.959084  0
C  C57  1  0.18330762  0.37414322  0.55624497  1  0  -0.17468  0  3.713781  0  0  -0.195358  0  3.972378  0  0  -0.201687  0  3.992286  0  0  -0.102695  -0.191276  0  3.95924  0
C  C58  1  0.76819057  0.73163416  0.50685717  1  0  -0.073357  0  3.75292  0  0  -0.098275  0  4.006669  0  0  -0.096505  0  4.026902  0  0  -0.091059  -0.099017  0  3.992911  0
C  C59  1  0.23182120  0.26836094  0.49313700  1  0  -0.073231  0  3.752766  0  0  -0.098178  0  4.0065  0  0  -0.096377  0  4.026729  0  0  -0.09098  -0.098916  0  3.992737  0
C  C60  1  0.74650729  0.72654822  0.62405775  1  0  -0.091288  0  3.787396  0  0  -0.068391  0  4.021205  0  0  -0.079493  0  4.047664  0  0  -0.031538  -0.061111  0  4.003323  0
C  C61  1  0.25350145  0.27344759  0.37593411  1  0  -0.091423  0  3.787374  0  0  -0.068501  0  4.021203  0  0  -0.079609  0  4.047644  0  0  -0.031544  -0.061218  0  4.003336  0
C  C62  1  0.78035108  0.61315711  0.67822549  1  0  -0.059134  0  3.748602  0  0  -0.0839  0  4.003244  0  0  -0.081591  0  4.022404  0  0  -0.086448  -0.085323  0  3.9901  0
C  C63  1  0.21965178  0.38683456  0.32176272  1  0  -0.059058  0  3.748544  0  0  -0.08384  0  4.003222  0  0  -0.081527  0  4.022376  0  0  -0.08645  -0.085267  0  3.990092  0
C  C64  1  0.83102660  0.50765470  0.61627197  1  0  -0.172367  0  3.747845  0  0  -0.193753  0  4.009236  0  0  -0.199985  0  4.029801  0  0  -0.098481  -0.18945  0  3.995254  0
C  C65  1  0.16896890  0.49233923  0.38371418  1  0  -0.172124  0  3.747581  0  0  -0.193544  0  4.009053  0  0  -0.199777  0  4.029612  0  0  -0.098471  -0.18926  0  3.995097  0
C  C66  1  0.67903879  0.83789965  0.69136467  1  0  0.612497  0  3.959462  0  0  0.568995  0  4.24614  0  0  0.602575  0  4.241418  0  0  0.185142  0.546266  0  4.248409  0
C  C67  1  0.32096891  0.16209611  0.30863310  1  0  0.612648  0  3.959436  0  0  0.569104  0  4.246166  0  0  0.602707  0  4.241406  0  0  0.185222  0.546374  0  4.248451  0
C  C68  1  0.61690220  0.54952410  0.07359997  1  0  -0.467575  0  3.671602  0  0  -0.548051  0  3.909221  0  0  -0.554946  0  3.911657  0  0  -0.249686  -0.543061  0  3.906969  0
C  C69  1  0.38309809  0.45048416  0.92639628  1  0  -0.467532  0  3.671796  0  0  -0.548076  0  3.90939  0  0  -0.554971  0  3.911819  0  0  -0.249682  -0.543087  0  3.907133  0
C  C70  1  0.71737068  0.47214121  0.98993371  1  0  0.643774  0  3.770297  0  0  0.610942  0  4.052658  0  0  0.639876  0  4.05184  0  0  0.241948  0.591549  0  4.052465  0
C  C71  1  0.28263837  0.52786115  0.01006211  1  0  0.643508  0  3.770288  0  0  0.610696  0  4.052652  0  0  0.639634  0  4.051824  0  0  0.241791  0.591311  0  4.052456  0
C  C72  1  0.95185940  0.35369955  0.97287202  1  0  0.274962  0  3.782982  0  0  0.26828  0  4.030623  0  0  0.27925  0  4.050361  0  0  0.101013  0.261154  0  4.017098  0
C  C73  1  0.04814786  0.64630181  0.02713647  1  0  0.275025  0  3.782883  0  0  0.268339  0  4.03052  0  0  0.279311  0  4.050251  0  0  0.100923  0.261214  0  4.016994  0
C  C74  1  0.96026703  0.30970197  0.86351043  1  0  -0.18646  0  3.744732  0  0  -0.20684  0  3.999677  0  0  -0.21426  0  4.020017  0  0  -0.10876  -0.20216  0  3.986219  0
C  C75  1  0.03973586  0.69030094  0.13649999  1  0  -0.186536  0  3.744667  0  0  -0.206971  0  3.999621  0  0  -0.214396  0  4.019953  0  0  -0.10881  -0.202294  0  3.986174  0
C  C76  1  0.08021979  0.24293757  0.81354313  1  0  -0.062575  0  3.796765  0  0  -0.085031  0  4.048872  0  0  -0.082406  0  4.069115  0  0  -0.091107  -0.086393  0  4.034882  0
C  C77  1  0.91978044  0.75706514  0.18646413  1  0  -0.062572  0  3.796793  0  0  -0.085031  0  4.048918  0  0  -0.082408  0  4.069164  0  0  -0.091139  -0.086388  0  4.034932  0
C  C78  1  0.19350240  0.21696057  0.86985032  1  0  -0.093623  0  3.787443  0  0  -0.07032  0  4.020699  0  0  -0.081723  0  4.046461  0  0  -0.031887  -0.063178  0  4.003311  0
C  C79  1  0.80650010  0.78303581  0.13015947  1  0  -0.093407  0  3.787413  0  0  -0.070129  0  4.020685  0  0  -0.081528  0  4.046445  0  0  -0.031833  -0.062993  0  4.00331  0
C  C80  1  0.18466732  0.26039109  0.97934516  1  0  -0.046132  0  3.736669  0  0  -0.073549  0  3.989383  0  0  -0.070792  0  4.009522  0  0  -0.084591  -0.07481  0  3.975428  0
C  C81  1  0.81533262  0.73960975  0.02066385  1  0  -0.046194  0  3.736603  0  0  -0.073612  0  3.98931  0  0  -0.070854  0  4.009456  0  0  -0.084598  -0.074865  0  3.975339  0
C  C82  1  0.06590109  0.32855648  0.02948793  1  0  -0.180997  0  3.726412  0  0  -0.199597  0  3.983119  0  0  -0.206386  0  4.003359  0  0  -0.101672  -0.194742  0  3.968962  0
C  C83  1  0.93409971  0.67144443  0.97052352  1  0  -0.181171  0  3.726294  0  0  -0.199732  0  3.982949  0  0  -0.206524  0  4.003188  0  0  -0.101724  -0.194857  0  3.968772  0
C  C84  1  0.31994517  0.14522776  0.81251650  1  0  0.616569  0  3.95034  0  0  0.571131  0  4.238767  0  0  0.605148  0  4.233693  0  0  0.187533  0.548157  0  4.241294  0
C  C85  1  0.68005756  0.85477605  0.18748639  1  0  0.616302  0  3.950822  0  0  0.570865  0  4.239268  0  0  0.60488  0  4.2342  0  0  0.187465  0.5479  0  4.241786  0
C  C86  1  0.54130445  0.22478793  0.54278453  1  0  0.143478  0  3.675918  0  0  0.113135  0  3.925054  0  0  0.120093  0  3.9432  0  0  0.057409  0.108611  0  3.912875  0
C  C87  1  0.45869907  0.77520851  0.45722102  1  0  0.143567  0  3.675788  0  0  0.113226  0  3.924947  0  0  0.120185  0  3.943091  0  0  0.057374  0.108709  0  3.912765  0
C  C88  1  0.51582181  0.33221360  0.48097252  1  0  -0.148888  0  3.693931  0  0  -0.167683  0  3.938698  0  0  -0.17525  0  3.960849  0  0  -0.076058  -0.162898  0  3.924276  0
C  C89  1  0.48418071  0.66778555  0.51903302  1  0  -0.148859  0  3.694115  0  0  -0.167679  0  3.938881  0  0  -0.175246  0  3.961029  0  0  -0.076037  -0.162889  0  3.924456  0
C  C90  1  0.51669075  0.44129166  0.53069967  1  0  0.097432  0  3.728988  0  0  0.107164  0  3.963637  0  0  0.11156  0  3.984071  0  0  0.014764  0.104086  0  3.950811  0
C  C91  1  0.48330878  0.55870819  0.46930188  1  0  0.097266  0  3.729129  0  0  0.107039  0  3.963754  0  0  0.111438  0  3.984185  0  0  0.014758  0.103963  0  3.950929  0
C  C92  1  0.55012273  0.43380899  0.64168572  1  0  -0.140052  0  3.681047  0  0  -0.160042  0  3.928798  0  0  -0.166865  0  3.949288  0  0  -0.073497  -0.155819  0  3.915481  0
C  C93  1  0.44987004  0.56619133  0.35831712  1  0  -0.14004  0  3.681057  0  0  -0.160039  0  3.928828  0  0  -0.166856  0  3.949312  0  0  -0.073486  -0.155816  0  3.915515  0
C  C94  1  0.57633133  0.32286139  0.69752723  1  0  0.128459  0  3.69052  0  0  0.097647  0  3.94282  0  0  0.104165  0  3.961348  0  0  0.050781  0.09337  0  3.930388  0
C  C95  1  0.42367003  0.67714327  0.30248073  1  0  0.128609  0  3.690539  0  0  0.097746  0  3.942888  0  0  0.104265  0  3.961414  0  0  0.050867  0.093463  0  3.930466  0
C  C96  1  0.84324432  0.04344371  0.79320173  1  0  0.123418  0  3.722639  0  0  0.092333  0  3.973476  0  0  0.098288  0  3.992865  0  0  0.047463  0.088447  0  3.960535  0
C  C97  1  0.15675473  0.95654961  0.20680338  1  0  0.123393  0  3.722757  0  0  0.092286  0  3.973544  0  0  0.098286  0  3.992943  0  0  0.04744  0.0884  0  3.960609  0
C  C98  1  0.95389968  0.01798011  0.85046238  1  0  -0.145661  0  3.720441  0  0  -0.163584  0  3.968091  0  0  -0.170996  0  3.990317  0  0  -0.073818  -0.158864  0  3.953175  0
C  C99  1  0.04609953  0.98201788  0.14954259  1  0  -0.145441  0  3.72041  0  0  -0.163328  0  3.96804  0  0  -0.170732  0  3.990251  0  0  -0.073682  -0.158611  0  3.953124  0
C  C100  1  0.94185472  0.01520367  0.96814948  1  0  0.102351  0  3.728961  0  0  0.11271  0  3.960674  0  0  0.116696  0  3.982361  0  0  0.020565  0.109959  0  3.946416  0
C  C101  1  0.05814735  0.98479917  0.03185682  1  0  0.102155  0  3.729075  0  0  0.112536  0  3.960747  0  0  0.116517  0  3.982439  0  0  0.020541  0.109791  0  3.946488  0
C  C102  1  0.81475104  0.04251071  0.02163828  1  0  -0.13796  0  3.678025  0  0  -0.158874  0  3.925839  0  0  -0.165951  0  3.946815  0  0  -0.06957  -0.154749  0  3.912691  0
C  C103  1  0.18524971  0.95749575  0.97836717  1  0  -0.13783  0  3.678082  0  0  -0.158684  0  3.925914  0  0  -0.165757  0  3.94689  0  0  -0.069586  -0.154562  0  3.912759  0
C  C104  1  0.70828048  0.06677749  0.95839982  1  0  0.155699  0  3.646108  0  0  0.122544  0  3.89657  0  0  0.130077  0  3.912911  0  0  0.065436  0.117472  0  3.885774  0
C  C105  1  0.29171945  0.93322613  0.04160577  1  0  0.155575  0  3.646158  0  0  0.122418  0  3.896626  0  0  0.129946  0  3.912965  0  0  0.065352  0.117348  0  3.885837  0
N  N106  1  0.89194869  0.40090086  0.44265712  1  0  -0.447928  0  3.366322  0  0  -0.395453  0  3.600073  0  0  -0.417667  0  3.611003  0  0  -0.394954  -0.38042  0  3.59275  0
N  N107  1  0.10803474  0.59909780  0.55732889  1  0  -0.447946  0  3.366625  0  0  -0.395261  0  3.600233  0  0  -0.417481  0  3.611158  0  0  -0.394816  -0.380223  0  3.592904  0
N  N108  1  0.83612691  0.42152490  0.03009315  1  0  -0.469295  0  3.346829  0  0  -0.411211  0  3.577071  0  0  -0.435203  0  3.58649  0  0  -0.401995  -0.395064  0  3.570512  0
N  N109  1  0.16387009  0.57848409  0.96991250  1  0  -0.469231  0  3.346734  0  0  -0.411187  0  3.576911  0  0  -0.435166  0  3.586308  0  0  -0.401884  -0.395031  0  3.570342  0
N  N110  1  0.57005619  0.22001072  0.64997744  1  0  -0.327104  0  3.291152  0  0  -0.247146  0  3.563758  0  0  -0.266374  0  3.580108  0  0  -0.325176  -0.234208  0  3.552643  0
N  N111  1  0.42994418  0.77999388  0.35003393  1  0  -0.327206  0  3.291289  0  0  -0.247276  0  3.563964  0  0  -0.266504  0  3.580309  0  0  -0.325207  -0.23433  0  3.552851  0
N  N112  1  0.72239515  0.06639343  0.84574855  1  0  -0.317175  0  3.303253  0  0  -0.236521  0  3.577111  0  0  -0.254997  0  3.592768  0  0  -0.3241  -0.224249  0  3.566529  0
N  N113  1  0.27760474  0.93360275  0.15425559  1  0  -0.317042  0  3.303213  0  0  -0.236402  0  3.5771  0  0  -0.254864  0  3.592724  0  0  -0.323996  -0.224135  0  3.566529  0
O  O114  1  0.85002810  0.45636555  0.26183049  1  0  -0.552976  0  1.948558  0  0  -0.499245  0  2.155553  0  0  -0.520186  0  2.150456  0  0  -0.282352  -0.484819  0  2.158686  0
O  O115  1  0.14994750  0.54363351  0.73816356  1  0  -0.553052  0  1.948725  0  0  -0.499312  0  2.155761  0  0  -0.520262  0  2.150664  0  0  -0.28236  -0.484876  0  2.158883  0
O  O116  1  0.64810586  0.82994962  0.79435854  1  0  -0.608056  0  1.886784  0  0  -0.563711  0  2.100642  0  0  -0.58659  0  2.091256  0  0  -0.328929  -0.547622  0  2.106448  0
O  O117  1  0.35187240  0.17002730  0.20563095  1  0  -0.608144  0  1.886678  0  0  -0.563785  0  2.100556  0  0  -0.586685  0  2.091184  0  0  -0.329062  -0.547698  0  2.106369  0
O  O118  1  0.65328892  0.94065269  0.63638222  1  0  -0.653259  0  2.013842  0  0  -0.583495  0  2.275565  0  0  -0.61299  0  2.260898  0  0  -0.344968  -0.56263  0  2.284582  0
O  O119  1  0.34674360  0.05935138  0.36362695  1  0  -0.65331  0  2.014063  0  0  -0.583516  0  2.275777  0  0  -0.613018  0  2.26109  0  0  -0.344913  -0.562651  0  2.284802  0
O  O120  1  0.69316774  0.45755612  0.89267064  1  0  -0.579334  0  1.905827  0  0  -0.530389  0  2.114443  0  0  -0.551781  0  2.108563  0  0  -0.302871  -0.515216  0  2.118096  0
O  O121  1  0.30683854  0.54245627  0.10732509  1  0  -0.579158  0  1.905789  0  0  -0.530244  0  2.114378  0  0  -0.551673  0  2.108545  0  0  -0.302764  -0.515068  0  2.118028  0
O  O122  1  0.42358701  0.13316023  0.86519661  1  0  -0.644385  0  2.01477  0  0  -0.572802  0  2.279989  0  0  -0.603132  0  2.26689  0  0  -0.335484  -0.551667  0  2.287886  0
O  O123  1  0.57641862  0.86684842  0.13480594  1  0  -0.644275  0  2.015131  0  0  -0.572667  0  2.280305  0  0  -0.603001  0  2.267226  0  0  -0.335401  -0.551519  0  2.288187  0
O  O124  1  0.32501137  0.10045148  0.71709093  1  0  -0.627161  0  1.87756  0  0  -0.580258  0  2.09484  0  0  -0.603051  0  2.083885  0  0  -0.338843  -0.564072  0  2.101448  0
O  O125  1  0.67498867  0.89954658  0.28291731  1  0  -0.627079  0  1.877588  0  0  -0.580188  0  2.094892  0  0  -0.602978  0  2.083934  0  0  -0.338839  -0.563987  0  2.101482  0
