# generated using pymatgen
data_CdH6(C3O)4
_symmetry_space_group_name_H-M   'P 1'
_cell_length_a   4.07002265
_cell_length_b   7.28715519
_cell_length_c   31.71137378
_cell_angle_alpha   95.60995456
_cell_angle_beta   90.00001563
_cell_angle_gamma   90.00011223
_symmetry_Int_Tables_number   1
_chemical_formula_structural   CdH6(C3O)4
_chemical_formula_sum   'Cd4 H24 C48 O16'
_cell_volume   936.01933490
_cell_formula_units_Z   4
loop_
 _symmetry_equiv_pos_site_id
 _symmetry_equiv_pos_as_xyz
  1  'x, y, z'
loop_
 _atom_site_type_symbol
 _atom_site_label
 _atom_site_symmetry_multiplicity
 _atom_site_fract_x
 _atom_site_fract_y
 _atom_site_fract_z
 _atom_site_occupancy
 _atom_site_hle17_bader_spin_density
 _atom_site_hle17_ddec_charge
 _atom_site_hle17_ddec_spin_density
 _atom_site_hle17_ddec_sum_bond_order
 _atom_site_hle17_magmom
 _atom_site_hse06_10hf_bader_spin_density
 _atom_site_hse06_10hf_ddec_charge
 _atom_site_hse06_10hf_ddec_spin_density
 _atom_site_hse06_10hf_ddec_sum_bond_order
 _atom_site_hse06_10hf_magmom
 _atom_site_hse06_bader_spin_density
 _atom_site_hse06_ddec_charge
 _atom_site_hse06_ddec_spin_density
 _atom_site_hse06_ddec_sum_bond_order
 _atom_site_hse06_magmom
 _atom_site_pbe_bader_spin_density
 _atom_site_pbe_cm5_charge
 _atom_site_pbe_ddec_charge
 _atom_site_pbe_ddec_spin_density
 _atom_site_pbe_ddec_sum_bond_order
 _atom_site_pbe_magmom
Cd  Cd0  1  0.12110629  0.74505647  0.01425479  1  0  1.332103  0  1.580165  0  0  1.167136  0  2.030754  0  0  1.22426  0  1.968864  0  0  0.809586  1.12537  0  2.073873  0
Cd  Cd1  1  0.62110647  0.75494405  0.48574529  1  0  1.332118  0  1.580166  0  0  1.167115  0  2.030752  0  0  1.224241  0  1.968861  0  0  0.809567  1.12535  0  2.073868  0
Cd  Cd2  1  0.87889093  0.25494497  0.98574574  1  0  1.332083  0  1.580229  0  0  1.167091  0  2.030817  0  0  1.224217  0  1.968926  0  0  0.80954  1.125321  0  2.073936  0
Cd  Cd3  1  0.37889566  0.24505737  0.51425429  1  0  1.332124  0  1.580185  0  0  1.16712  0  2.030798  0  0  1.224245  0  1.968907  0  0  0.809555  1.125355  0  2.073942  0
H  H4  1  0.38087191  0.95590695  0.12223891  1  0  0.110072  0  0.953605  0  0  0.11944  0  1.015868  0  0  0.122746  0  1.013902  0  0  0.106578  0.11708  0  1.017261  0
H  H5  1  0.88087850  0.54409248  0.37776084  1  0  0.110147  0  0.953564  0  0  0.119427  0  1.015924  0  0  0.122731  0  1.013959  0  0  0.106569  0.117063  0  1.017313  0
H  H6  1  0.61912040  0.04409310  0.87776095  1  0  0.110133  0  0.95357  0  0  0.119418  0  1.015916  0  0  0.122722  0  1.013951  0  0  0.106564  0.117055  0  1.017302  0
H  H7  1  0.11913346  0.45590895  0.62223969  1  0  0.110114  0  0.953556  0  0  0.119428  0  1.015876  0  0  0.122732  0  1.01391  0  0  0.106574  0.117064  0  1.01727  0
H  H8  1  0.63179532  0.06075790  0.19198770  1  0  0.084711  0  0.969834  0  0  0.097843  0  1.032374  0  0  0.100486  0  1.031404  0  0  0.097911  0.096002  0  1.033082  0
H  H9  1  0.13179888  0.43924089  0.30801205  1  0  0.084678  0  0.969883  0  0  0.097817  0  1.032416  0  0  0.100459  0  1.031449  0  0  0.097897  0.095972  0  1.033121  0
H  H10  1  0.36820682  0.93923939  0.80801242  1  0  0.084734  0  0.969829  0  0  0.097881  0  1.032347  0  0  0.100524  0  1.031378  0  0  0.09792  0.096037  0  1.033054  0
H  H11  1  0.86821063  0.56075640  0.69198776  1  0  0.084694  0  0.969855  0  0  0.097816  0  1.032407  0  0  0.100459  0  1.031439  0  0  0.097899  0.09597  0  1.033114  0
H  H12  1  0.89706213  0.30382278  0.23915475  1  0  0.083192  0  0.978978  0  0  0.093701  0  1.045523  0  0  0.096316  0  1.044693  0  0  0.095877  0.091834  0  1.046211  0
H  H13  1  0.39706720  0.19618045  0.26084511  1  0  0.08322  0  0.978973  0  0  0.093733  0  1.045507  0  0  0.096349  0  1.044674  0  0  0.095864  0.091864  0  1.046198  0
H  H14  1  0.10293264  0.69617727  0.76084543  1  0  0.083145  0  0.979048  0  0  0.093693  0  1.045544  0  0  0.096308  0  1.044713  0  0  0.09587  0.091824  0  1.046233  0
H  H15  1  0.60293002  0.80382237  0.73915576  1  0  0.08325  0  0.978939  0  0  0.093737  0  1.04551  0  0  0.09635  0  1.04468  0  0  0.095872  0.091868  0  1.046199  0
H  H16  1  0.13341092  0.61962841  0.25155341  1  0  0.077076  0  0.981019  0  0  0.087887  0  1.046741  0  0  0.09016  0  1.046126  0  0  0.094322  0.086243  0  1.047222  0
H  H17  1  0.63342333  0.88037763  0.24844647  1  0  0.07709  0  0.981055  0  0  0.087914  0  1.046762  0  0  0.090186  0  1.046144  0  0  0.09435  0.086276  0  1.047247  0
H  H18  1  0.86657402  0.38037440  0.74844714  1  0  0.077092  0  0.981042  0  0  0.087916  0  1.046747  0  0  0.090187  0  1.04613  0  0  0.094359  0.086276  0  1.04723  0
H  H19  1  0.36658372  0.11963067  0.75155263  1  0  0.077073  0  0.981046  0  0  0.087865  0  1.046788  0  0  0.090132  0  1.046175  0  0  0.094326  0.086224  0  1.047271  0
H  H20  1  0.12315821  0.82839870  0.19402340  1  0  0.082788  0  0.958485  0  0  0.095264  0  1.019178  0  0  0.09756  0  1.019103  0  0  0.098105  0.093625  0  1.019296  0
H  H21  1  0.62316264  0.67160457  0.30597610  1  0  0.082778  0  0.958431  0  0  0.095235  0  1.019142  0  0  0.097544  0  1.019051  0  0  0.098093  0.093594  0  1.019254  0
H  H22  1  0.87683901  0.17160135  0.80597678  1  0  0.082795  0  0.958471  0  0  0.095281  0  1.01915  0  0  0.097587  0  1.019064  0  0  0.098116  0.093641  0  1.019268  0
H  H23  1  0.37684195  0.32839821  0.69402224  1  0  0.082763  0  0.958422  0  0  0.095233  0  1.019127  0  0  0.097532  0  1.019049  0  0  0.098087  0.093593  0  1.019243  0
H  H24  1  0.88235766  0.72604934  0.12463461  1  0  0.104255  0  0.955174  0  0  0.115749  0  1.015277  0  0  0.118824  0  1.013379  0  0  0.104988  0.113469  0  1.016771  0
H  H25  1  0.38236079  0.77394870  0.37536448  1  0  0.104219  0  0.955216  0  0  0.11569  0  1.015347  0  0  0.118788  0  1.013422  0  0  0.104951  0.113428  0  1.016811  0
H  H26  1  0.11764447  0.27394932  0.87536460  1  0  0.104253  0  0.955178  0  0  0.115748  0  1.01529  0  0  0.118822  0  1.01339  0  0  0.104975  0.113463  0  1.016782  0
H  H27  1  0.61764626  0.22604581  0.62463400  1  0  0.104249  0  0.955197  0  0  0.115743  0  1.015309  0  0  0.11883  0  1.013396  0  0  0.104963  0.113477  0  1.016779  0
C  C28  1  0.61026765  0.38727690  0.10112938  1  0  -0.069682  0  3.626143  0  0  -0.064528  0  3.862848  0  0  -0.066068  0  3.88059  0  0  0.004966  -0.063542  0  3.851075  0
C  C29  1  0.11027273  0.11272463  0.39887106  1  0  -0.069728  0  3.62621  0  0  -0.064601  0  3.862933  0  0  -0.066139  0  3.880679  0  0  0.004924  -0.06362  0  3.851167  0
C  C30  1  0.38973202  0.61272315  0.89887111  1  0  -0.06967  0  3.626131  0  0  -0.064527  0  3.862837  0  0  -0.066066  0  3.880582  0  0  0.004953  -0.063543  0  3.851067  0
C  C31  1  0.88972695  0.88727404  0.60112909  1  0  -0.069735  0  3.626173  0  0  -0.064604  0  3.8629  0  0  -0.066146  0  3.880647  0  0  0.00492  -0.063621  0  3.851128  0
C  C32  1  0.47707398  0.21039689  0.09505423  1  0  -0.076116  0  3.7194  0  0  -0.062971  0  3.958188  0  0  -0.071178  0  3.97994  0  0  -0.016138  -0.057592  0  3.943686  0
C  C33  1  0.97707903  0.28960229  0.40494554  1  0  -0.076108  0  3.719453  0  0  -0.062969  0  3.958187  0  0  -0.071181  0  3.979935  0  0  -0.016122  -0.057602  0  3.9437  0
C  C34  1  0.52292324  0.78960316  0.90494626  1  0  -0.076181  0  3.719476  0  0  -0.063035  0  3.958268  0  0  -0.071243  0  3.980022  0  0  -0.016161  -0.057664  0  3.943774  0
C  C35  1  0.02292310  0.71039776  0.59505432  1  0  -0.076063  0  3.719426  0  0  -0.062913  0  3.958172  0  0  -0.071124  0  3.979923  0  0  -0.016108  -0.057544  0  3.943684  0
C  C36  1  0.48414011  0.09369669  0.12844602  1  0  -0.049384  0  3.725579  0  0  -0.076678  0  3.981853  0  0  -0.075765  0  4.001135  0  0  -0.083141  -0.077124  0  3.968731  0
C  C37  1  0.98414550  0.40630250  0.37155407  1  0  -0.049454  0  3.725643  0  0  -0.076682  0  3.981913  0  0  -0.075767  0  4.001194  0  0  -0.083147  -0.077126  0  3.96878  0
C  C38  1  0.51585711  0.90630198  0.87155445  1  0  -0.04939  0  3.725581  0  0  -0.076611  0  3.981853  0  0  -0.075696  0  4.001137  0  0  -0.083118  -0.077053  0  3.968718  0
C  C39  1  0.01586155  0.59369755  0.62844611  1  0  -0.049392  0  3.725543  0  0  -0.076642  0  3.981811  0  0  -0.075727  0  4.001093  0  0  -0.083117  -0.077089  0  3.968684  0
C  C40  1  0.62217142  0.15245253  0.16681865  1  0  -0.120624  0  3.755936  0  0  -0.14132  0  4.008558  0  0  -0.145062  0  4.029403  0  0  -0.091266  -0.138905  0  3.994368  0
C  C41  1  0.12217718  0.34754762  0.33318082  1  0  -0.12062  0  3.756008  0  0  -0.141317  0  4.008598  0  0  -0.14506  0  4.029443  0  0  -0.091238  -0.138898  0  3.994391  0
C  C42  1  0.37782825  0.84754475  0.83318116  1  0  -0.120641  0  3.755967  0  0  -0.141335  0  4.008551  0  0  -0.145079  0  4.029398  0  0  -0.091237  -0.138919  0  3.99435  0
C  C43  1  0.87782741  0.65245243  0.66681936  1  0  -0.120591  0  3.755906  0  0  -0.141267  0  4.008516  0  0  -0.14501  0  4.029364  0  0  -0.091246  -0.138849  0  3.994309  0
C  C44  1  0.75506290  0.33255389  0.17447528  1  0  0.075962  0  3.789932  0  0  0.092481  0  4.011582  0  0  0.093831  0  4.036506  0  0  -0.00159  0.091696  0  3.994653  0
C  C45  1  0.25507046  0.16744643  0.32552514  1  0  0.076017  0  3.789857  0  0  0.092522  0  4.011522  0  0  0.093871  0  4.036446  0  0  -0.001615  0.091738  0  3.994585  0
C  C46  1  0.24493678  0.66744479  0.82552519  1  0  0.075956  0  3.789881  0  0  0.092462  0  4.011555  0  0  0.09381  0  4.036481  0  0  -0.00162  0.091677  0  3.994621  0
C  C47  1  0.74492675  0.83255225  0.67447564  1  0  0.075897  0  3.789924  0  0  0.092385  0  4.01162  0  0  0.093733  0  4.036546  0  0  -0.001659  0.091604  0  3.994674  0
C  C48  1  0.89441854  0.39656465  0.21415636  1  0  -0.132001  0  3.756346  0  0  -0.149185  0  4.002236  0  0  -0.153443  0  4.023901  0  0  -0.094586  -0.146325  0  3.987457  0
C  C49  1  0.39442580  0.10343720  0.28584379  1  0  -0.132022  0  3.756457  0  0  -0.1492  0  4.002331  0  0  -0.153457  0  4.023991  0  0  -0.094563  -0.146346  0  3.987563  0
C  C50  1  0.10558113  0.60343402  0.78584379  1  0  -0.131915  0  3.756343  0  0  -0.149121  0  4.002217  0  0  -0.153378  0  4.02388  0  0  -0.094555  -0.146265  0  3.987441  0
C  C51  1  0.60557142  0.89656284  0.71415608  1  0  -0.132042  0  3.756382  0  0  -0.149194  0  4.002255  0  0  -0.15345  0  4.023915  0  0  -0.094546  -0.146336  0  3.987475  0
C  C52  1  0.02441878  0.57158217  0.22105316  1  0  -0.062281  0  3.787021  0  0  -0.077845  0  4.037046  0  0  -0.078289  0  4.058779  0  0  -0.093542  -0.077287  0  4.022103  0
C  C53  1  0.52442651  0.92842238  0.27894669  1  0  -0.062367  0  3.787261  0  0  -0.07795  0  4.037282  0  0  -0.07839  0  4.059015  0  0  -0.093585  -0.077399  0  4.022351  0
C  C54  1  0.97557844  0.42841788  0.77894671  1  0  -0.062324  0  3.7871  0  0  -0.077907  0  4.037143  0  0  -0.078347  0  4.058874  0  0  -0.093568  -0.077348  0  4.022203  0
C  C55  1  0.47557563  0.07158043  0.72105323  1  0  -0.062263  0  3.787006  0  0  -0.077816  0  4.037025  0  0  -0.078251  0  4.05875  0  0  -0.09353  -0.077264  0  4.02209  0
C  C56  1  0.01816592  0.69047349  0.18841128  1  0  -0.07826  0  3.776499  0  0  -0.090325  0  4.028696  0  0  -0.093858  0  4.050941  0  0  -0.09373  -0.087946  0  4.013486  0
C  C57  1  0.51817084  0.80952966  0.31158854  1  0  -0.078176  0  3.776467  0  0  -0.090217  0  4.028662  0  0  -0.093761  0  4.050912  0  0  -0.093715  -0.087834  0  4.013447  0
C  C58  1  0.98183376  0.30952517  0.81158824  1  0  -0.078222  0  3.776496  0  0  -0.090287  0  4.028691  0  0  -0.093828  0  4.050936  0  0  -0.093736  -0.087907  0  4.013477  0
C  C59  1  0.48183129  0.19047174  0.68841010  1  0  -0.078202  0  3.776431  0  0  -0.09025  0  4.028637  0  0  -0.093786  0  4.050885  0  0  -0.093726  -0.087871  0  4.013428  0
C  C60  1  0.88273590  0.63305322  0.14948967  1  0  -0.084221  0  3.702637  0  0  -0.110844  0  3.958115  0  0  -0.111164  0  3.977931  0  0  -0.083276  -0.110514  0  3.944747  0
C  C61  1  0.38274176  0.86694759  0.35051042  1  0  -0.084124  0  3.702569  0  0  -0.110733  0  3.958038  0  0  -0.111073  0  3.977851  0  0  -0.083169  -0.110421  0  3.94465  0
C  C62  1  0.11726377  0.36694545  0.85051048  1  0  -0.084216  0  3.702595  0  0  -0.110858  0  3.958081  0  0  -0.111171  0  3.977889  0  0  -0.08325  -0.110529  0  3.944706  0
C  C63  1  0.61725546  0.13304970  0.64948969  1  0  -0.084222  0  3.702679  0  0  -0.110874  0  3.958175  0  0  -0.111203  0  3.977981  0  0  -0.08322  -0.110558  0  3.944789  0
C  C64  1  0.74854714  0.45292745  0.14126520  1  0  0.039802  0  3.723771  0  0  0.050588  0  3.949354  0  0  0.048339  0  3.974245  0  0  0.002127  0.051957  0  3.932665  0
C  C65  1  0.24855436  0.04707286  0.35873522  1  0  0.039724  0  3.723718  0  0  0.050531  0  3.949297  0  0  0.04828  0  3.974193  0  0  0.002102  0.051901  0  3.932605  0
C  C66  1  0.25145499  0.54707122  0.85873495  1  0  0.039758  0  3.723683  0  0  0.050556  0  3.949277  0  0  0.048305  0  3.974172  0  0  0.002121  0.051927  0  3.932581  0
C  C67  1  0.75144532  0.95292581  0.64126493  1  0  0.039811  0  3.723697  0  0  0.050627  0  3.949283  0  0  0.048378  0  3.974175  0  0  0.002121  0.051995  0  3.932586  0
C  C68  1  0.60846688  0.52024453  0.06755545  1  0  0.707739  0  3.851345  0  0  0.652094  0  4.147657  0  0  0.688989  0  4.136338  0  0  0.224727  0.626641  0  4.154714  0
C  C69  1  0.10846838  0.97975460  0.43244460  1  0  0.7078  0  3.851254  0  0  0.652184  0  4.147518  0  0  0.689067  0  4.136216  0  0  0.224747  0.626738  0  4.154571  0
C  C70  1  0.39153034  0.47975552  0.93244473  1  0  0.707764  0  3.851226  0  0  0.652142  0  4.147514  0  0  0.689028  0  4.136207  0  0  0.22474  0.62669  0  4.154572  0
C  C71  1  0.89153129  0.02024545  0.56755558  1  0  0.707837  0  3.851127  0  0  0.652165  0  4.147433  0  0  0.689053  0  4.136127  0  0  0.224801  0.626722  0  4.154484  0
C  C72  1  0.31241625  0.13574521  0.05513238  1  0  0.679996  0  3.861081  0  0  0.624834  0  4.156263  0  0  0.661864  0  4.146906  0  0  0.213352  0.599343  0  4.162015  0
C  C73  1  0.81242410  0.36425791  0.44486684  1  0  0.680027  0  3.860885  0  0  0.624946  0  4.155939  0  0  0.661989  0  4.146562  0  0  0.213414  0.599457  0  4.161698  0
C  C74  1  0.68757360  0.86425622  0.94486783  1  0  0.680041  0  3.860788  0  0  0.624876  0  4.155974  0  0  0.661902  0  4.146619  0  0  0.213432  0.599383  0  4.16174  0
C  C75  1  0.18757804  0.63574351  0.55513273  1  0  0.679917  0  3.860989  0  0  0.624802  0  4.156101  0  0  0.661843  0  4.14673  0  0  0.213356  0.599309  0  4.161866  0
O  O76  1  0.82588083  0.49871492  0.03807814  1  0  -0.71091  0  2.139905  0  0  -0.633211  0  2.416974  0  0  -0.667843  0  2.403755  0  0  -0.337885  -0.608381  0  2.425205  0
O  O77  1  0.32588319  0.00128686  0.46192231  1  0  -0.710974  0  2.139856  0  0  -0.633268  0  2.416906  0  0  -0.667898  0  2.403692  0  0  -0.337907  -0.608447  0  2.425147  0
O  O78  1  0.17412130  0.50128789  0.96192210  1  0  -0.710949  0  2.139839  0  0  -0.633218  0  2.416825  0  0  -0.667846  0  2.403611  0  0  -0.337898  -0.608393  0  2.42506  0
O  O79  1  0.67412386  0.99871457  0.53807790  1  0  -0.711126  0  2.139968  0  0  -0.633261  0  2.41688  0  0  -0.66789  0  2.403663  0  0  -0.337921  -0.608442  0  2.425123  0
O  O80  1  0.40953702  0.65282898  0.07184464  1  0  -0.617015  0  2.012508  0  0  -0.55495  0  2.264935  0  0  -0.585081  0  2.25486  0  0  -0.302062  -0.533421  0  2.271109  0
O  O81  1  0.90953986  0.84717186  0.42815545  1  0  -0.617025  0  2.012505  0  0  -0.55495  0  2.264891  0  0  -0.585077  0  2.254826  0  0  -0.302044  -0.533418  0  2.271059  0
O  O82  1  0.59046512  0.34717107  0.92815585  1  0  -0.617042  0  2.012478  0  0  -0.554987  0  2.264882  0  0  -0.585116  0  2.254809  0  0  -0.30208  -0.533453  0  2.271049  0
O  O83  1  0.09046965  0.15282819  0.57184473  1  0  -0.617003  0  2.012372  0  0  -0.554974  0  2.26485  0  0  -0.585104  0  2.25478  0  0  -0.302101  -0.533442  0  2.271023  0
O  O84  1  0.37575013  0.20396340  0.01983368  1  0  -0.731174  0  2.140189  0  0  -0.655027  0  2.425431  0  0  -0.686544  0  2.408067  0  0  -0.338091  -0.632548  0  2.436565  0
O  O85  1  0.87576518  0.29604394  0.48016626  1  0  -0.731146  0  2.140002  0  0  -0.655099  0  2.425361  0  0  -0.686621  0  2.407989  0  0  -0.338148  -0.632622  0  2.436507  0
O  O86  1  0.62423726  0.79604493  0.98016699  1  0  -0.731124  0  2.140099  0  0  -0.655041  0  2.425452  0  0  -0.686556  0  2.408085  0  0  -0.338152  -0.632564  0  2.436595  0
O  O87  1  0.12423940  0.70395473  0.51983389  1  0  -0.731098  0  2.140073  0  0  -0.655037  0  2.425422  0  0  -0.686558  0  2.408055  0  0  -0.33813  -0.632557  0  2.43656  0
O  O88  1  0.10173415  0.00861679  0.05742385  1  0  -0.646011  0  2.037266  0  0  -0.580091  0  2.299792  0  0  -0.60904  0  2.286731  0  0  -0.317181  -0.559619  0  2.308142  0
O  O89  1  0.60173753  0.49138196  0.44257590  1  0  -0.646035  0  2.037218  0  0  -0.580116  0  2.299684  0  0  -0.609069  0  2.286617  0  0  -0.317208  -0.559641  0  2.308033  0
O  O90  1  0.89826307  0.99138326  0.94257665  1  0  -0.646101  0  2.037043  0  0  -0.580168  0  2.299572  0  0  -0.609116  0  2.28651  0  0  -0.317254  -0.559693  0  2.307924  0
O  O91  1  0.39826952  0.50861670  0.55742393  1  0  -0.64603  0  2.037225  0  0  -0.580108  0  2.299722  0  0  -0.60906  0  2.286655  0  0  -0.317196  -0.55963  0  2.308076  0
