# generated using pymatgen
data_Ag3H4C7(SN)3
_symmetry_space_group_name_H-M   'P 1'
_cell_length_a   6.85809494
_cell_length_b   11.12383133
_cell_length_c   14.91643670
_cell_angle_alpha   89.99958629
_cell_angle_beta   94.58405468
_cell_angle_gamma   89.99975745
_symmetry_Int_Tables_number   1
_chemical_formula_structural   Ag3H4C7(SN)3
_chemical_formula_sum   'Ag12 H16 C28 S12 N12'
_cell_volume   1134.30934928
_cell_formula_units_Z   4
loop_
 _symmetry_equiv_pos_site_id
 _symmetry_equiv_pos_as_xyz
  1  'x, y, z'
loop_
 _atom_site_type_symbol
 _atom_site_label
 _atom_site_symmetry_multiplicity
 _atom_site_fract_x
 _atom_site_fract_y
 _atom_site_fract_z
 _atom_site_occupancy
 _atom_site_hle17_bader_spin_density
 _atom_site_hle17_ddec_charge
 _atom_site_hle17_ddec_spin_density
 _atom_site_hle17_ddec_sum_bond_order
 _atom_site_hle17_magmom
 _atom_site_hse06_10hf_bader_spin_density
 _atom_site_hse06_10hf_ddec_charge
 _atom_site_hse06_10hf_ddec_spin_density
 _atom_site_hse06_10hf_ddec_sum_bond_order
 _atom_site_hse06_10hf_magmom
 _atom_site_hse06_bader_spin_density
 _atom_site_hse06_ddec_charge
 _atom_site_hse06_ddec_spin_density
 _atom_site_hse06_ddec_sum_bond_order
 _atom_site_hse06_magmom
 _atom_site_pbe_bader_spin_density
 _atom_site_pbe_cm5_charge
 _atom_site_pbe_ddec_charge
 _atom_site_pbe_ddec_spin_density
 _atom_site_pbe_ddec_sum_bond_order
 _atom_site_pbe_magmom
Ag  Ag0  1  0.11274321  0.57629838  0.24259029  1  0  0.359095  0  1.873268  0  0  0.252307  0  2.378165  0  0  0.266226  0  2.339668  0  0  0.35347  0.242702  0  2.404169  0
Ag  Ag1  1  0.38727693  0.07628466  0.75741306  1  0  0.358988  0  1.873309  0  0  0.252163  0  2.378209  0  0  0.26611  0  2.339667  0  0  0.353439  0.242545  0  2.404246  0
Ag  Ag2  1  0.88722703  0.42370571  0.75740714  1  0  0.35907  0  1.873255  0  0  0.252275  0  2.378167  0  0  0.266193  0  2.33967  0  0  0.353504  0.242667  0  2.404196  0
Ag  Ag3  1  0.61274362  0.92371043  0.24259494  1  0  0.358982  0  1.873286  0  0  0.252139  0  2.378194  0  0  0.266065  0  2.339693  0  0  0.353435  0.242531  0  2.404207  0
Ag  Ag4  1  0.68729747  0.58906081  0.11610380  1  0  0.46259  0  1.801518  0  0  0.366746  0  2.300991  0  0  0.382384  0  2.25959  0  0  0.382523  0.355013  0  2.330235  0
Ag  Ag5  1  0.81270928  0.08905625  0.88389168  1  0  0.462643  0  1.801498  0  0  0.366805  0  2.300967  0  0  0.382445  0  2.259566  0  0  0.382571  0.355068  0  2.330222  0
Ag  Ag6  1  0.31270669  0.41093698  0.88389911  1  0  0.462595  0  1.801604  0  0  0.366753  0  2.301069  0  0  0.382386  0  2.259679  0  0  0.382519  0.355018  0  2.330331  0
Ag  Ag7  1  0.18730215  0.91094514  0.11611074  1  0  0.462654  0  1.80137  0  0  0.366799  0  2.300843  0  0  0.382443  0  2.259442  0  0  0.38254  0.355056  0  2.330107  0
Ag  Ag8  1  0.65304537  0.59587421  0.39306300  1  0  0.464608  0  1.829753  0  0  0.372617  0  2.327757  0  0  0.383763  0  2.290806  0  0  0.388129  0.364545  0  2.353105  0
Ag  Ag9  1  0.84693689  0.09588115  0.60693740  1  0  0.464592  0  1.829673  0  0  0.372593  0  2.327667  0  0  0.38374  0  2.290722  0  0  0.388126  0.36452  0  2.353015  0
Ag  Ag10  1  0.34691033  0.40411820  0.60693543  1  0  0.464631  0  1.829735  0  0  0.372645  0  2.327723  0  0  0.38379  0  2.290778  0  0  0.388122  0.364573  0  2.353075  0
Ag  Ag11  1  0.15307020  0.90411845  0.39306558  1  0  0.464594  0  1.829673  0  0  0.37259  0  2.327663  0  0  0.383739  0  2.290716  0  0  0.388121  0.364516  0  2.353008  0
H  H12  1  0.45517495  0.12814520  0.37681944  1  0  0.068049  0  0.960019  0  0  0.080127  0  1.023606  0  0  0.080986  0  1.023258  0  0  0.104549  0.079547  0  1.023724  0
H  H13  1  0.04481220  0.62814043  0.62316664  1  0  0.06805  0  0.959833  0  0  0.080129  0  1.023413  0  0  0.080988  0  1.023065  0  0  0.104467  0.079539  0  1.023548  0
H  H14  1  0.54482762  0.87185170  0.62318143  1  0  0.068089  0  0.960011  0  0  0.080148  0  1.023637  0  0  0.081004  0  1.023296  0  0  0.10456  0.079564  0  1.023754  0
H  H15  1  0.95518407  0.37185647  0.37682671  1  0  0.068097  0  0.959821  0  0  0.080173  0  1.023445  0  0  0.081028  0  1.023096  0  0  0.104508  0.07959  0  1.023559  0
H  H16  1  0.44065415  0.35125163  0.38438040  1  0  0.107978  0  0.955033  0  0  0.119164  0  1.018887  0  0  0.122148  0  1.017873  0  0  0.099312  0.117135  0  1.019657  0
H  H17  1  0.05933890  0.85125256  0.61561458  1  0  0.108052  0  0.955091  0  0  0.119227  0  1.018972  0  0  0.122218  0  1.01795  0  0  0.099339  0.117197  0  1.01974  0
H  H18  1  0.55934387  0.64874707  0.61561768  1  0  0.108122  0  0.955019  0  0  0.119268  0  1.018914  0  0  0.122256  0  1.017895  0  0  0.099354  0.117243  0  1.019675  0
H  H19  1  0.94066497  0.14874973  0.38438364  1  0  0.108049  0  0.955111  0  0  0.119185  0  1.019019  0  0  0.122171  0  1.018007  0  0  0.099345  0.117156  0  1.019784  0
H  H20  1  0.56158843  0.35775092  0.10415006  1  0  0.107208  0  0.985516  0  0  0.116826  0  1.051638  0  0  0.11967  0  1.050764  0  0  0.094898  0.114963  0  1.052149  0
H  H21  1  0.93841967  0.85774305  0.89584835  1  0  0.107253  0  0.985359  0  0  0.116839  0  1.051504  0  0  0.119683  0  1.050635  0  0  0.094905  0.114979  0  1.052009  0
H  H22  1  0.43842254  0.64224328  0.89584497  1  0  0.107221  0  0.985545  0  0  0.116807  0  1.051646  0  0  0.119654  0  1.050788  0  0  0.09489  0.114974  0  1.052122  0
H  H23  1  0.06157831  0.14226014  0.10414906  1  0  0.107257  0  0.98538  0  0  0.11686  0  1.051512  0  0  0.119707  0  1.050639  0  0  0.094896  0.114991  0  1.05203  0
H  H24  1  0.58164312  0.13601866  0.10946070  1  0  0.071419  0  0.955961  0  0  0.083387  0  1.018606  0  0  0.084122  0  1.018625  0  0  0.105578  0.082962  0  1.018429  0
H  H25  1  0.91835795  0.63600939  0.89053417  1  0  0.071391  0  0.955986  0  0  0.083347  0  1.01865  0  0  0.084082  0  1.018666  0  0  0.105572  0.082919  0  1.018473  0
H  H26  1  0.41836973  0.86397104  0.89054109  1  0  0.071471  0  0.955834  0  0  0.083473  0  1.018427  0  0  0.084211  0  1.018445  0  0  0.105616  0.083047  0  1.018247  0
H  H27  1  0.08163112  0.36399559  0.10946101  1  0  0.071395  0  0.955897  0  0  0.083337  0  1.018593  0  0  0.084073  0  1.018613  0  0  0.105571  0.082909  0  1.018415  0
C  C28  1  0.47926628  0.18221706  0.31773865  1  0  0.125981  0  3.723153  0  0  0.099931  0  3.967453  0  0  0.107155  0  3.987223  0  0  0.035126  0.095336  0  3.953498  0
C  C29  1  0.02072894  0.68222105  0.68225598  1  0  0.125983  0  3.722815  0  0  0.099992  0  3.967101  0  0  0.107214  0  3.986879  0  0  0.035188  0.095406  0  3.953142  0
C  C30  1  0.52074047  0.81777804  0.68225896  1  0  0.126054  0  3.723131  0  0  0.100011  0  3.967384  0  0  0.107236  0  3.987149  0  0  0.035183  0.095423  0  3.953427  0
C  C31  1  0.97926929  0.31777944  0.31774546  1  0  0.125856  0  3.722952  0  0  0.09982  0  3.967254  0  0  0.107045  0  3.987027  0  0  0.035104  0.09523  0  3.953291  0
C  C32  1  0.47026385  0.30684221  0.32172414  1  0  -0.171477  0  3.711095  0  0  -0.184347  0  3.949579  0  0  -0.193631  0  3.972753  0  0  -0.095579  -0.178361  0  3.93367  0
C  C33  1  0.02973485  0.80684815  0.67827083  1  0  -0.171521  0  3.711143  0  0  -0.184405  0  3.949557  0  0  -0.193689  0  3.972732  0  0  -0.09562  -0.178418  0  3.933645  0
C  C34  1  0.52973395  0.69315199  0.67827058  1  0  -0.171739  0  3.711327  0  0  -0.184554  0  3.949834  0  0  -0.193838  0  3.973004  0  0  -0.095641  -0.178567  0  3.933933  0
C  C35  1  0.97027065  0.19315953  0.32173011  1  0  -0.171445  0  3.711087  0  0  -0.18432  0  3.949598  0  0  -0.193595  0  3.972749  0  0  -0.095623  -0.178336  0  3.933689  0
C  C36  1  0.50277244  0.37433705  0.24470257  1  0  0.163452  0  3.766006  0  0  0.176057  0  4.006493  0  0  0.184698  0  4.028458  0  0  0.000719  0.170099  0  3.991734  0
C  C37  1  0.99723003  0.87434962  0.75529802  1  0  0.163247  0  3.766769  0  0  0.175923  0  4.007127  0  0  0.184567  0  4.02909  0  0  0.000689  0.169963  0  3.992365  0
C  C38  1  0.49722830  0.62566165  0.75529222  1  0  0.16361  0  3.765773  0  0  0.176102  0  4.006376  0  0  0.184745  0  4.02834  0  0  0.000751  0.170139  0  3.991628  0
C  C39  1  0.00277539  0.12565357  0.24470158  1  0  0.163252  0  3.766679  0  0  0.175944  0  4.00702  0  0  0.18459  0  4.028982  0  0  0.000699  0.169983  0  3.992263  0
C  C40  1  0.53807567  0.31069993  0.16641280  1  0  -0.170358  0  3.71038  0  0  -0.182008  0  3.94771  0  0  -0.191336  0  3.970508  0  0  -0.097803  -0.17572  0  3.931999  0
C  C41  1  0.96193901  0.81070235  0.83357753  1  0  -0.170333  0  3.710445  0  0  -0.18201  0  3.947854  0  0  -0.191342  0  3.970652  0  0  -0.09785  -0.175719  0  3.932129  0
C  C42  1  0.46192531  0.68929157  0.83358602  1  0  -0.170409  0  3.7104  0  0  -0.182001  0  3.947855  0  0  -0.191343  0  3.970667  0  0  -0.097792  -0.175739  0  3.932115  0
C  C43  1  0.03806060  0.18929634  0.16642260  1  0  -0.170348  0  3.71047  0  0  -0.182075  0  3.947891  0  0  -0.191409  0  3.970692  0  0  -0.097853  -0.175786  0  3.932191  0
C  C44  1  0.54794775  0.18632003  0.16902578  1  0  0.128595  0  3.723322  0  0  0.10083  0  3.969525  0  0  0.108296  0  3.988934  0  0  0.033248  0.095898  0  3.955836  0
C  C45  1  0.95205510  0.68631275  0.83097071  1  0  0.128609  0  3.723239  0  0  0.100846  0  3.969477  0  0  0.108322  0  3.988872  0  0  0.033248  0.095911  0  3.955784  0
C  C46  1  0.45206811  0.81366878  0.83097741  1  0  0.12861  0  3.723174  0  0  0.100836  0  3.969333  0  0  0.108299  0  3.988741  0  0  0.033265  0.09591  0  3.955638  0
C  C47  1  0.04794313  0.31368953  0.16903072  1  0  0.128639  0  3.72301  0  0  0.100893  0  3.969219  0  0  0.108361  0  3.988627  0  0  0.033288  0.095964  0  3.955524  0
C  C48  1  0.16698958  0.59897105  0.03945008  1  0  0.286028  0  3.921616  0  0  0.270965  0  4.214482  0  0  0.288538  0  4.230445  0  0  0.147771  0.258358  0  4.204289  0
C  C49  1  0.33301296  0.09897496  0.96055058  1  0  0.286167  0  3.921298  0  0  0.271103  0  4.214178  0  0  0.288679  0  4.230136  0  0  0.147824  0.258495  0  4.204  0
C  C50  1  0.83300702  0.40102674  0.96054864  1  0  0.286012  0  3.921659  0  0  0.270953  0  4.21452  0  0  0.288529  0  4.230477  0  0  0.147735  0.258342  0  4.204329  0
C  C51  1  0.66698966  0.90103272  0.03945096  1  0  0.286065  0  3.921645  0  0  0.271002  0  4.21452  0  0  0.28858  0  4.230478  0  0  0.147779  0.258386  0  4.204341  0
C  C52  1  0.16348213  0.59300288  0.45082899  1  0  0.284668  0  3.928381  0  0  0.271104  0  4.221391  0  0  0.28877  0  4.235725  0  0  0.146351  0.258589  0  4.212087  0
C  C53  1  0.33651909  0.09300210  0.54917422  1  0  0.284568  0  3.928388  0  0  0.271002  0  4.22139  0  0  0.288666  0  4.235731  0  0  0.146318  0.258485  0  4.212078  0
C  C54  1  0.83652053  0.40700211  0.54917323  1  0  0.284611  0  3.928413  0  0  0.271049  0  4.221414  0  0  0.288714  0  4.235753  0  0  0.146348  0.258533  0  4.212109  0
C  C55  1  0.66348967  0.90700288  0.45083216  1  0  0.28466  0  3.928434  0  0  0.271094  0  4.221444  0  0  0.288755  0  4.235779  0  0  0.146354  0.258578  0  4.212144  0
S  S56  1  0.49756834  0.53274471  0.24487421  1  0  -0.422354  0  2.715805  0  0  -0.356384  0  3.225035  0  0  -0.374182  0  3.202868  0  0  -0.233521  -0.343167  0  3.23939  0
S  S57  1  0.00243659  0.03272716  0.75512262  1  0  -0.422199  0  2.716378  0  0  -0.356217  0  3.225457  0  0  -0.374044  0  3.203363  0  0  -0.233459  -0.342992  0  3.239791  0
S  S58  1  0.50241631  0.46724589  0.75512020  1  0  -0.422431  0  2.715574  0  0  -0.356424  0  3.224831  0  0  -0.374228  0  3.202688  0  0  -0.233562  -0.343193  0  3.23917  0
S  S59  1  0.99756598  0.96727063  0.24487825  1  0  -0.422197  0  2.716172  0  0  -0.35619  0  3.225218  0  0  -0.374015  0  3.203122  0  0  -0.233446  -0.342957  0  3.239547  0
S  S60  1  0.04261185  0.69312091  0.09823251  1  0  -0.307599  0  2.764753  0  0  -0.252129  0  3.232619  0  0  -0.265288  0  3.210243  0  0  -0.167932  -0.242452  0  3.247982  0
S  S61  1  0.45738480  0.19311904  0.90176101  1  0  -0.307612  0  2.764841  0  0  -0.25215  0  3.232742  0  0  -0.265309  0  3.21036  0  0  -0.16796  -0.242474  0  3.248121  0
S  S62  1  0.95738182  0.30688317  0.90176614  1  0  -0.307566  0  2.76487  0  0  -0.252103  0  3.232746  0  0  -0.265251  0  3.210351  0  0  -0.16793  -0.242423  0  3.248114  0
S  S63  1  0.54262186  0.80688685  0.09823526  1  0  -0.307501  0  2.764847  0  0  -0.252042  0  3.232747  0  0  -0.265192  0  3.210348  0  0  -0.167884  -0.242371  0  3.248136  0
S  S64  1  0.02939067  0.68407257  0.38419578  1  0  -0.310847  0  2.771256  0  0  -0.259567  0  3.253221  0  0  -0.270376  0  3.227498  0  0  -0.167709  -0.251667  0  3.270257  0
S  S65  1  0.47060356  0.18406661  0.61580624  1  0  -0.310732  0  2.771374  0  0  -0.259426  0  3.253306  0  0  -0.270235  0  3.227585  0  0  -0.167685  -0.251519  0  3.270339  0
S  S66  1  0.97060016  0.31593242  0.61580414  1  0  -0.310741  0  2.771441  0  0  -0.259456  0  3.253424  0  0  -0.270264  0  3.227704  0  0  -0.167682  -0.25155  0  3.270463  0
S  S67  1  0.52939935  0.81593299  0.38420001  1  0  -0.310783  0  2.771048  0  0  -0.259452  0  3.252938  0  0  -0.270262  0  3.22722  0  0  -0.167683  -0.251542  0  3.269969  0
N  N68  1  0.51971874  0.12143946  0.24322237  1  0  -0.318217  0  3.302666  0  0  -0.244257  0  3.588407  0  0  -0.26067  0  3.603396  0  0  -0.353187  -0.232449  0  3.577716  0
N  N69  1  0.98027954  0.62142688  0.75677552  1  0  -0.318302  0  3.30228  0  0  -0.244426  0  3.588129  0  0  -0.260832  0  3.603094  0  0  -0.353233  -0.232623  0  3.577448  0
N  N70  1  0.48028810  0.87855474  0.75677658  1  0  -0.318229  0  3.302353  0  0  -0.244297  0  3.588126  0  0  -0.260709  0  3.603111  0  0  -0.353246  -0.232493  0  3.577435  0
N  N71  1  0.01971293  0.37857001  0.24322713  1  0  -0.318268  0  3.302305  0  0  -0.244366  0  3.588146  0  0  -0.260775  0  3.60313  0  0  -0.353216  -0.232556  0  3.577453  0
N  N72  1  0.25468611  0.53069151  0.99738979  1  0  -0.462938  0  2.941286  0  0  -0.41413  0  3.248382  0  0  -0.429458  0  3.252074  0  0  -0.384241  -0.403754  0  3.246553  0
N  N73  1  0.24531665  0.03069994  0.00261902  1  0  -0.463111  0  2.94107  0  0  -0.414301  0  3.248161  0  0  -0.429636  0  3.251865  0  0  -0.384272  -0.403908  0  3.246304  0
N  N74  1  0.74530460  0.46930719  0.00260812  1  0  -0.46296  0  2.941145  0  0  -0.414169  0  3.24826  0  0  -0.429497  0  3.251943  0  0  -0.384237  -0.403793  0  3.246432  0
N  N75  1  0.75468785  0.96931853  0.99738927  1  0  -0.463076  0  2.941274  0  0  -0.414283  0  3.248409  0  0  -0.429612  0  3.252093  0  0  -0.384329  -0.403895  0  3.246563  0
N  N76  1  0.25744348  0.52540507  0.49739273  1  0  -0.465908  0  2.983216  0  0  -0.4172  0  3.297827  0  0  -0.431782  0  3.300659  0  0  -0.39168  -0.407545  0  3.296525  0
N  N77  1  0.24255423  0.02540369  0.50260581  1  0  -0.465861  0  2.983001  0  0  -0.417145  0  3.297607  0  0  -0.431726  0  3.300444  0  0  -0.391655  -0.407496  0  3.296319  0
N  N78  1  0.74256491  0.47460441  0.50260761  1  0  -0.46589  0  2.983088  0  0  -0.417187  0  3.297714  0  0  -0.43177  0  3.300547  0  0  -0.391675  -0.407531  0  3.296414  0
N  N79  1  0.75743501  0.97459860  0.49739207  1  0  -0.465859  0  2.983389  0  0  -0.417161  0  3.298023  0  0  -0.431745  0  3.300863  0  0  -0.391665  -0.407499  0  3.296711  0
