# generated using pymatgen
data_ZnH16C24(NO2)2
_symmetry_space_group_name_H-M   'P 1'
_cell_length_a   11.49790648
_cell_length_b   12.26126881
_cell_length_c   17.01473693
_cell_angle_alpha   90.00014536
_cell_angle_beta   90.00008837
_cell_angle_gamma   93.66115257
_symmetry_Int_Tables_number   1
_chemical_formula_structural   ZnH16C24(NO2)2
_chemical_formula_sum   'Zn4 H64 C96 N8 O16'
_cell_volume   2393.82382850
_cell_formula_units_Z   4
loop_
 _symmetry_equiv_pos_site_id
 _symmetry_equiv_pos_as_xyz
  1  'x, y, z'
loop_
 _atom_site_type_symbol
 _atom_site_label
 _atom_site_symmetry_multiplicity
 _atom_site_fract_x
 _atom_site_fract_y
 _atom_site_fract_z
 _atom_site_occupancy
 _atom_site_pbe_bader_charge
 _atom_site_pbe_bader_spin_density
 _atom_site_pbe_cm5_charge
 _atom_site_pbe_ddec_charge
 _atom_site_pbe_ddec_spin_density
 _atom_site_pbe_ddec_sum_bond_order
 _atom_site_pbe_magmom
Zn  Zn0  1  0.24835300  0.24881965  0.03005724  1  1.261326  0  0.671337  0.737373  0  2.344935  0
Zn  Zn1  1  0.25164935  0.75117878  0.53005779  1  1.261294  0  0.67133  0.737359  0  2.344999  0
Zn  Zn2  1  0.75164669  0.75118137  0.96994261  1  1.26137  0  0.671339  0.73739  0  2.344909  0
Zn  Zn3  1  0.74835280  0.24881980  0.46994323  1  1.261297  0  0.671348  0.737399  0  2.344943  0
H  H4  1  0.98862295  0.44881890  0.89438384  1  0.070358  0  0.10205  0.102575  0  1.042379  0
H  H5  1  0.51137906  0.55118364  0.39438418  1  0.070353  0  0.102053  0.102565  0  1.042397  0
H  H6  1  0.01137853  0.55118294  0.10561425  1  0.07032  0  0.10204  0.102549  0  1.042354  0
H  H7  1  0.48862063  0.44881737  0.60561567  1  0.070346  0  0.102049  0.102575  0  1.042381  0
H  H8  1  0.60063172  0.11650082  0.98445937  1  0.099452  0  0.107473  0.115886  0  1.007041  0
H  H9  1  0.89937211  0.88349961  0.48445661  1  0.099501  0  0.107446  0.115882  0  1.006982  0
H  H10  1  0.39936541  0.88350099  0.01554284  1  0.099524  0  0.107464  0.115861  0  1.007072  0
H  H11  1  0.10063091  0.11649897  0.51554148  1  0.099405  0  0.107491  0.115899  0  1.006993  0
H  H12  1  0.93407278  0.30235380  0.98475651  1  0.107624  0  0.094219  0.096378  0  1.072935  0
H  H13  1  0.56593028  0.69764826  0.48475777  1  0.107678  0  0.09423  0.096399  0  1.072881  0
H  H14  1  0.06592676  0.69764476  0.01524510  1  0.107575  0  0.094226  0.096381  0  1.072934  0
H  H15  1  0.43407202  0.30235277  0.51524326  1  0.107651  0  0.094216  0.096379  0  1.072894  0
H  H16  1  0.61659177  0.46221148  0.02499672  1  0.171757  0  0.107267  0.122084  0  1.038153  0
H  H17  1  0.88340936  0.53779052  0.52499937  1  0.171732  0  0.107278  0.122057  0  1.038171  0
H  H18  1  0.38340879  0.53778954  0.97500607  1  0.171762  0  0.107273  0.122119  0  1.038162  0
H  H19  1  0.11659019  0.46220804  0.47499989  1  0.171758  0  0.107283  0.122092  0  1.038158  0
H  H20  1  0.97375237  0.18847762  0.89212849  1  0.07968  0  0.109838  0.108954  0  1.022806  0
H  H21  1  0.52625123  0.81152247  0.39212874  1  0.079694  0  0.109826  0.108949  0  1.022803  0
H  H22  1  0.02624568  0.81152501  0.10787136  1  0.079718  0  0.109831  0.108948  0  1.022826  0
H  H23  1  0.47375174  0.18847530  0.60786994  1  0.079711  0  0.109821  0.108973  0  1.02286  0
H  H24  1  0.83280833  0.47020723  0.01551447  1  0.080375  0  0.097383  0.105582  0  1.038457  0
H  H25  1  0.66719461  0.52979638  0.51551806  1  0.079977  0  0.097417  0.105673  0  1.038373  0
H  H26  1  0.16719208  0.52979134  0.98448773  1  0.08027  0  0.097401  0.105621  0  1.038423  0
H  H27  1  0.33280600  0.47020545  0.48448356  1  0.079934  0  0.09743  0.105674  0  1.038367  0
H  H28  1  0.70871154  0.97885567  0.00673660  1  0.131016  0  0.126297  0.108253  0  0.988042  0
H  H29  1  0.79129389  0.02114629  0.50673586  1  0.131201  0  0.12633  0.10833  0  0.987943  0
H  H30  1  0.29129153  0.02114372  0.99326443  1  0.131011  0  0.126298  0.10828  0  0.987998  0
H  H31  1  0.20870836  0.97885392  0.49326458  1  0.131231  0  0.126282  0.108246  0  0.988046  0
H  H32  1  0.07152134  0.02127836  0.85377758  1  0.092915  0  0.117282  0.126587  0  0.971639  0
H  H33  1  0.42847840  0.97872205  0.35377973  1  0.092719  0  0.11729  0.126594  0  0.971626  0
H  H34  1  0.92847758  0.97872428  0.14622109  1  0.092771  0  0.117275  0.12657  0  0.971656  0
H  H35  1  0.57152463  0.02127653  0.64621954  1  0.092719  0  0.117282  0.12659  0  0.971605  0
H  H36  1  0.97641674  0.83738945  0.89075381  1  0.090467  0  0.115372  0.081668  0  0.999792  0
H  H37  1  0.52358342  0.16261143  0.39075815  1  0.090469  0  0.115352  0.081629  0  0.999796  0
H  H38  1  0.02358387  0.16261239  0.10924311  1  0.090443  0  0.115352  0.081633  0  0.999819  0
H  H39  1  0.47641791  0.83738795  0.60924052  1  0.09046  0  0.115363  0.08163  0  0.999772  0
H  H40  1  0.23135867  0.28747943  0.75155065  1  0.10095  0  0.106286  0.112758  0  0.995238  0
H  H41  1  0.26863887  0.71251732  0.25155096  1  0.10096  0  0.106298  0.11275  0  0.995259  0
H  H42  1  0.76863642  0.71251747  0.24844686  1  0.101317  0  0.106287  0.112734  0  0.995337  0
H  H43  1  0.73135971  0.28747960  0.74844830  1  0.100942  0  0.106279  0.112736  0  0.995247  0
H  H44  1  0.91657077  0.60040643  0.90167879  1  0.086972  0  0.118177  0.095587  0  1.025037  0
H  H45  1  0.58342855  0.39959448  0.40167893  1  0.086989  0  0.118165  0.095583  0  1.025002  0
H  H46  1  0.08343168  0.39959705  0.09832106  1  0.086991  0  0.118162  0.095575  0  1.025053  0
H  H47  1  0.41656736  0.60040160  0.59832209  1  0.087033  0  0.118174  0.09562  0  1.025006  0
H  H48  1  0.00199509  0.50700329  0.64324932  1  0.087478  0  0.105665  0.108886  0  1.020391  0
H  H49  1  0.49800320  0.49299552  0.14324947  1  0.087476  0  0.105681  0.108903  0  1.02038  0
H  H50  1  0.99800465  0.49299854  0.35674936  1  0.087586  0  0.105664  0.108884  0  1.020366  0
H  H51  1  0.50199542  0.50700222  0.85675038  1  0.08755  0  0.10564  0.108855  0  1.020377  0
H  H52  1  0.64629762  0.76506667  0.80903794  1  0.09461  0  0.120508  0.093325  0  0.978685  0
H  H53  1  0.85370229  0.23493310  0.30903747  1  0.094505  0  0.120514  0.093338  0  0.978685  0
H  H54  1  0.35370478  0.23493600  0.19096074  1  0.094567  0  0.120479  0.093315  0  0.978705  0
H  H55  1  0.14629653  0.76506791  0.69096180  1  0.094583  0  0.120512  0.093357  0  0.978668  0
H  H56  1  0.67471376  0.68325822  0.67427646  1  0.06444  0  0.106187  0.109274  0  1.006601  0
H  H57  1  0.82528319  0.31674103  0.17427729  1  0.064464  0  0.10617  0.109258  0  1.006635  0
H  H58  1  0.32528762  0.31674199  0.32572280  1  0.064442  0  0.106175  0.109259  0  1.0066  0
H  H59  1  0.17471394  0.68326078  0.82572374  1  0.06442  0  0.106189  0.109331  0  1.006549  0
H  H60  1  0.82661986  0.55084121  0.65697201  1  0.093263  0  0.109691  0.107365  0  1.029495  0
H  H61  1  0.67337961  0.44915718  0.15697175  1  0.093271  0  0.109684  0.107345  0  1.029557  0
H  H62  1  0.17338234  0.44915819  0.34302726  1  0.093357  0  0.109681  0.107357  0  1.029582  0
H  H63  1  0.32661819  0.55084137  0.84302869  1  0.093245  0  0.109708  0.10736  0  1.029467  0
H  H64  1  0.15669188  0.37994518  0.63184916  1  0.058781  0  0.097975  0.098428  0  1.04384  0
H  H65  1  0.34330454  0.62005194  0.13184998  1  0.059102  0  0.09794  0.098368  0  1.043876  0
H  H66  1  0.84330597  0.62005419  0.36814893  1  0.059114  0  0.097951  0.098389  0  1.043891  0
H  H67  1  0.65669321  0.37994579  0.86815046  1  0.059099  0  0.097967  0.098413  0  1.043824  0
C  C68  1  0.77489138  0.19702824  0.97997048  1  -0.028566  0  -0.014937  0.053182  0  4.033159  0
C  C69  1  0.72511239  0.80297135  0.47996916  1  -0.028355  0  -0.014964  0.05307  0  4.033223  0
C  C70  1  0.22510652  0.80297194  0.02003231  1  -0.028399  0  -0.015016  0.053103  0  4.033287  0
C  C71  1  0.27488879  0.19702558  0.52002952  1  -0.028538  0  -0.014966  0.053111  0  4.033276  0
C  C72  1  0.46807144  0.28215382  0.01972576  1  1.520192  0  0.193876  0.557865  0  4.210488  0
C  C73  1  0.03193190  0.71784702  0.51972602  1  1.520331  0  0.193916  0.557886  0  4.210348  0
C  C74  1  0.53192820  0.71784637  0.98027645  1  1.520177  0  0.193823  0.557784  0  4.210616  0
C  C75  1  0.96806856  0.28215237  0.48027325  1  1.519949  0  0.193898  0.557885  0  4.21057  0
C  C76  1  0.83349001  0.09943563  0.95429327  1  0.035393  0  0.001081  0.02746  0  3.991923  0
C  C77  1  0.66651646  0.90056634  0.45429147  1  0.035176  0  0.001114  0.027573  0  3.991803  0
C  C78  1  0.16651060  0.90056620  0.04570893  1  0.03525  0  0.001119  0.027536  0  3.991909  0
C  C79  1  0.33348666  0.09943388  0.54570779  1  0.035393  0  0.001081  0.027493  0  3.991799  0
C  C80  1  0.02467571  0.43545234  0.83626312  1  -0.056267  0  -0.084323  -0.150289  0  3.9425  0
C  C81  1  0.47532573  0.56454801  0.33626280  1  -0.056245  0  -0.084329  -0.150292  0  3.942556  0
C  C82  1  0.97532388  0.56454704  0.16373614  1  -0.056239  0  -0.084344  -0.150345  0  3.942483  0
C  C83  1  0.52467483  0.43545301  0.66373706  1  -0.056238  0  -0.084336  -0.15037  0  3.942582  0
C  C84  1  0.16302502  0.31171523  0.90087295  1  1.499063  0  0.190232  0.544541  0  4.224124  0
C  C85  1  0.33697387  0.68828370  0.40087271  1  1.499102  0  0.190185  0.544498  0  4.224205  0
C  C86  1  0.83697273  0.68828250  0.09912631  1  1.499065  0  0.190222  0.544501  0  4.22413  0
C  C87  1  0.66302761  0.31171813  0.59912655  1  1.499115  0  0.190204  0.544534  0  4.224079  0
C  C88  1  0.11456988  0.36422997  0.82967411  1  -0.042583  0  -0.022318  -0.037324  0  4.00701  0
C  C89  1  0.38542974  0.63576953  0.32967382  1  -0.042611  0  -0.022343  -0.03738  0  4.007065  0
C  C90  1  0.88542879  0.63576858  0.17032457  1  -0.042734  0  -0.022334  -0.037336  0  4.007019  0
C  C91  1  0.61456908  0.36423148  0.67032603  1  -0.042621  0  -0.022355  -0.037333  0  4.007048  0
C  C92  1  0.98099952  0.48715596  0.76982067  1  0.007594  0  -0.011761  0.052689  0  4.020268  0
C  C93  1  0.51900029  0.51284366  0.26982037  1  0.007593  0  -0.011778  0.052651  0  4.020329  0
C  C94  1  0.01900104  0.51284505  0.23017859  1  0.007646  0  -0.011722  0.052772  0  4.020154  0
C  C95  1  0.48099746  0.48715407  0.73018007  1  0.007639  0  -0.011731  0.052738  0  4.020182  0
C  C96  1  0.59760834  0.28712942  0.01022877  1  -0.005874  0  -0.016622  -0.022955  0  3.987078  0
C  C97  1  0.90239439  0.71287091  0.51022882  1  -0.005186  0  -0.016627  -0.022973  0  3.98695  0
C  C98  1  0.40239048  0.71287159  0.98977579  1  -0.0058  0  -0.016615  -0.022871  0  3.987167  0
C  C99  1  0.09760597  0.28712684  0.48976927  1  -0.004893  0  -0.016628  -0.022955  0  3.986923  0
C  C100  1  0.65388878  0.19255934  0.99200704  1  -0.071275  0  -0.079174  -0.140471  0  3.922964  0
C  C101  1  0.84611507  0.80744111  0.49200467  1  -0.071755  0  -0.079179  -0.140453  0  3.922857  0
C  C102  1  0.34610999  0.80744085  0.00799634  1  -0.071413  0  -0.079142  -0.140428  0  3.923135  0
C  C103  1  0.15388703  0.19255664  0.50799283  1  -0.071584  0  -0.079222  -0.140509  0  3.923001  0
C  C104  1  0.88721820  0.56353821  0.77746995  1  -0.007607  0  0.001667  0.031814  0  3.984427  0
C  C105  1  0.61278254  0.43646226  0.27746901  1  -0.007601  0  0.001673  0.031819  0  3.984472  0
C  C106  1  0.11278419  0.43646445  0.22252991  1  -0.007591  0  0.001653  0.031828  0  3.984444  0
C  C107  1  0.38721342  0.56353464  0.72253084  1  -0.007618  0  0.001627  0.031838  0  3.984437  0
C  C108  1  0.83931525  0.29755063  0.99072775  1  -0.124636  0  -0.094055  -0.14097  0  3.970716  0
C  C109  1  0.66068783  0.70245145  0.49072853  1  -0.124728  0  -0.094028  -0.140921  0  3.970713  0
C  C110  1  0.16068347  0.70244874  0.00927504  1  -0.124652  0  -0.094025  -0.140949  0  3.970733  0
C  C111  1  0.33931345  0.29754712  0.50927074  1  -0.124542  0  -0.093995  -0.140856  0  3.970728  0
C  C112  1  0.66201972  0.38770400  0.01638179  1  -0.031661  0  -0.081743  -0.10165  0  3.946258  0
C  C113  1  0.83798119  0.61229471  0.51638277  1  -0.032127  0  -0.081719  -0.101521  0  3.946127  0
C  C114  1  0.33797997  0.61229702  0.98362276  1  -0.031684  0  -0.081719  -0.10165  0  3.946265  0
C  C115  1  0.16201922  0.38770386  0.48361532  1  -0.03209  0  -0.081717  -0.101593  0  3.946093  0
C  C116  1  0.93651471  0.10833481  0.90971080  1  -0.03076  0  -0.060324  -0.064322  0  3.90094  0
C  C117  1  0.56348986  0.89166616  0.40971006  1  -0.030722  0  -0.060321  -0.064337  0  3.900953  0
C  C118  1  0.06348503  0.89166701  0.09028905  1  -0.030758  0  -0.060345  -0.064333  0  3.901014  0
C  C119  1  0.43651322  0.10833324  0.59028979  1  -0.030761  0  -0.060306  -0.064347  0  3.901074  0
C  C120  1  0.78306228  0.39195750  0.00859391  1  -0.051759  0  -0.094842  -0.081793  0  3.99745  0
C  C121  1  0.71693967  0.60804445  0.50859651  1  -0.05128  0  -0.094906  -0.081964  0  3.997433  0
C  C122  1  0.21693731  0.60804188  0.99140947  1  -0.051665  0  -0.094884  -0.081878  0  3.99748  0
C  C123  1  0.28306161  0.39195412  0.49140276  1  -0.051318  0  -0.094937  -0.081992  0  3.997486  0
C  C124  1  0.78821804  0.99343800  0.97237604  1  0.447645  0  0.056457  0.051879  0  3.875001  0
C  C125  1  0.71178755  0.00656321  0.47237559  1  0.447382  0  0.056371  0.051763  0  3.874938  0
C  C126  1  0.21178247  0.00656219  0.02762382  1  0.447622  0  0.056469  0.051841  0  3.875093  0
C  C127  1  0.28821373  0.99343536  0.52762426  1  0.447283  0  0.056481  0.051919  0  3.874953  0
C  C128  1  0.99045974  0.01492585  0.88709094  1  0.00301  0  -0.079562  -0.117849  0  3.991911  0
C  C129  1  0.50954297  0.98507422  0.38709208  1  0.003285  0  -0.07957  -0.117927  0  3.991959  0
C  C130  1  0.00954174  0.98507599  0.11290950  1  0.003184  0  -0.079604  -0.117954  0  3.992083  0
C  C131  1  0.49045923  0.01492518  0.61290778  1  0.003201  0  -0.079595  -0.117929  0  3.991898  0
C  C132  1  0.93866688  0.91335554  0.90755929  1  0.454984  0  0.041687  0.072911  0  3.976789  0
C  C133  1  0.56133594  0.08664542  0.40755942  1  0.454865  0  0.041765  0.073075  0  3.976693  0
C  C134  1  0.06133373  0.08664630  0.09243939  1  0.45499  0  0.041785  0.073095  0  3.976818  0
C  C135  1  0.43866452  0.91335396  0.59243926  1  0.454907  0  0.04177  0.073058  0  3.976702  0
C  C136  1  0.16135923  0.34304154  0.75554602  1  0.008677  0  -0.078907  -0.086573  0  3.952944  0
C  C137  1  0.33863924  0.65695605  0.25554631  1  0.008672  0  -0.078891  -0.08652  0  3.952878  0
C  C138  1  0.83863766  0.65695619  0.24445148  1  0.00839  0  -0.078874  -0.086499  0  3.952904  0
C  C139  1  0.66135943  0.34304251  0.74445296  1  0.008704  0  -0.078855  -0.086496  0  3.952877  0
C  C140  1  0.86531414  0.61474063  0.84924658  1  0.515368  0  0.048505  0.034675  0  3.894808  0
C  C141  1  0.63468771  0.38526092  0.34924558  1  0.515418  0  0.048481  0.034665  0  3.894783  0
C  C142  1  0.13468913  0.38526204  0.15075327  1  0.515403  0  0.048538  0.034702  0  3.894768  0
C  C143  1  0.36530999  0.61473599  0.65075545  1  0.515373  0  0.048557  0.034668  0  3.894815  0
C  C144  1  0.03042610  0.46601848  0.69608702  1  -0.016161  0  -0.076969  -0.100869  0  3.911966  0
C  C145  1  0.46957237  0.53398134  0.19608722  1  -0.016159  0  -0.076933  -0.100797  0  3.911996  0
C  C146  1  0.96957364  0.53398335  0.30391224  1  -0.016253  0  -0.076934  -0.100812  0  3.911899  0
C  C147  1  0.53042452  0.46601639  0.80391322  1  -0.016274  0  -0.07694  -0.100821  0  3.911961  0
C  C148  1  0.71376985  0.70849328  0.79734394  1  0.475124  0  0.045827  0.078104  0  3.946004  0
C  C149  1  0.78623008  0.29150726  0.29734350  1  0.475194  0  0.045844  0.078135  0  3.945955  0
C  C150  1  0.28623337  0.29150857  0.20265533  1  0.475116  0  0.045867  0.078105  0  3.945968  0
C  C151  1  0.21376966  0.70849457  0.70265576  1  0.475137  0  0.045835  0.078067  0  3.945922  0
C  C152  1  0.72979380  0.66281612  0.72358314  1  0.028117  0  -0.080038  -0.114769  0  3.998737  0
C  C153  1  0.77020502  0.33718332  0.22358277  1  0.028068  0  -0.080037  -0.114785  0  3.99885  0
C  C154  1  0.27020671  0.33718408  0.27641612  1  0.028271  0  -0.080024  -0.114688  0  3.998728  0
C  C155  1  0.22979385  0.66281850  0.77641767  1  0.028078  0  -0.080046  -0.114853  0  3.9987  0
C  C156  1  0.81591592  0.58923393  0.71393148  1  -0.064356  0  -0.060479  -0.070091  0  3.917675  0
C  C157  1  0.68408457  0.41076467  0.21393116  1  -0.064355  0  -0.060486  -0.070088  0  3.917821  0
C  C158  1  0.18408643  0.41076791  0.28606896  1  -0.064603  0  -0.060501  -0.070199  0  3.917871  0
C  C159  1  0.31591323  0.58923388  0.78606928  1  -0.06435  0  -0.060494  -0.070097  0  3.917664  0
C  C160  1  0.11933643  0.39442135  0.68935343  1  -0.062539  0  -0.087585  -0.06739  0  3.99234  0
C  C161  1  0.38066100  0.60557599  0.18935367  1  -0.062874  0  -0.087584  -0.067379  0  3.992274  0
C  C162  1  0.88066050  0.60557719  0.31064525  1  -0.062838  0  -0.087594  -0.067419  0  3.992321  0
C  C163  1  0.61933680  0.39442256  0.81064619  1  -0.062862  0  -0.087588  -0.067406  0  3.992304  0
N  N164  1  0.83879309  0.90333787  0.94884932  1  -1.25442  0  -0.326827  -0.224259  0  3.603393  0
N  N165  1  0.66120988  0.09666406  0.44885016  1  -1.254248  0  -0.326841  -0.224321  0  3.603451  0
N  N166  1  0.16120916  0.09666235  0.05115112  1  -1.254452  0  -0.326846  -0.224301  0  3.603527  0
N  N167  1  0.33879160  0.90333778  0.55114911  1  -1.254298  0  -0.326867  -0.224319  0  3.60365  0
N  N168  1  0.78084848  0.68428245  0.85895642  1  -1.250581  0  -0.326779  -0.22042  0  3.602276  0
N  N169  1  0.71915155  0.31571749  0.35895596  1  -1.2506  0  -0.326765  -0.220422  0  3.602153  0
N  N170  1  0.21915387  0.31571939  0.14104402  1  -1.250607  0  -0.326776  -0.22042  0  3.602242  0
N  N171  1  0.28084712  0.68428106  0.64104448  1  -1.250575  0  -0.326827  -0.220451  0  3.602223  0
O  O172  1  0.12970284  0.34337566  0.96956224  1  -1.18069  0  -0.332183  -0.563325  0  2.259139  0
O  O173  1  0.37029801  0.65662435  0.46956256  1  -1.180691  0  -0.332143  -0.563263  0  2.259114  0
O  O174  1  0.87029588  0.65662371  0.03043643  1  -1.180716  0  -0.332166  -0.563244  0  2.259095  0
O  O175  1  0.62970434  0.34337749  0.53043788  1  -1.180703  0  -0.332185  -0.563371  0  2.259191  0
O  O176  1  0.41410479  0.18853058  0.03306173  1  -1.160769  0  -0.341356  -0.5628  0  2.21058  0
O  O177  1  0.08589777  0.81147112  0.53306104  1  -1.160819  0  -0.341359  -0.562841  0  2.210604  0
O  O178  1  0.58589485  0.81146962  0.96693989  1  -1.160757  0  -0.341315  -0.56279  0  2.210596  0
O  O179  1  0.91410192  0.18852989  0.46693822  1  -1.160834  0  -0.341352  -0.562801  0  2.210696  0
O  O180  1  0.41421880  0.36881488  0.01493702  1  -1.174056  0  -0.316044  -0.535202  0  2.165819  0
O  O181  1  0.08578448  0.63118513  0.51493894  1  -1.174041  0  -0.316058  -0.535176  0  2.165728  0
O  O182  1  0.58578176  0.63118614  0.98506225  1  -1.174028  0  -0.316043  -0.535178  0  2.165843  0
O  O183  1  0.91421865  0.36881509  0.48506150  1  -1.174047  0  -0.316056  -0.535206  0  2.165808  0
O  O184  1  0.23527597  0.23904037  0.89360217  1  -1.152072  0  -0.325512  -0.532771  0  2.11762  0
O  O185  1  0.26472474  0.76096018  0.39360140  1  -1.152046  0  -0.3255  -0.532758  0  2.117677  0
O  O186  1  0.76472275  0.76095900  0.10639710  1  -1.152066  0  -0.325543  -0.532823  0  2.117577  0
O  O187  1  0.73527771  0.23904330  0.60639905  1  -1.152035  0  -0.325487  -0.532743  0  2.117614  0
