# generated using pymatgen
data_CdH16C28(N3O2)2
_symmetry_space_group_name_H-M   'P 1'
_cell_length_a   10.60853039
_cell_length_b   11.39911344
_cell_length_c   12.48622998
_cell_angle_alpha   107.99633852
_cell_angle_beta   99.51791765
_cell_angle_gamma   98.34513973
_symmetry_Int_Tables_number   1
_chemical_formula_structural   CdH16C28(N3O2)2
_chemical_formula_sum   'Cd2 H32 C56 N12 O8'
_cell_volume   1384.95475931
_cell_formula_units_Z   2
loop_
 _symmetry_equiv_pos_site_id
 _symmetry_equiv_pos_as_xyz
  1  'x, y, z'
loop_
 _atom_site_type_symbol
 _atom_site_label
 _atom_site_symmetry_multiplicity
 _atom_site_fract_x
 _atom_site_fract_y
 _atom_site_fract_z
 _atom_site_occupancy
 _atom_site_pbe_bader_charge
 _atom_site_pbe_bader_spin_density
 _atom_site_pbe_cm5_charge
 _atom_site_pbe_ddec_charge
 _atom_site_pbe_ddec_spin_density
 _atom_site_pbe_ddec_sum_bond_order
 _atom_site_pbe_magmom
Cd  Cd0  1  0.66401716  0.01282708  0.08734741  1  1.260092  0  0.786854  0.854375  0  2.264081  0
Cd  Cd1  1  0.33598229  0.98717401  0.91265261  1  1.260105  0  0.786849  0.854366  0  2.26406  0
H  H2  1  0.68612012  0.71377854  0.15074934  1  0.54118  0  0.307138  0.260447  0  1.020077  0
H  H3  1  0.31387796  0.28622067  0.84924915  1  0.541191  0  0.307136  0.260482  0  1.020076  0
H  H4  1  0.62504854  0.52551814  0.18346647  1  0.538748  0  0.305411  0.264763  0  1.008016  0
H  H5  1  0.37495069  0.47448201  0.81653165  1  0.53874  0  0.30539  0.264731  0  1.008044  0
H  H6  1  0.67994948  0.17514693  0.50395318  1  0.099382  0  0.106514  0.113596  0  1.014822  0
H  H7  1  0.32005241  0.82485227  0.49604584  1  0.099553  0  0.106535  0.113605  0  1.014819  0
H  H8  1  0.63177851  0.74411452  0.52758499  1  0.114696  0  0.107703  0.112256  0  0.994874  0
H  H9  1  0.36822222  0.25588373  0.47241521  1  0.114725  0  0.107696  0.112267  0  0.994883  0
H  H10  1  0.63025893  0.92334204  0.69922384  1  0.077491  0  0.101678  0.103183  0  1.021674  0
H  H11  1  0.36974296  0.07665716  0.30077598  1  0.077494  0  0.101669  0.103162  0  1.02169  0
H  H12  1  0.58284724  0.06166215  0.81647754  1  0.075101  0  0.10416  0.105042  0  1.037259  0
H  H13  1  0.41715020  0.93833423  0.18352246  1  0.074732  0  0.104148  0.105026  0  1.037226  0
H  H14  1  0.73709294  0.49804447  0.82457720  1  0.075841  0  0.102956  0.099781  0  1.027277  0
H  H15  1  0.26290820  0.50195567  0.17542198  1  0.075962  0  0.102952  0.099779  0  1.027289  0
H  H16  1  0.74055079  0.31696159  0.65443863  1  0.064112  0  0.104641  0.10518  0  1.007081  0
H  H17  1  0.25944961  0.68303950  0.34556232  1  0.064099  0  0.104649  0.105184  0  1.007103  0
H  H18  1  0.81820477  0.30920165  0.22395803  1  0.128424  0  0.128634  0.106155  0  0.962355  0
H  H19  1  0.18179712  0.69079755  0.77604579  1  0.128466  0  0.128635  0.106181  0  0.962351  0
H  H20  1  0.96579032  0.47857721  0.18535882  1  0.079665  0  0.11317  0.121418  0  0.977902  0
H  H21  1  0.03420870  0.52142200  0.81464220  1  0.079574  0  0.113206  0.121457  0  0.977844  0
H  H22  1  0.06800387  0.41541019  0.01271433  1  0.119628  0  0.109358  0.110261  0  1.02084  0
H  H23  1  0.93199197  0.58459186  0.98728545  1  0.119536  0  0.109373  0.110251  0  1.02092  0
H  H24  1  0.09321828  0.24744241  0.84137545  1  0.110563  0  0.109245  0.11747  0  1.015061  0
H  H25  1  0.90677767  0.75255586  0.15862408  1  0.11041  0  0.109232  0.117413  0  1.015086  0
H  H26  1  0.04313592  0.02129054  0.71838966  1  0.084615  0  0.109968  0.117679  0  0.98991  0
H  H27  1  0.95686311  0.97870867  0.28160736  1  0.084626  0  0.109976  0.117672  0  0.989954  0
H  H28  1  0.92441655  0.79994440  0.67555681  1  0.090249  0  0.117461  0.118136  0  0.961112  0
H  H29  1  0.07558575  0.20005668  0.32444521  1  0.090241  0  0.117457  0.118144  0  0.96109  0
H  H30  1  0.76232768  0.65063409  0.72306624  1  0.087718  0  0.116007  0.122198  0  0.977744  0
H  H31  1  0.23767347  0.34936605  0.27693374  1  0.087712  0  0.116016  0.122241  0  0.977767  0
H  H32  1  0.65911986  0.73610880  0.89011595  1  0.172179  0  0.119918  0.097153  0  1.022149  0
H  H33  1  0.34088033  0.26389134  0.10988311  1  0.172425  0  0.119919  0.097171  0  1.022167  0
C  C34  1  0.66102148  0.06578868  0.61832695  1  -0.025271  0  -0.003537  0.063887  0  3.985547  0
C  C35  1  0.33898041  0.93421051  0.38167127  1  -0.025193  0  -0.003567  0.063768  0  3.985597  0
C  C36  1  0.67406808  0.08327041  0.51437916  1  -0.029724  0  -0.078312  -0.136171  0  3.920497  0
C  C37  1  0.32592978  0.91672786  0.48561904  1  -0.029978  0  -0.07831  -0.136132  0  3.920559  0
C  C38  1  0.67501861  0.98171738  0.41694458  1  -0.020092  0  -0.009234  -0.019994  0  3.994088  0
C  C39  1  0.32497925  0.01828089  0.58305281  1  -0.020075  0  -0.009246  -0.020047  0  3.994179  0
C  C40  1  0.66160840  0.85852902  0.42193662  1  -0.03889  0  -0.009283  -0.041896  0  3.986716  0
C  C41  1  0.33839296  0.14147207  0.57806286  1  -0.038945  0  -0.0093  -0.041864  0  3.986776  0
C  C42  1  0.64453873  0.83969734  0.52492895  1  -0.049653  0  -0.082476  -0.092701  0  3.979058  0
C  C43  1  0.35546199  0.16030092  0.47507205  1  -0.049617  0  -0.082446  -0.092766  0  3.979117  0
C  C44  1  0.64408717  0.94111068  0.62076278  1  -0.021904  0  -0.079663  -0.10653  0  3.950792  0
C  C45  1  0.35591334  0.05888663  0.37923632  1  -0.021968  0  -0.079645  -0.106411  0  3.950749  0
C  C46  1  0.66318176  0.75258484  0.31969002  1  1.32529  0  0.214356  0.406869  0  4.189568  0
C  C47  1  0.33681811  0.24741813  0.68030738  1  1.325304  0  0.214412  0.406894  0  4.189403  0
C  C48  1  0.68354677  0.00035842  0.30743277  1  1.279833  0  0.180666  0.369348  0  4.263615  0
C  C49  1  0.31645130  0.99964079  0.69256492  1  1.279891  0  0.180653  0.369333  0  4.263691  0
C  C50  1  0.66212326  0.17396545  0.72149171  1  -0.002163  0  -0.00291  0.073441  0  3.981942  0
C  C51  1  0.33787917  0.82603185  0.27850846  1  -0.002199  0  -0.002903  0.073589  0  3.981802  0
C  C52  1  0.61913652  0.15585103  0.81621162  1  -0.039536  0  -0.084265  -0.14392  0  3.925154  0
C  C53  1  0.38086283  0.84414534  0.18378866  1  -0.039087  0  -0.084248  -0.143937  0  3.925058  0
C  C54  1  0.61733268  0.25828924  0.91320646  1  -0.019581  0  -0.011229  -0.024343  0  3.993116  0
C  C55  1  0.38266465  0.74171092  0.08679139  1  -0.019516  0  -0.011266  -0.024451  0  3.993244  0
C  C56  1  0.66129345  0.38252889  0.91644163  1  0.006863  0  -0.013302  -0.047118  0  3.99674  0
C  C57  1  0.33870600  0.61747221  0.08355838  1  0.007237  0  -0.01328  -0.047048  0  3.996638  0
C  C58  1  0.70459493  0.40168680  0.82144645  1  -0.026096  0  -0.081872  -0.086317  0  3.980933  0
C  C59  1  0.29540314  0.59831241  0.17855284  1  -0.026222  0  -0.081883  -0.086342  0  3.980967  0
C  C60  1  0.70543305  0.29975557  0.72650628  1  -0.0455  0  -0.085444  -0.121947  0  3.959089  0
C  C61  1  0.29456788  0.70024363  0.27349501  1  -0.045525  0  -0.085461  -0.122019  0  3.959167  0
C  C62  1  0.57152571  0.23966869  0.01186432  1  1.257833  0  0.190969  0.364885  0  4.207634  0
C  C63  1  0.42847427  0.76033051  0.98813443  1  1.257691  0  0.190996  0.36496  0  4.207708  0
C  C64  1  0.66367870  0.48744742  0.01964694  1  1.298257  0  0.212931  0.394636  0  4.190335  0
C  C65  1  0.33632170  0.51255367  0.98035481  1  1.297854  0  0.212884  0.394611  0  4.190415  0
C  C66  1  0.86366138  0.28724083  0.14981687  1  0.506944  0  0.058495  0.105941  0  3.948384  0
C  C67  1  0.13633690  0.71275933  0.85018432  1  0.507569  0  0.058481  0.105896  0  3.948464  0
C  C68  1  0.94598950  0.38106878  0.12741854  1  -0.011368  0  -0.083413  -0.134979  0  3.988176  0
C  C69  1  0.05400994  0.61893232  0.87258388  1  -0.011897  0  -0.083434  -0.134998  0  3.988219  0
C  C70  1  0.00069566  0.34695585  0.03206822  1  -0.084124  0  -0.059118  -0.070484  0  3.916541  0
C  C71  1  0.99930665  0.65304523  0.96793620  1  -0.084024  0  -0.059134  -0.070476  0  3.916721  0
C  C72  1  0.97241840  0.21958158  0.95880707  1  -0.028384  0  0.000768  0.051359  0  3.985706  0
C  C73  1  0.02758656  0.78041855  0.04119905  1  -0.028097  0  0.0008  0.05135  0  3.985802  0
C  C74  1  0.02656201  0.17764558  0.85952602  1  0.00862  0  -0.077523  -0.102587  0  3.950826  0
C  C75  1  0.97344275  0.82235360  0.14047981  1  0.008431  0  -0.077517  -0.102519  0  3.950758  0
C  C76  1  0.99905504  0.05319675  0.79233716  1  -0.022094  0  -0.080898  -0.115302  0  3.973056  0
C  C77  1  0.00094706  0.94680339  0.20766536  1  -0.022198  0  -0.080903  -0.115302  0  3.97303  0
C  C78  1  0.91237995  0.96182448  0.81733519  1  0.027705  0  0.000365  0.043988  0  4.012733  0
C  C79  1  0.08761833  0.03817567  0.18266439  1  0.027867  0  0.000355  0.044008  0  4.012531  0
C  C80  1  0.87972503  0.83251124  0.74912317  1  -0.073009  0  -0.056898  -0.068081  0  3.935795  0
C  C81  1  0.12027632  0.16748984  0.25087791  1  -0.073138  0  -0.056897  -0.06809  0  3.935675  0
C  C82  1  0.79059837  0.75045337  0.77520230  1  -0.057915  0  -0.078715  -0.127407  0  3.976016  0
C  C83  1  0.20940469  0.24954676  0.22479875  1  -0.057986  0  -0.078727  -0.127485  0  3.976167  0
C  C84  1  0.73301353  0.79742604  0.86924749  1  0.54574  0  0.065556  0.124412  0  3.900556  0
C  C85  1  0.26698782  0.20257504  0.13075359  1  0.545635  0  0.065547  0.124382  0  3.900614  0
C  C86  1  0.88688603  0.13154817  0.98728204  1  0.502738  0  0.116427  0.119647  0  3.974422  0
C  C87  1  0.11311627  0.86845291  0.01272158  1  0.502711  0  0.116365  0.119601  0  3.974444  0
C  C88  1  0.85322451  0.00042990  0.91309885  1  0.484083  0  0.11522  0.112738  0  3.974568  0
C  C89  1  0.14677588  0.99957119  0.08690130  1  0.484037  0  0.115259  0.112776  0  3.974554  0
N  N90  1  0.68153125  0.78472136  0.22636423  1  -0.873466  0  -0.293098  -0.19225  0  3.678276  0
N  N91  1  0.31846936  0.21528067  0.77363381  1  -0.873386  0  -0.29305  -0.192288  0  3.678343  0
N  N92  1  0.68864855  0.90188358  0.21724724  1  -0.782681  0  -0.282323  -0.326513  0  3.441805  0
N  N93  1  0.31135396  0.09811844  0.78275027  1  -0.782643  0  -0.282388  -0.32651  0  3.441894  0
N  N94  1  0.57290402  0.33625829  0.10399195  1  -0.726552  0  -0.237853  -0.268883  0  3.224189  0
N  N95  1  0.42709596  0.66374091  0.89600601  1  -0.726588  0  -0.237837  -0.268887  0  3.224148  0
N  N96  1  0.61882145  0.45431256  0.10437902  1  -0.831793  0  -0.277283  -0.183861  0  3.685478  0
N  N97  1  0.38117853  0.54568664  0.89562134  1  -0.831789  0  -0.277282  -0.183844  0  3.685448  0
N  N98  1  0.83560680  0.16676975  0.08181890  1  -1.236601  0  -0.323483  -0.27523  0  3.528069  0
N  N99  1  0.16439031  0.83322946  0.91818106  1  -1.23656  0  -0.323469  -0.27522  0  3.528038  0
N  N100  1  0.76447930  0.91850979  0.93611795  1  -1.233521  0  -0.322723  -0.272074  0  3.494652  0
N  N101  1  0.23552014  0.08149130  0.06388206  1  -1.233512  0  -0.322708  -0.272041  0  3.494677  0
O  O102  1  0.65007156  0.63942414  0.31622805  1  -1.16323  0  -0.337175  -0.530372  0  2.124194  0
O  O103  1  0.34992491  0.36058074  0.68376621  1  -1.163385  0  -0.337228  -0.530397  0  2.124058  0
O  O104  1  0.68303724  0.10676403  0.29162714  1  -1.148937  0  -0.359852  -0.552683  0  2.120471  0
O  O105  1  0.31696220  0.89323706  0.70837367  1  -1.148913  0  -0.359808  -0.552643  0  2.120486  0
O  O106  1  0.53108988  0.12475924  0.01162832  1  -1.189592  0  -0.370401  -0.58438  0  2.453712  0
O  O107  1  0.46890915  0.87523996  0.98837031  1  -1.189498  0  -0.370395  -0.584372  0  2.453743  0
O  O108  1  0.70601489  0.60214128  0.03250988  1  -1.181911  0  -0.324287  -0.534217  0  2.201927  0
O  O109  1  0.29398476  0.39786076  0.96749043  1  -1.181882  0  -0.324259  -0.534213  0  2.202037  0
