# generated using pymatgen
data_ZnH13C15NO4
_symmetry_space_group_name_H-M   'P 1'
_cell_length_a   11.57122948
_cell_length_b   11.57122200
_cell_length_c   14.50845649
_cell_angle_alpha   73.86029744
_cell_angle_beta   73.86029281
_cell_angle_gamma   68.72831291
_symmetry_Int_Tables_number   1
_chemical_formula_structural   ZnH13C15NO4
_chemical_formula_sum   'Zn4 H52 C60 N4 O16'
_cell_volume   1704.50546324
_cell_formula_units_Z   4
loop_
 _symmetry_equiv_pos_site_id
 _symmetry_equiv_pos_as_xyz
  1  'x, y, z'
loop_
 _atom_site_type_symbol
 _atom_site_label
 _atom_site_symmetry_multiplicity
 _atom_site_fract_x
 _atom_site_fract_y
 _atom_site_fract_z
 _atom_site_occupancy
 _atom_site_hle17_bader_spin_density
 _atom_site_hle17_ddec_charge
 _atom_site_hle17_ddec_spin_density
 _atom_site_hle17_ddec_sum_bond_order
 _atom_site_hle17_magmom
 _atom_site_hse06_10hf_bader_spin_density
 _atom_site_hse06_10hf_ddec_charge
 _atom_site_hse06_10hf_ddec_spin_density
 _atom_site_hse06_10hf_ddec_sum_bond_order
 _atom_site_hse06_10hf_magmom
 _atom_site_hse06_bader_spin_density
 _atom_site_hse06_ddec_charge
 _atom_site_hse06_ddec_spin_density
 _atom_site_hse06_ddec_sum_bond_order
 _atom_site_hse06_magmom
 _atom_site_pbe_bader_spin_density
 _atom_site_pbe_cm5_charge
 _atom_site_pbe_ddec_charge
 _atom_site_pbe_ddec_spin_density
 _atom_site_pbe_ddec_sum_bond_order
 _atom_site_pbe_magmom
Zn  Zn0  1  0.13333266  0.49603566  0.47496529  1  0  1.041947  0  1.881381  0  0  0.870767  0  2.356822  0  0  0.923206  0  2.290537  0  0  0.66973  0.834091  0  2.402245  0
Zn  Zn1  1  0.49603528  0.13333322  0.97496487  1  0  1.041952  0  1.881387  0  0  0.870784  0  2.35682  0  0  0.923221  0  2.29054  0  0  0.669716  0.834095  0  2.402241  0
Zn  Zn2  1  0.86666620  0.50396512  0.52503460  1  0  1.041903  0  1.881459  0  0  0.870793  0  2.356873  0  0  0.923232  0  2.290585  0  0  0.66968  0.834103  0  2.402307  0
Zn  Zn3  1  0.50396478  0.86666662  0.02503496  1  0  1.041879  0  1.881485  0  0  0.870767  0  2.356915  0  0  0.923208  0  2.290626  0  0  0.66966  0.834091  0  2.402323  0
H  H4  1  0.25325895  0.24430346  0.75830066  1  0  0.105582  0  0.955766  0  0  0.11237  0  1.024212  0  0  0.116402  0  1.020609  0  0  0.104289  0.109396  0  1.026909  0
H  H5  1  0.24430278  0.25325870  0.25830052  1  0  0.105607  0  0.955757  0  0  0.112393  0  1.024205  0  0  0.116424  0  1.020602  0  0  0.104302  0.109422  0  1.026901  0
H  H6  1  0.74674052  0.75569827  0.24169820  1  0  0.105578  0  0.955759  0  0  0.11237  0  1.024192  0  0  0.1164  0  1.020588  0  0  0.104308  0.109404  0  1.026883  0
H  H7  1  0.75569848  0.74674019  0.74169857  1  0  0.105612  0  0.955739  0  0  0.112401  0  1.024181  0  0  0.116432  0  1.020577  0  0  0.104323  0.10943  0  1.026871  0
H  H8  1  0.80815419  0.09029819  0.75138116  1  0  0.091184  0  0.977809  0  0  0.099924  0  1.044635  0  0  0.1034  0  1.041434  0  0  0.101101  0.097232  0  1.047375  0
H  H9  1  0.09029965  0.80815325  0.25138008  1  0  0.091181  0  0.977781  0  0  0.099917  0  1.044611  0  0  0.103393  0  1.041409  0  0  0.101099  0.097224  0  1.04736  0
H  H10  1  0.19184646  0.90969976  0.24862034  1  0  0.091154  0  0.977817  0  0  0.099904  0  1.044633  0  0  0.103378  0  1.041431  0  0  0.101097  0.097207  0  1.047386  0
H  H11  1  0.90970102  0.19184754  0.74861941  1  0  0.091205  0  0.977742  0  0  0.099941  0  1.044575  0  0  0.103417  0  1.041374  0  0  0.101106  0.097244  0  1.047321  0
H  H12  1  0.00147366  0.05311127  0.61737241  1  0  0.094566  0  0.945112  0  0  0.106217  0  0.999859  0  0  0.108867  0  0.999748  0  0  0.101733  0.104206  0  1.00026  0
H  H13  1  0.05311099  0.00147449  0.11737193  1  0  0.09455  0  0.94513  0  0  0.106202  0  0.999878  0  0  0.108852  0  0.999767  0  0  0.10173  0.104194  0  1.000276  0
H  H14  1  0.99852701  0.94688952  0.38262846  1  0  0.094528  0  0.94512  0  0  0.106177  0  0.999871  0  0  0.108825  0  0.999762  0  0  0.10173  0.104166  0  1.000296  0
H  H15  1  0.94689088  0.99852819  0.88262686  1  0  0.094533  0  0.945149  0  0  0.106203  0  0.999872  0  0  0.108852  0  0.999761  0  0  0.101737  0.104182  0  1.000296  0
H  H16  1  0.06900165  0.85887067  0.54686030  1  0  0.092331  0  0.96187  0  0  0.101371  0  1.026807  0  0  0.104656  0  1.024736  0  0  0.101895  0.099003  0  1.028391  0
H  H17  1  0.85887180  0.06900130  0.04686107  1  0  0.092333  0  0.961888  0  0  0.10136  0  1.026839  0  0  0.104646  0  1.024764  0  0  0.101879  0.098988  0  1.028411  0
H  H18  1  0.93099931  0.14112917  0.45313864  1  0  0.092336  0  0.961876  0  0  0.101378  0  1.026811  0  0  0.104661  0  1.024737  0  0  0.101905  0.099006  0  1.028392  0
H  H19  1  0.14113006  0.93099855  0.95313904  1  0  0.092328  0  0.961874  0  0  0.10137  0  1.026813  0  0  0.104654  0  1.024739  0  0  0.101911  0.098995  0  1.028398  0
H  H20  1  0.61110213  0.69584788  0.55544325  1  0  0.091108  0  0.917534  0  0  0.102665  0  0.974546  0  0  0.105456  0  0.972228  0  0  0.121972  0.100542  0  0.97642  0
H  H21  1  0.69584643  0.61110376  0.05544285  1  0  0.091116  0  0.917498  0  0  0.102658  0  0.974531  0  0  0.10545  0  0.972212  0  0  0.121958  0.100538  0  0.976397  0
H  H22  1  0.38889823  0.30415101  0.44455742  1  0  0.091089  0  0.917529  0  0  0.102642  0  0.974543  0  0  0.105433  0  0.972225  0  0  0.12196  0.100517  0  0.976409  0
H  H23  1  0.30415095  0.38889891  0.94455764  1  0  0.091097  0  0.917543  0  0  0.102651  0  0.974555  0  0  0.105442  0  0.972236  0  0  0.121965  0.100521  0  0.976427  0
H  H24  1  0.33943346  0.49010168  0.65691773  1  0  0.115031  0  0.915704  0  0  0.131467  0  0.966253  0  0  0.134282  0  0.964742  0  0  0.114311  0.129417  0  0.967403  0
H  H25  1  0.49010114  0.33943358  0.15691952  1  0  0.11499  0  0.915782  0  0  0.131437  0  0.966324  0  0  0.13425  0  0.964817  0  0  0.114332  0.129393  0  0.967466  0
H  H26  1  0.66056779  0.50989722  0.34308067  1  0  0.115008  0  0.915712  0  0  0.131463  0  0.966244  0  0  0.134278  0  0.964732  0  0  0.114321  0.129416  0  0.967392  0
H  H27  1  0.50989773  0.66056720  0.84308105  1  0  0.115  0  0.91579  0  0  0.131446  0  0.966332  0  0  0.134261  0  0.964821  0  0  0.114324  0.129393  0  0.967485  0
H  H28  1  0.74237800  0.30464000  0.60500153  1  0  0.090686  0  0.931491  0  0  0.101443  0  0.993611  0  0  0.103534  0  0.992185  0  0  0.119505  0.09974  0  0.995009  0
H  H29  1  0.30463916  0.74237763  0.10500150  1  0  0.090692  0  0.931479  0  0  0.101445  0  0.993605  0  0  0.103536  0  0.992179  0  0  0.119514  0.099748  0  0.994995  0
H  H30  1  0.25762415  0.69535891  0.39499942  1  0  0.090721  0  0.931454  0  0  0.101476  0  0.993575  0  0  0.103566  0  0.99215  0  0  0.119521  0.099778  0  0.994979  0
H  H31  1  0.69535881  0.25762315  0.89499928  1  0  0.09073  0  0.931397  0  0  0.101484  0  0.99352  0  0  0.103575  0  0.992094  0  0  0.119515  0.099778  0  0.994921  0
H  H32  1  0.47933036  0.23137319  0.74696297  1  0  0.133801  0  0.951294  0  0  0.153531  0  1.012994  0  0  0.154449  0  1.013533  0  0  0.097708  0.152843  0  1.012602  0
H  H33  1  0.23137235  0.47933069  0.24696414  1  0  0.133778  0  0.951285  0  0  0.153512  0  1.01298  0  0  0.15443  0  1.013519  0  0  0.0977  0.152827  0  1.012596  0
H  H34  1  0.52066941  0.76862760  0.25303741  1  0  0.133829  0  0.951279  0  0  0.153559  0  1.012971  0  0  0.154477  0  1.01351  0  0  0.097724  0.152871  0  1.012583  0
H  H35  1  0.76862742  0.52067010  0.75303692  1  0  0.133802  0  0.951257  0  0  0.153533  0  1.012953  0  0  0.154452  0  1.013492  0  0  0.097706  0.152846  0  1.012563  0
H  H36  1  0.60191591  0.17720329  0.64994342  1  0  0.109561  0  0.952721  0  0  0.130677  0  1.012913  0  0  0.131495  0  1.013662  0  0  0.091426  0.130047  0  1.012485  0
H  H37  1  0.17720388  0.60191640  0.14994356  1  0  0.10955  0  0.952717  0  0  0.130666  0  1.012921  0  0  0.131483  0  1.013669  0  0  0.091429  0.130043  0  1.012483  0
H  H38  1  0.39808355  0.82279561  0.35005745  1  0  0.10957  0  0.952717  0  0  0.130685  0  1.012912  0  0  0.131503  0  1.01366  0  0  0.091435  0.130061  0  1.012473  0
H  H39  1  0.82279499  0.39808438  0.85005770  1  0  0.109573  0  0.952728  0  0  0.130689  0  1.012922  0  0  0.131506  0  1.013671  0  0  0.09144  0.130061  0  1.012483  0
H  H40  1  0.44282714  0.25374083  0.63124000  1  0  0.11368  0  0.944906  0  0  0.134538  0  1.006698  0  0  0.135525  0  1.006528  0  0  0.094378  0.133815  0  1.006806  0
H  H41  1  0.25374180  0.44282699  0.13124087  1  0  0.113623  0  0.94501  0  0  0.134506  0  1.006772  0  0  0.135485  0  1.006612  0  0  0.094356  0.133786  0  1.006869  0
H  H42  1  0.55717231  0.74625806  0.36876018  1  0  0.11367  0  0.944968  0  0  0.134533  0  1.006751  0  0  0.135518  0  1.006584  0  0  0.09437  0.133814  0  1.006857  0
H  H43  1  0.74625736  0.55717285  0.86876054  1  0  0.113704  0  0.944907  0  0  0.134566  0  1.006691  0  0  0.135547  0  1.006529  0  0  0.094389  0.133841  0  1.006811  0
H  H44  1  0.26399989  0.71833521  0.60834862  1  0  0.119865  0  0.949967  0  0  0.139195  0  1.012985  0  0  0.14092  0  1.012118  0  0  0.096673  0.137933  0  1.013596  0
H  H45  1  0.71833527  0.26400097  0.10834728  1  0  0.119884  0  0.949981  0  0  0.139211  0  1.012996  0  0  0.140937  0  1.012128  0  0  0.096665  0.137947  0  1.013598  0
H  H46  1  0.73599898  0.28166557  0.39165264  1  0  0.119906  0  0.950016  0  0  0.139237  0  1.013023  0  0  0.140964  0  1.012153  0  0  0.096683  0.137972  0  1.013626  0
H  H47  1  0.28166539  0.73599982  0.89165220  1  0  0.119896  0  0.950011  0  0  0.139227  0  1.013019  0  0  0.140953  0  1.01215  0  0  0.096672  0.137959  0  1.013627  0
H  H48  1  0.37277608  0.80259524  0.54014435  1  0  0.112989  0  0.939484  0  0  0.136893  0  0.994601  0  0  0.137581  0  0.995387  0  0  0.097086  0.136307  0  0.994186  0
H  H49  1  0.80259493  0.37277720  0.04014377  1  0  0.113004  0  0.93945  0  0  0.136911  0  0.994565  0  0  0.1376  0  0.995349  0  0  0.09709  0.136326  0  0.994139  0
H  H50  1  0.62722398  0.19740460  0.45985618  1  0  0.113023  0  0.939494  0  0  0.136927  0  0.994608  0  0  0.137616  0  0.995391  0  0  0.097099  0.136344  0  0.994189  0
H  H51  1  0.19740454  0.62722454  0.95985646  1  0  0.113015  0  0.939502  0  0  0.136925  0  0.994607  0  0  0.137614  0  0.995391  0  0  0.097097  0.136341  0  0.994195  0
H  H52  1  0.34096285  0.77368362  0.66952505  1  0  0.115052  0  0.935476  0  0  0.139906  0  0.989203  0  0  0.140302  0  0.990257  0  0  0.098485  0.139564  0  0.988498  0
H  H53  1  0.77368486  0.34096127  0.16952473  1  0  0.115089  0  0.935436  0  0  0.139937  0  0.989167  0  0  0.140333  0  0.990221  0  0  0.098511  0.139595  0  0.988462  0
H  H54  1  0.65903931  0.22631528  0.33047521  1  0  0.115091  0  0.935438  0  0  0.139943  0  0.989167  0  0  0.140339  0  0.990221  0  0  0.098515  0.139602  0  0.988465  0
H  H55  1  0.22631520  0.65903857  0.83047579  1  0  0.115071  0  0.935486  0  0  0.139914  0  0.989223  0  0  0.14031  0  0.990277  0  0  0.098499  0.139573  0  0.988523  0
C  C56  1  0.06026061  0.33052473  0.65531115  1  0  0.66139  0  3.891042  0  0  0.612974  0  4.175288  0  0  0.648371  0  4.168191  0  0  0.210334  0.589005  0  4.179395  0
C  C57  1  0.33052452  0.06025923  0.15531181  1  0  0.661373  0  3.891003  0  0  0.612985  0  4.175236  0  0  0.648383  0  4.168136  0  0  0.210317  0.589008  0  4.179335  0
C  C58  1  0.93974575  0.66947797  0.34468664  1  0  0.66127  0  3.890786  0  0  0.612872  0  4.175056  0  0  0.648268  0  4.167959  0  0  0.210259  0.588916  0  4.179144  0
C  C59  1  0.66947766  0.93974535  0.84468718  1  0  0.661296  0  3.890797  0  0  0.612906  0  4.17506  0  0  0.648303  0  4.167963  0  0  0.210255  0.588937  0  4.179152  0
C  C60  1  0.31622124  0.04938552  0.91064282  1  0  0.66556  0  3.883096  0  0  0.616199  0  4.169276  0  0  0.65173  0  4.16167  0  0  0.213136  0.592045  0  4.173799  0
C  C61  1  0.04938506  0.31622240  0.41064234  1  0  0.665438  0  3.883297  0  0  0.616079  0  4.169471  0  0  0.65161  0  4.161867  0  0  0.213087  0.591932  0  4.173988  0
C  C62  1  0.68377827  0.95062473  0.08935413  1  0  0.665588  0  3.88334  0  0  0.616211  0  4.169553  0  0  0.651744  0  4.161946  0  0  0.213072  0.592056  0  4.174072  0
C  C63  1  0.95062369  0.68377841  0.58935327  1  0  0.665557  0  3.883511  0  0  0.616165  0  4.169728  0  0  0.651699  0  4.16212  0  0  0.213107  0.59202  0  4.174252  0
C  C64  1  0.20643111  0.08553443  0.86192146  1  0  -0.067172  0  3.766955  0  0  -0.041007  0  3.998614  0  0  -0.050173  0  4.021445  0  0  -0.021237  -0.0352  0  3.98338  0
C  C65  1  0.08553445  0.20643131  0.36192177  1  0  -0.067173  0  3.766991  0  0  -0.040998  0  3.998625  0  0  -0.050164  0  4.021456  0  0  -0.021254  -0.035188  0  3.983401  0
C  C66  1  0.79357014  0.91446447  0.13807762  1  0  -0.067194  0  3.766906  0  0  -0.041014  0  3.998554  0  0  -0.050181  0  4.021387  0  0  -0.02124  -0.035195  0  3.983317  0
C  C67  1  0.91446501  0.79356758  0.63807841  1  0  -0.067116  0  3.766817  0  0  -0.04094  0  3.998464  0  0  -0.050107  0  4.021297  0  0  -0.021223  -0.035129  0  3.983249  0
C  C68  1  0.18643561  0.19056431  0.78523829  1  0  -0.066143  0  3.69982  0  0  -0.102157  0  3.942803  0  0  -0.098835  0  3.960486  0  0  -0.077774  -0.10404  0  3.930885  0
C  C69  1  0.19056500  0.18643368  0.28523822  1  0  -0.066188  0  3.699779  0  0  -0.102188  0  3.942775  0  0  -0.098864  0  3.960458  0  0  -0.077778  -0.104072  0  3.930857  0
C  C70  1  0.81356865  0.80943649  0.21476039  1  0  -0.066173  0  3.699851  0  0  -0.102156  0  3.942836  0  0  -0.098829  0  3.960516  0  0  -0.077777  -0.10404  0  3.930926  0
C  C71  1  0.80943656  0.81356712  0.71476107  1  0  -0.066215  0  3.699895  0  0  -0.102197  0  3.942892  0  0  -0.098872  0  3.960575  0  0  -0.077807  -0.104068  0  3.930965  0
C  C72  1  0.08084372  0.22569981  0.74306768  1  0  -0.069948  0  3.773333  0  0  -0.043499  0  4.004839  0  0  -0.05273  0  4.027768  0  0  -0.021132  -0.03769  0  3.989287  0
C  C73  1  0.22570090  0.08084220  0.24306810  1  0  -0.069868  0  3.773247  0  0  -0.043487  0  4.004836  0  0  -0.052719  0  4.027765  0  0  -0.02113  -0.037663  0  3.989263  0
C  C74  1  0.91915394  0.77429908  0.25693290  1  0  -0.069817  0  3.773205  0  0  -0.043438  0  4.004811  0  0  -0.052671  0  4.027741  0  0  -0.021106  -0.037631  0  3.989274  0
C  C75  1  0.77430004  0.91915196  0.75693556  1  0  -0.069798  0  3.773202  0  0  -0.043433  0  4.004827  0  0  -0.052665  0  4.027758  0  0  -0.021069  -0.037612  0  3.989258  0
C  C76  1  0.84126611  0.00699310  0.71897473  1  0  -0.07072  0  3.759383  0  0  -0.100519  0  4.012863  0  0  -0.098764  0  4.032533  0  0  -0.087078  -0.101219  0  3.999525  0
C  C77  1  0.00699446  0.84126565  0.21897358  1  0  -0.070726  0  3.75937  0  0  -0.100524  0  4.01284  0  0  -0.098769  0  4.032509  0  0  -0.087104  -0.101232  0  3.999531  0
C  C78  1  0.15873515  0.99300580  0.28102780  1  0  -0.070693  0  3.759472  0  0  -0.100507  0  4.01294  0  0  -0.098748  0  4.032608  0  0  -0.087106  -0.101215  0  3.999625  0
C  C79  1  0.99300740  0.15873420  0.78102723  1  0  -0.070704  0  3.759402  0  0  -0.100527  0  4.012863  0  0  -0.098772  0  4.032533  0  0  -0.087121  -0.101236  0  3.999546  0
C  C80  1  0.94775186  0.98599579  0.64432836  1  0  -0.084573  0  3.793129  0  0  -0.093765  0  4.04637  0  0  -0.098605  0  4.068782  0  0  -0.093091  -0.090595  0  4.031249  0
C  C81  1  0.98599752  0.94775070  0.14432719  1  0  -0.084543  0  3.793096  0  0  -0.093737  0  4.046332  0  0  -0.098577  0  4.068744  0  0  -0.09306  -0.090575  0  4.031214  0
C  C82  1  0.05224970  0.01400217  0.35567432  1  0  -0.084519  0  3.793012  0  0  -0.093707  0  4.046258  0  0  -0.098549  0  4.06867  0  0  -0.093061  -0.09055  0  4.031176  0
C  C83  1  0.01400254  0.05224914  0.85567333  1  0  -0.084534  0  3.793021  0  0  -0.093742  0  4.046269  0  0  -0.098582  0  4.06868  0  0  -0.093077  -0.090587  0  4.031182  0
C  C84  1  0.98571363  0.87786698  0.60501637  1  0  -0.064538  0  3.742012  0  0  -0.092067  0  3.989694  0  0  -0.090266  0  4.009197  0  0  -0.08435  -0.09314  0  3.976471  0
C  C85  1  0.87786733  0.98571291  0.10501611  1  0  -0.064486  0  3.742017  0  0  -0.092007  0  3.989701  0  0  -0.090203  0  4.0092  0  0  -0.084334  -0.093071  0  3.976445  0
C  C86  1  0.01428883  0.12213381  0.39498341  1  0  -0.064479  0  3.742021  0  0  -0.092016  0  3.989705  0  0  -0.090208  0  4.009201  0  0  -0.084372  -0.093083  0  3.976469  0
C  C87  1  0.12213394  0.01428883  0.89498234  1  0  -0.064482  0  3.742013  0  0  -0.092019  0  3.989707  0  0  -0.090214  0  4.009207  0  0  -0.084404  -0.093088  0  3.97647  0
C  C88  1  0.58600421  0.60835405  0.57955248  1  0  0.05996  0  3.659893  0  0  0.01867  0  3.911953  0  0  0.023948  0  3.929976  0  0  0.048285  0.015323  0  3.899688  0
C  C89  1  0.60835392  0.58600381  0.07955293  1  0  0.059974  0  3.659898  0  0  0.018691  0  3.911937  0  0  0.023967  0  3.929962  0  0  0.048309  0.015347  0  3.899663  0
C  C90  1  0.41399615  0.39164485  0.42044750  1  0  0.060061  0  3.65987  0  0  0.018749  0  3.911892  0  0  0.024026  0  3.929918  0  0  0.048348  0.015412  0  3.899607  0
C  C91  1  0.39164495  0.41399698  0.92044764  1  0  0.060065  0  3.660019  0  0  0.01876  0  3.912035  0  0  0.024037  0  3.93006  0  0  0.048351  0.015412  0  3.899764  0
C  C92  1  0.45964312  0.60982209  0.60785788  1  0  0.099569  0  3.786033  0  0  0.128766  0  4.03229  0  0  0.12549  0  4.059128  0  0  -0.003364  0.13063  0  4.014168  0
C  C93  1  0.60982241  0.45964292  0.10785817  1  0  0.099539  0  3.786059  0  0  0.128765  0  4.032284  0  0  0.125488  0  4.059124  0  0  -0.003369  0.130638  0  4.014165  0
C  C94  1  0.54035814  0.39017681  0.39214190  1  0  0.099482  0  3.785978  0  0  0.128753  0  4.032146  0  0  0.125476  0  4.058987  0  0  -0.003392  0.130624  0  4.014016  0
C  C95  1  0.39017735  0.54035787  0.89214220  1  0  0.099478  0  3.786049  0  0  0.128745  0  4.032218  0  0  0.125467  0  4.05906  0  0  -0.0034  0.130611  0  4.014095  0
C  C96  1  0.43684379  0.49306918  0.63660333  1  0  -0.127627  0  3.646833  0  0  -0.164182  0  3.89102  0  0  -0.164379  0  3.911663  0  0  -0.067115  -0.163665  0  3.876894  0
C  C97  1  0.49306961  0.43684329  0.13660506  1  0  -0.12752  0  3.646795  0  0  -0.164097  0  3.890974  0  0  -0.164291  0  3.911616  0  0  -0.067084  -0.163575  0  3.876849  0
C  C98  1  0.56315747  0.50692971  0.36339438  1  0  -0.127532  0  3.646704  0  0  -0.164138  0  3.890866  0  0  -0.164334  0  3.911506  0  0  -0.067083  -0.16362  0  3.876744  0
C  C99  1  0.50693015  0.56315749  0.86339463  1  0  -0.127536  0  3.646821  0  0  -0.164138  0  3.890985  0  0  -0.164332  0  3.911626  0  0  -0.067106  -0.163623  0  3.876875  0
C  C100  1  0.53716221  0.37966110  0.63753237  1  0  0.113664  0  3.771349  0  0  0.143208  0  4.01416  0  0  0.140144  0  4.040984  0  0  0.003115  0.14499  0  3.995971  0
C  C101  1  0.37966111  0.53716144  0.13753359  1  0  0.11362  0  3.771269  0  0  0.143175  0  4.014086  0  0  0.140111  0  4.040907  0  0  0.003091  0.144954  0  3.99592  0
C  C102  1  0.46283904  0.62033779  0.36246672  1  0  0.113646  0  3.771286  0  0  0.14321  0  4.014084  0  0  0.140148  0  4.040906  0  0  0.003102  0.144991  0  3.99591  0
C  C103  1  0.62033776  0.46283934  0.86246699  1  0  0.113655  0  3.771329  0  0  0.143226  0  4.014123  0  0  0.140164  0  4.040943  0  0  0.003094  0.144997  0  3.995955  0
C  C104  1  0.65966401  0.38883775  0.60776006  1  0  0.053618  0  3.655824  0  0  0.012412  0  3.906154  0  0  0.016905  0  3.925844  0  0  0.042351  0.009582  0  3.892764  0
C  C105  1  0.38883782  0.65966439  0.10776033  1  0  0.053627  0  3.655777  0  0  0.012409  0  3.906116  0  0  0.016903  0  3.925807  0  0  0.042349  0.009589  0  3.892717  0
C  C106  1  0.34033634  0.61116114  0.39223991  1  0  0.053548  0  3.655844  0  0  0.012321  0  3.906167  0  0  0.016814  0  3.92586  0  0  0.04233  0.009496  0  3.892783  0
C  C107  1  0.61115986  0.34033734  0.89223961  1  0  0.05354  0  3.65581  0  0  0.012308  0  3.906145  0  0  0.016803  0  3.925836  0  0  0.042332  0.009487  0  3.892751  0
C  C108  1  0.51453200  0.25365722  0.66758180  1  0  -0.344459  0  3.713824  0  0  -0.425504  0  3.944725  0  0  -0.42757  0  3.955861  0  0  -0.239657  -0.423769  0  3.93698  0
C  C109  1  0.25365819  0.51453164  0.16758203  1  0  -0.344367  0  3.713899  0  0  -0.425438  0  3.944807  0  0  -0.427494  0  3.955947  0  0  -0.239609  -0.423697  0  3.93705  0
C  C110  1  0.48546925  0.74634168  0.33241798  1  0  -0.344461  0  3.713872  0  0  -0.425517  0  3.944767  0  0  -0.42758  0  3.955905  0  0  -0.239653  -0.423783  0  3.937018  0
C  C111  1  0.74634068  0.48546914  0.83241854  1  0  -0.344472  0  3.713835  0  0  -0.425531  0  3.944733  0  0  -0.427592  0  3.955873  0  0  -0.239666  -0.423798  0  3.936997  0
C  C112  1  0.35356700  0.73247042  0.60620706  1  0  -0.340333  0  3.737171  0  0  -0.420545  0  3.965255  0  0  -0.422559  0  3.976667  0  0  -0.233609  -0.418817  0  3.957388  0
C  C113  1  0.73246995  0.35356685  0.10620681  1  0  -0.340406  0  3.737127  0  0  -0.420623  0  3.965208  0  0  -0.422638  0  3.97662  0  0  -0.233632  -0.418894  0  3.957323  0
C  C114  1  0.64643426  0.26752848  0.39379340  1  0  -0.340407  0  3.737213  0  0  -0.420647  0  3.965278  0  0  -0.422661  0  3.976687  0  0  -0.233625  -0.418917  0  3.957401  0
C  C115  1  0.26752891  0.64643393  0.89379308  1  0  -0.340361  0  3.737268  0  0  -0.420597  0  3.965331  0  0  -0.42261  0  3.976741  0  0  -0.233599  -0.418866  0  3.957466  0
N  N116  1  0.68332179  0.50052317  0.57898919  1  0  -0.298998  0  3.32923  0  0  -0.217681  0  3.610875  0  0  -0.236164  0  3.627533  0  0  -0.326778  -0.205144  0  3.599239  0
N  N117  1  0.50052340  0.68332218  0.07898872  1  0  -0.299036  0  3.329274  0  0  -0.217708  0  3.610911  0  0  -0.236193  0  3.627571  0  0  -0.326775  -0.205162  0  3.599261  0
N  N118  1  0.31667976  0.49947478  0.42101142  1  0  -0.299075  0  3.329336  0  0  -0.217726  0  3.610959  0  0  -0.236211  0  3.627617  0  0  -0.326815  -0.205188  0  3.599323  0
N  N119  1  0.49947427  0.31667955  0.92101191  1  0  -0.299097  0  3.329426  0  0  -0.217755  0  3.61105  0  0  -0.23624  0  3.627708  0  0  -0.326835  -0.205215  0  3.599408  0
O  O120  1  0.15442261  0.36780862  0.60553751  1  0  -0.627277  0  2.032249  0  0  -0.565837  0  2.285786  0  0  -0.593981  0  2.272114  0  0  -0.319337  -0.546291  0  2.294447  0
O  O121  1  0.36780857  0.15442195  0.10553799  1  0  -0.627266  0  2.032199  0  0  -0.56583  0  2.285733  0  0  -0.593975  0  2.272058  0  0  -0.31933  -0.546289  0  2.294392  0
O  O122  1  0.84556907  0.63219213  0.39446399  1  0  -0.627313  0  2.031733  0  0  -0.565911  0  2.285287  0  0  -0.59406  0  2.271617  0  0  -0.319337  -0.546354  0  2.29393  0
O  O123  1  0.63219265  0.84556842  0.89446439  1  0  -0.627311  0  2.031773  0  0  -0.565887  0  2.285295  0  0  -0.594036  0  2.271627  0  0  -0.31932  -0.546344  0  2.293948  0
O  O124  1  0.35905865  0.93305157  0.94918116  1  0  -0.633364  0  2.06263  0  0  -0.570723  0  2.322009  0  0  -0.599159  0  2.308498  0  0  -0.319852  -0.550861  0  2.330601  0
O  O125  1  0.93305083  0.35905857  0.44918025  1  0  -0.633292  0  2.062713  0  0  -0.570652  0  2.322088  0  0  -0.599088  0  2.308577  0  0  -0.319799  -0.550774  0  2.33067  0
O  O126  1  0.64094349  0.06694449  0.05082042  1  0  -0.633301  0  2.063228  0  0  -0.570629  0  2.322605  0  0  -0.599055  0  2.309078  0  0  -0.319755  -0.550753  0  2.331187  0
O  O127  1  0.06694235  0.64094314  0.55082070  1  0  -0.63328  0  2.063272  0  0  -0.57061  0  2.322662  0  0  -0.599035  0  2.309133  0  0  -0.319772  -0.550726  0  2.331242  0
O  O128  1  0.35592332  0.13876120  0.91057670  1  0  -0.639514  0  2.076157  0  0  -0.57471  0  2.336163  0  0  -0.603403  0  2.322246  0  0  -0.315921  -0.55462  0  2.345098  0
O  O129  1  0.13876103  0.35592290  0.41057582  1  0  -0.639502  0  2.076187  0  0  -0.574703  0  2.336191  0  0  -0.603396  0  2.322274  0  0  -0.315925  -0.554606  0  2.345119  0
O  O130  1  0.64407493  0.86123579  0.08942279  1  0  -0.639542  0  2.075746  0  0  -0.574801  0  2.33582  0  0  -0.6035  0  2.321902  0  0  -0.31595  -0.554706  0  2.344749  0
O  O131  1  0.86123513  0.64407503  0.58942393  1  0  -0.639576  0  2.075874  0  0  -0.574795  0  2.335917  0  0  -0.603494  0  2.321999  0  0  -0.315947  -0.554682  0  2.344836  0
O  O132  1  0.94968985  0.37133201  0.63634685  1  0  -0.646582  0  2.102688  0  0  -0.581088  0  2.366863  0  0  -0.610174  0  2.354171  0  0  -0.317212  -0.56079  0  2.375009  0
O  O133  1  0.37133123  0.94968996  0.13634671  1  0  -0.646582  0  2.102702  0  0  -0.581089  0  2.366869  0  0  -0.610175  0  2.354176  0  0  -0.31721  -0.5608  0  2.375017  0
O  O134  1  0.05030212  0.62866780  0.36365342  1  0  -0.646436  0  2.102842  0  0  -0.580932  0  2.367021  0  0  -0.610014  0  2.354331  0  0  -0.317163  -0.560638  0  2.375164  0
O  O135  1  0.62866880  0.05030135  0.86365434  1  0  -0.646476  0  2.102855  0  0  -0.580989  0  2.367051  0  0  -0.61007  0  2.354359  0  0  -0.317206  -0.560698  0  2.375194  0
