# generated using pymatgen
data_AgH2C7O3F5
_symmetry_space_group_name_H-M   'P 1'
_cell_length_a   3.53196355
_cell_length_b   13.64698149
_cell_length_c   18.38935206
_cell_angle_alpha   110.84299291
_cell_angle_beta   89.99963195
_cell_angle_gamma   90.00023873
_symmetry_Int_Tables_number   1
_chemical_formula_structural   AgH2C7O3F5
_chemical_formula_sum   'Ag4 H8 C28 O12 F20'
_cell_volume   828.37301806
_cell_formula_units_Z   4
loop_
 _symmetry_equiv_pos_site_id
 _symmetry_equiv_pos_as_xyz
  1  'x, y, z'
loop_
 _atom_site_type_symbol
 _atom_site_label
 _atom_site_symmetry_multiplicity
 _atom_site_fract_x
 _atom_site_fract_y
 _atom_site_fract_z
 _atom_site_occupancy
 _atom_site_hle17_bader_spin_density
 _atom_site_hle17_ddec_charge
 _atom_site_hle17_ddec_spin_density
 _atom_site_hle17_ddec_sum_bond_order
 _atom_site_hle17_magmom
 _atom_site_hse06_10hf_bader_spin_density
 _atom_site_hse06_10hf_ddec_charge
 _atom_site_hse06_10hf_ddec_spin_density
 _atom_site_hse06_10hf_ddec_sum_bond_order
 _atom_site_hse06_10hf_magmom
 _atom_site_hse06_bader_spin_density
 _atom_site_hse06_ddec_charge
 _atom_site_hse06_ddec_spin_density
 _atom_site_hse06_ddec_sum_bond_order
 _atom_site_hse06_magmom
 _atom_site_pbe_bader_spin_density
 _atom_site_pbe_cm5_charge
 _atom_site_pbe_ddec_charge
 _atom_site_pbe_ddec_spin_density
 _atom_site_pbe_ddec_sum_bond_order
 _atom_site_pbe_magmom
Ag  Ag0  1  0.36370897  0.16064913  0.97961467  1  0  0.564867  0  1.488598  0  0  0.451963  0  1.970721  0  0  0.487768  0  1.898076  0  0  0.404463  0.427323  0  2.020703  0
Ag  Ag1  1  0.86371175  0.33935142  0.02038445  1  0  0.564903  0  1.488605  0  0  0.451994  0  1.970757  0  0  0.48781  0  1.898091  0  0  0.404475  0.427355  0  2.020737  0
Ag  Ag2  1  0.63628703  0.83935155  0.02038565  1  0  0.564867  0  1.488622  0  0  0.45196  0  1.970741  0  0  0.487764  0  1.898099  0  0  0.404458  0.42732  0  2.020723  0
Ag  Ag3  1  0.13628425  0.66064848  0.97961512  1  0  0.564891  0  1.4886  0  0  0.451997  0  1.97073  0  0  0.487805  0  1.898079  0  0  0.404464  0.427358  0  2.020711  0
H  H4  1  0.73755111  0.94674014  0.90264610  1  0  0.435724  0  0.858367  0  0  0.401842  0  0.926163  0  0  0.412982  0  0.909917  0  0  0.288158  0.393986  0  0.937604  0
H  H5  1  0.23755057  0.55326073  0.09735422  1  0  0.435712  0  0.858381  0  0  0.401837  0  0.926167  0  0  0.412975  0  0.909922  0  0  0.288148  0.39398  0  0.937608  0
H  H6  1  0.26244772  0.05326132  0.09735388  1  0  0.435688  0  0.858423  0  0  0.401807  0  0.926216  0  0  0.412945  0  0.909972  0  0  0.288141  0.39395  0  0.937659  0
H  H7  1  0.76244826  0.44673916  0.90264589  1  0  0.435782  0  0.85831  0  0  0.401921  0  0.926063  0  0  0.413059  0  0.90982  0  0  0.288177  0.394065  0  0.937504  0
H  H8  1  0.87858771  0.02807868  0.86572847  1  0  0.428911  0  0.837653  0  0  0.397005  0  0.915489  0  0  0.406175  0  0.905294  0  0  0.297753  0.39056  0  0.922662  0
H  H9  1  0.37858416  0.47192108  0.13427151  1  0  0.428939  0  0.837637  0  0  0.397041  0  0.915455  0  0  0.406209  0  0.905262  0  0  0.29777  0.390595  0  0.92263  0
H  H10  1  0.12140829  0.97192121  0.13427109  1  0  0.428904  0  0.837683  0  0  0.397011  0  0.915492  0  0  0.40618  0  0.905298  0  0  0.297762  0.390566  0  0.922665  0
H  H11  1  0.62141184  0.52807881  0.86572860  1  0  0.428933  0  0.837655  0  0  0.397045  0  0.915457  0  0  0.406213  0  0.905264  0  0  0.297773  0.390599  0  0.922632  0
C  C12  1  0.59208424  0.20177331  0.26731528  1  0  0.215561  0  3.79572  0  0  0.176028  0  4.105615  0  0  0.187086  0  4.115269  0  0  0.088439  0.168296  0  4.099562  0
C  C13  1  0.09208059  0.29822708  0.73268468  1  0  0.215462  0  3.795888  0  0  0.175939  0  4.105788  0  0  0.186998  0  4.115442  0  0  0.088394  0.168206  0  4.099729  0
C  C14  1  0.40791459  0.79822658  0.73268429  1  0  0.215513  0  3.795737  0  0  0.175916  0  4.10572  0  0  0.186973  0  4.115372  0  0  0.088446  0.168185  0  4.099668  0
C  C15  1  0.90792957  0.70177359  0.26731727  1  0  0.215454  0  3.795865  0  0  0.175916  0  4.105812  0  0  0.186974  0  4.115466  0  0  0.088432  0.168184  0  4.099751  0
C  C16  1  0.50831044  0.28080515  0.23794865  1  0  -0.236795  0  3.757339  0  0  -0.242442  0  4.031406  0  0  -0.251468  0  4.048608  0  0  -0.03668  -0.236644  0  4.020167  0
C  C17  1  0.00831586  0.21919441  0.76205065  1  0  -0.23672  0  3.757277  0  0  -0.242379  0  4.031373  0  0  -0.251407  0  4.048576  0  0  -0.036657  -0.236589  0  4.020158  0
C  C18  1  0.49168556  0.71919631  0.76205133  1  0  -0.236751  0  3.757294  0  0  -0.242419  0  4.03142  0  0  -0.251445  0  4.048621  0  0  -0.036699  -0.236616  0  4.020164  0
C  C19  1  0.99168581  0.78080627  0.23794967  1  0  -0.236745  0  3.757251  0  0  -0.242412  0  4.03132  0  0  -0.251439  0  4.048519  0  0  -0.036664  -0.236626  0  4.020114  0
C  C20  1  0.38971340  0.37754329  0.29171199  1  0  0.231201  0  3.773946  0  0  0.191489  0  4.082642  0  0  0.202529  0  4.091763  0  0  0.094646  0.183814  0  4.076779  0
C  C21  1  0.88971522  0.12245570  0.70828723  1  0  0.231146  0  3.773846  0  0  0.191364  0  4.082703  0  0  0.202406  0  4.091822  0  0  0.094585  0.183691  0  4.076831  0
C  C22  1  0.61028827  0.62245739  0.70828833  1  0  0.231137  0  3.773931  0  0  0.191366  0  4.082698  0  0  0.202408  0  4.091814  0  0  0.094611  0.18369  0  4.076843  0
C  C23  1  0.11029210  0.87754498  0.29171309  1  0  0.231203  0  3.773945  0  0  0.191531  0  4.082671  0  0  0.202574  0  4.091787  0  0  0.09466  0.183856  0  4.0768  0
C  C24  1  0.55068759  0.26440642  0.15279297  1  0  0.698576  0  3.872396  0  0  0.637988  0  4.1712  0  0  0.675203  0  4.164336  0  0  0.214512  0.612718  0  4.175122  0
C  C25  1  0.05068760  0.23559316  0.84720737  1  0  0.698649  0  3.87238  0  0  0.638107  0  4.171139  0  0  0.675322  0  4.164272  0  0  0.214559  0.612835  0  4.175058  0
C  C26  1  0.44930841  0.73559425  0.84720789  1  0  0.698656  0  3.872543  0  0  0.638092  0  4.171323  0  0  0.675308  0  4.164455  0  0  0.214546  0.612822  0  4.175249  0
C  C27  1  0.94930274  0.76440595  0.15279307  1  0  0.698686  0  3.872315  0  0  0.638097  0  4.17115  0  0  0.675314  0  4.16428  0  0  0.214541  0.612826  0  4.175067  0
C  C28  1  0.34813194  0.39400095  0.37064490  1  0  0.098959  0  3.828499  0  0  0.056367  0  4.149292  0  0  0.061619  0  4.159072  0  0  0.075537  0.052596  0  4.143063  0
C  C29  1  0.84812481  0.10599645  0.62935341  1  0  0.099021  0  3.828369  0  0  0.056346  0  4.149284  0  0  0.061595  0  4.159067  0  0  0.075487  0.052577  0  4.143053  0
C  C30  1  0.65187821  0.60599816  0.62935337  1  0  0.098978  0  3.82851  0  0  0.056416  0  4.149261  0  0  0.061679  0  4.159033  0  0  0.075567  0.052644  0  4.143031  0
C  C31  1  0.15187685  0.89400267  0.37064541  1  0  0.098933  0  3.828394  0  0  0.056231  0  4.149286  0  0  0.061477  0  4.15907  0  0  0.075468  0.052463  0  4.143054  0
C  C32  1  0.43566005  0.31351013  0.39800781  1  0  0.143489  0  3.831016  0  0  0.105719  0  4.144198  0  0  0.114943  0  4.152295  0  0  0.085876  0.099278  0  4.139102  0
C  C33  1  0.93566079  0.18648653  0.60198965  1  0  0.143607  0  3.83101  0  0  0.105925  0  4.144099  0  0  0.115149  0  4.152198  0  0  0.085999  0.099484  0  4.139001  0
C  C34  1  0.56433878  0.68648898  0.60198992  1  0  0.14351  0  3.831034  0  0  0.10576  0  4.144168  0  0  0.114986  0  4.15226  0  0  0.085925  0.099319  0  4.139072  0
C  C35  1  0.06433521  0.81351179  0.39801058  1  0  0.14372  0  3.830867  0  0  0.106061  0  4.14397  0  0  0.115286  0  4.152068  0  0  0.08605  0.09962  0  4.138872  0
C  C36  1  0.56266316  0.21716326  0.34619987  1  0  0.100577  0  3.834793  0  0  0.05722  0  4.156745  0  0  0.062607  0  4.165559  0  0  0.07455  0.053115  0  4.151409  0
C  C37  1  0.06266188  0.28283476  0.65379895  1  0  0.10046  0  3.834982  0  0  0.057103  0  4.156898  0  0  0.062487  0  4.165713  0  0  0.074493  0.052999  0  4.151561  0
C  C38  1  0.43733284  0.78283664  0.65379915  1  0  0.100654  0  3.834816  0  0  0.057278  0  4.156802  0  0  0.062665  0  4.165615  0  0  0.07455  0.053171  0  4.151466  0
C  C39  1  0.93734544  0.71716277  0.34620271  1  0  0.10051  0  3.834981  0  0  0.05707  0  4.156983  0  0  0.062456  0  4.165799  0  0  0.07445  0.052966  0  4.151644  0
O  O40  1  0.41708782  0.17992735  0.10406973  1  0  -0.602678  0  2.124318  0  0  -0.521692  0  2.384236  0  0  -0.554782  0  2.37206  0  0  -0.304263  -0.498937  0  2.391961  0
O  O41  1  0.91708938  0.32007165  0.89593054  1  0  -0.602745  0  2.124345  0  0  -0.521798  0  2.38427  0  0  -0.554888  0  2.372093  0  0  -0.304285  -0.499042  0  2.391998  0
O  O42  1  0.58290818  0.82007097  0.89593105  1  0  -0.602709  0  2.12443  0  0  -0.521754  0  2.384368  0  0  -0.554842  0  2.372189  0  0  -0.304264  -0.499  0  2.392095  0
O  O43  1  0.08291228  0.67992903  0.10406923  1  0  -0.602699  0  2.124302  0  0  -0.521753  0  2.384277  0  0  -0.554842  0  2.372096  0  0  -0.304263  -0.498997  0  2.392005  0
O  O44  1  0.81938180  0.02026735  0.91517054  1  0  -0.817973  0  1.89326  0  0  -0.750276  0  2.11931  0  0  -0.773848  0  2.085746  0  0  -0.594376  -0.733697  0  2.142562  0
O  O45  1  0.31938002  0.47973316  0.08482972  1  0  -0.81802  0  1.893275  0  0  -0.75032  0  2.119311  0  0  -0.773894  0  2.085749  0  0  -0.59439  -0.733741  0  2.142563  0
O  O46  1  0.18061704  0.97973332  0.08482924  1  0  -0.817971  0  1.89333  0  0  -0.750255  0  2.119351  0  0  -0.773827  0  2.08579  0  0  -0.594366  -0.733676  0  2.142604  0
O  O47  1  0.68061598  0.52026595  0.91517018  1  0  -0.818091  0  1.893255  0  0  -0.750394  0  2.119285  0  0  -0.773967  0  2.08572  0  0  -0.594412  -0.733817  0  2.142543  0
O  O48  1  0.71504742  0.33748281  0.13812812  1  0  -0.586678  0  2.100093  0  0  -0.518349  0  2.367789  0  0  -0.549898  0  2.356686  0  0  -0.308393  -0.496655  0  2.374791  0
O  O49  1  0.21504577  0.16251765  0.86187116  1  0  -0.586688  0  2.100149  0  0  -0.518381  0  2.367846  0  0  -0.549929  0  2.35674  0  0  -0.308416  -0.496691  0  2.374868  0
O  O50  1  0.28495141  0.66251786  0.86187220  1  0  -0.586704  0  2.100143  0  0  -0.518381  0  2.367831  0  0  -0.549929  0  2.356724  0  0  -0.308413  -0.496686  0  2.374831  0
O  O51  1  0.78495023  0.83748146  0.13812765  1  0  -0.586741  0  2.100127  0  0  -0.518403  0  2.367821  0  0  -0.549952  0  2.356714  0  0  -0.308435  -0.496711  0  2.374843  0
F  F52  1  0.29907929  0.45758234  0.26830987  1  0  -0.149595  0  1.272834  0  0  -0.098263  0  1.444841  0  0  -0.105681  0  1.433674  0  0  -0.077482  -0.092897  0  1.452478  0
F  F53  1  0.79909038  0.04241661  0.73168673  1  0  -0.149624  0  1.272922  0  0  -0.098204  0  1.444906  0  0  -0.105622  0  1.433739  0  0  -0.077453  -0.092836  0  1.452543  0
F  F54  1  0.70090821  0.54241756  0.73168861  1  0  -0.149581  0  1.272905  0  0  -0.09819  0  1.444887  0  0  -0.105608  0  1.433719  0  0  -0.077457  -0.092825  0  1.452524  0
F  F55  1  0.20092544  0.95758407  0.26831250  1  0  -0.149629  0  1.27288  0  0  -0.098277  0  1.444858  0  0  -0.105696  0  1.43369  0  0  -0.077492  -0.092909  0  1.452496  0
F  F56  1  0.71661275  0.10715651  0.21951617  1  0  -0.158341  0  1.281769  0  0  -0.102757  0  1.456507  0  0  -0.112457  0  1.447666  0  0  -0.07186  -0.09582  0  1.462541  0
F  F57  1  0.21662034  0.39284081  0.78048282  1  0  -0.158306  0  1.281835  0  0  -0.102719  0  1.456563  0  0  -0.112418  0  1.44772  0  0  -0.071841  -0.09578  0  1.462595  0
F  F58  1  0.28338608  0.89284416  0.78048415  1  0  -0.15847  0  1.281846  0  0  -0.102766  0  1.456517  0  0  -0.11247  0  1.447683  0  0  -0.071909  -0.095831  0  1.462553  0
F  F59  1  0.78338132  0.60716065  0.21951879  1  0  -0.1584  0  1.281904  0  0  -0.102734  0  1.45657  0  0  -0.112437  0  1.447734  0  0  -0.071878  -0.095797  0  1.462604  0
F  F60  1  0.65893716  0.14064079  0.37269532  1  0  -0.122594  0  1.283528  0  0  -0.080996  0  1.457812  0  0  -0.087655  0  1.447371  0  0  -0.077872  -0.076146  0  1.464998  0
F  F61  1  0.15893517  0.35935963  0.62730620  1  0  -0.122548  0  1.283599  0  0  -0.080977  0  1.457904  0  0  -0.087634  0  1.447461  0  0  -0.077871  -0.076127  0  1.46509  0
F  F62  1  0.34107017  0.85935988  0.62730554  1  0  -0.122563  0  1.283589  0  0  -0.080985  0  1.457909  0  0  -0.087643  0  1.447468  0  0  -0.077857  -0.076134  0  1.465096  0
F  F63  1  0.84106083  0.64064026  0.37269500  1  0  -0.122542  0  1.283627  0  0  -0.080919  0  1.457926  0  0  -0.087577  0  1.447485  0  0  -0.07783  -0.076068  0  1.465111  0
F  F64  1  0.39544049  0.32862952  0.47374765  1  0  -0.118705  0  1.274994  0  0  -0.076906  0  1.443323  0  0  -0.083724  0  1.43213  0  0  -0.073279  -0.07192  0  1.450903  0
F  F65  1  0.89543785  0.17136947  0.52625156  1  0  -0.118755  0  1.275028  0  0  -0.076971  0  1.443325  0  0  -0.08379  0  1.432134  0  0  -0.073325  -0.071986  0  1.450905  0
F  F66  1  0.60455551  0.67136959  0.52625116  1  0  -0.118762  0  1.275056  0  0  -0.076963  0  1.443368  0  0  -0.083781  0  1.432175  0  0  -0.073335  -0.071977  0  1.450948  0
F  F67  1  0.10456664  0.82863042  0.47374964  1  0  -0.118821  0  1.274963  0  0  -0.077044  0  1.443253  0  0  -0.083863  0  1.432062  0  0  -0.073363  -0.072058  0  1.450833  0
F  F68  1  0.22006994  0.48611712  0.42065516  1  0  -0.124464  0  1.277932  0  0  -0.083933  0  1.450899  0  0  -0.091392  0  1.441338  0  0  -0.079724  -0.078959  0  1.457662  0
F  F69  1  0.72007432  0.01387628  0.57934713  1  0  -0.124474  0  1.277936  0  0  -0.083923  0  1.450941  0  0  -0.091377  0  1.441377  0  0  -0.079681  -0.078949  0  1.457704  0
F  F70  1  0.77992606  0.51388199  0.57934365  1  0  -0.124447  0  1.278053  0  0  -0.083912  0  1.45099  0  0  -0.091391  0  1.441439  0  0  -0.079707  -0.078939  0  1.457753  0
F  F71  1  0.27992451  0.98612205  0.42065256  1  0  -0.124451  0  1.277912  0  0  -0.083903  0  1.450926  0  0  -0.091358  0  1.441364  0  0  -0.079679  -0.07893  0  1.457688  0
