# generated using pymatgen
data_CoH24C30(N2O7)2
_symmetry_space_group_name_H-M   'P 1'
_cell_length_a   7.67505648
_cell_length_b   9.39053491
_cell_length_c   10.64947748
_cell_angle_alpha   113.36305182
_cell_angle_beta   91.35221916
_cell_angle_gamma   99.90606821
_symmetry_Int_Tables_number   1
_chemical_formula_structural   CoH24C30(N2O7)2
_chemical_formula_sum   'Co1 H24 C30 N4 O14'
_cell_volume   690.51651558
_cell_formula_units_Z   1
loop_
 _symmetry_equiv_pos_site_id
 _symmetry_equiv_pos_as_xyz
  1  'x, y, z'
loop_
 _atom_site_type_symbol
 _atom_site_label
 _atom_site_symmetry_multiplicity
 _atom_site_fract_x
 _atom_site_fract_y
 _atom_site_fract_z
 _atom_site_occupancy
 _atom_site_pbe_cm5_charge
 _atom_site_pbe_ddec_charge
 _atom_site_pbe_ddec_spin_density
 _atom_site_pbe_ddec_sum_bond_order
 _atom_site_pbe_magmom
Co  Co0  1  0.99999973  0.49999827  0.50000041  1  0.611717  0.902089  0.824196  2.780178  0.638
H  H1  1  0.94332603  0.23372050  0.96383633  1  0.105635  0.111268  1.7e-05  1.022251  0.0
H  H2  1  0.05666924  0.76628590  0.03616803  1  0.105592  0.111239  1.7e-05  1.022304  0.0
H  H3  1  0.40975464  0.61991006  0.21578005  1  0.113254  0.130405  -3.1e-05  1.026947  0.0
H  H4  1  0.59024596  0.38008550  0.78421419  1  0.113243  0.130409  -3.1e-05  1.026998  0.0
H  H5  1  0.62165957  0.95652196  0.04627386  1  0.10776  0.113402  -0.000102  1.021913  0.0
H  H6  1  0.37833849  0.04347962  0.95372706  1  0.107754  0.113391  -0.000102  1.021883  0.0
H  H7  1  0.40362793  0.60075924  0.63134585  1  0.136999  0.145505  0.000171  0.982965  0.0
H  H8  1  0.59637375  0.39923043  0.36865204  1  0.137  0.145545  0.000171  0.982992  0.0
H  H9  1  0.57029618  0.77409249  0.85598360  1  0.105951  0.111881  -7.4e-05  1.050987  0.0
H  H10  1  0.42970708  0.22589833  0.14401473  1  0.105994  0.111991  -7.4e-05  1.050912  0.0
H  H11  1  0.57210930  0.81345395  0.44307049  1  0.134604  0.131172  6e-06  0.993272  0.0
H  H12  1  0.42789027  0.18654282  0.55692507  1  0.134592  0.131169  6e-06  0.99323  0.0
H  H13  1  0.77334742  0.13303340  0.27895430  1  0.130371  0.121757  4.2e-05  1.044346  0.0
H  H14  1  0.22664805  0.86696822  0.72104562  1  0.130381  0.121788  4.2e-05  1.044346  0.0
H  H15  1  0.21929416  0.50933589  0.03800361  1  0.108099  0.127075  9.8e-05  1.036578  0.0
H  H16  1  0.78070463  0.49066331  0.96199651  1  0.108083  0.127057  9.8e-05  1.036638  0.0
H  H17  1  0.06517283  0.34726422  0.80062315  1  0.127832  0.123499  -2.6e-05  1.006897  0.0
H  H18  1  0.93482349  0.65273028  0.19937719  1  0.127854  0.123547  -2.6e-05  1.006828  0.0
H  H19  1  0.78776894  0.26924175  0.51177890  1  0.295599  0.375211  -7.1e-05  0.969112  0.0
H  H20  1  0.21222881  0.73075867  0.48822350  1  0.295606  0.375193  -7.1e-05  0.969132  0.0
H  H21  1  0.78494288  0.43935281  0.63509136  1  0.293105  0.367868  -0.000143  0.983341  0.0
H  H22  1  0.21505586  0.56064642  0.36491159  1  0.293113  0.36787  -0.000143  0.983356  0.0
H  H23  1  0.83911109  0.05116046  0.60193921  1  0.303566  0.358624  0.000125  0.988505  0.0
H  H24  1  0.16089333  0.94884575  0.39806158  1  0.303647  0.358854  0.000125  0.988337  0.0
C  C25  1  0.92397000  0.98107200  0.87187385  1  -0.007716  -0.056074  -0.000766  3.967383  0.0
C  C26  1  0.07603949  0.01893887  0.12812678  1  -0.007711  -0.056238  -0.000766  3.967621  0.0
C  C27  1  0.95563153  0.84818472  0.89218266  1  -0.004301  -0.03961  -0.000922  3.949056  0.0
C  C28  1  0.04436710  0.15181923  0.10781908  1  -0.004296  -0.039499  -0.000922  3.949271  0.0
C  C29  1  0.96987509  0.13132653  0.97939786  1  -0.079266  -0.119651  0.000136  3.944403  0.0
C  C30  1  0.03012989  0.86868207  0.02060470  1  -0.079215  -0.119486  0.000136  3.944197  0.0
C  C31  1  0.83111335  0.96131492  0.73877058  1  0.229684  0.584125  -2e-05  4.139156  0.0
C  C32  1  0.16887486  0.03867252  0.26122056  1  0.229561  0.583941  -2e-05  4.138945  0.0
C  C33  1  0.92196454  0.68641651  0.77598588  1  0.220698  0.570809  -0.003918  4.169344  -0.002
C  C34  1  0.07803379  0.31358627  0.22401639  1  0.220674  0.570767  -0.003918  4.169346  -0.002
C  C35  1  0.37019662  0.58915497  0.72584711  1  0.035889  -0.039477  0.017646  3.84166  0.017
C  C36  1  0.62980535  0.41083588  0.27415119  1  0.035937  -0.039503  0.017645  3.841753  0.017
C  C37  1  0.17665124  0.44549206  0.82373208  1  0.029689  -0.047469  0.015984  3.880453  0.015
C  C38  1  0.82334669  0.55450359  0.17626681  1  0.02971  -0.047486  0.015982  3.880434  0.015
C  C39  1  0.45787843  0.68471904  0.85349227  1  -0.081411  -0.143394  -0.005065  3.989619  -0.005
C  C40  1  0.54212644  0.31527294  0.14650555  1  -0.081495  -0.14354  -0.005064  3.989766  -0.005
C  C41  1  0.26444959  0.53753197  0.95262379  1  -0.085575  -0.159449  -0.002207  3.977396  -0.003
C  C42  1  0.73554763  0.46246606  0.04737496  1  -0.085537  -0.159384  -0.002206  3.977492  -0.003
C  C43  1  0.40734556  0.66395042  0.97255468  1  -0.011686  0.05728  0.026894  4.006521  0.028
C  C44  1  0.59265856  0.33604396  0.02744488  1  -0.011651  0.057275  0.026891  4.006503  0.028
C  C45  1  0.49799628  0.76999932  0.10796580  1  -0.000117  0.082108  0.002233  4.000227  0.0
C  C46  1  0.50200355  0.22999866  0.89203206  1  -0.000127  0.082184  0.002234  4.000179  0.0
C  C47  1  0.60417133  0.91735937  0.12938857  1  -0.082057  -0.150497  0.00894  3.979003  0.009
C  C48  1  0.39582284  0.08264227  0.87061133  1  -0.082021  -0.150428  0.008937  3.978992  0.009
C  C49  1  0.48600937  0.73283783  0.22393163  1  -0.08053  -0.153453  0.008897  3.948624  0.009
C  C50  1  0.51398912  0.26716020  0.77606903  1  -0.08053  -0.153503  0.008897  3.948853  0.009
C  C51  1  0.68913854  0.01840745  0.25665979  1  0.03973  -0.027466  -0.002887  3.86455  -0.003
C  C52  1  0.31085820  0.98159416  0.74334205  1  0.039708  -0.027591  -0.002885  3.864597  -0.003
C  C53  1  0.57376328  0.83631265  0.35051908  1  0.042949  -0.026062  -0.002257  3.842804  -0.002
C  C54  1  0.42623611  0.16368889  0.64947998  1  0.042973  -0.026049  -0.002256  3.842715  -0.002
N  N55  1  0.22765750  0.47201432  0.71120789  1  -0.119335  0.310883  0.011409  3.964943  0.016
N  N56  1  0.77234402  0.52798009  0.28879162  1  -0.119442  0.310771  0.011407  3.964936  0.016
N  N57  1  0.67295475  0.97824213  0.36576029  1  -0.111896  0.327492  0.013195  3.916392  0.019
N  N58  1  0.32704076  0.02175946  0.63423775  1  -0.111902  0.327545  0.013195  3.91602  0.019
O  O59  1  0.90928919  0.06500815  0.69140325  1  -0.328584  -0.480712  6.4e-05  2.317117  0.0
O  O60  1  0.09071593  0.93500637  0.30860038  1  -0.32846  -0.48064  6.4e-05  2.317646  0.0
O  O61  1  0.69449918  0.86154620  0.68448850  1  -0.284808  -0.486809  -0.000408  2.122749  0.0
O  O62  1  0.30552897  0.13847749  0.31552073  1  -0.284889  -0.48693  -0.000408  2.121563  0.0
O  O63  1  0.00256473  0.68027888  0.66990288  1  -0.292795  -0.503072  -0.002486  2.438013  -0.002
O  O64  1  0.99743560  0.31972151  0.33010051  1  -0.292749  -0.502956  -0.002485  2.43781  -0.002
O  O65  1  0.82651580  0.57168724  0.79090402  1  -0.302778  -0.535523  -0.001349  2.220227  -0.001
O  O66  1  0.17348148  0.42831677  0.20910146  1  -0.302744  -0.535506  -0.001349  2.220258  -0.001
O  O67  1  0.13885029  0.38550396  0.59005985  1  -0.215341  -0.444122  0.000427  2.093435  0.003
O  O68  1  0.86115212  0.61449399  0.40993900  1  -0.215341  -0.444077  0.000432  2.09344  0.003
O  O69  1  0.75243097  0.08193569  0.48764171  1  -0.221711  -0.471864  0.00778  2.077155  0.01
O  O70  1  0.24755903  0.91806482  0.51235770  1  -0.221726  -0.471935  0.007779  2.076962  0.01
O  O71  1  0.78217566  0.38267283  0.53191448  1  -0.557396  -0.716779  -0.003432  2.277887  -0.003
O  O72  1  0.21782495  0.61732874  0.46808932  1  -0.557411  -0.716757  -0.003432  2.277954  -0.003
