# generated using pymatgen
data_Zn2H23C45Br(NO9)2
_symmetry_space_group_name_H-M   'P 1'
_cell_length_a   16.51961093
_cell_length_b   17.90884582
_cell_length_c   33.20821511
_cell_angle_alpha   90.27187529
_cell_angle_beta   89.78056832
_cell_angle_gamma   89.97570117
_symmetry_Int_Tables_number   1
_chemical_formula_structural   Zn2H23C45Br(NO9)2
_chemical_formula_sum   'Zn4 H46 C90 Br2 N4 O36'
_cell_volume   9824.37268616
_cell_formula_units_Z   2
loop_
 _symmetry_equiv_pos_site_id
 _symmetry_equiv_pos_as_xyz
  1  'x, y, z'
loop_
 _atom_site_type_symbol
 _atom_site_label
 _atom_site_symmetry_multiplicity
 _atom_site_fract_x
 _atom_site_fract_y
 _atom_site_fract_z
 _atom_site_occupancy
 _atom_site_pbe_bader_charge
 _atom_site_pbe_bader_spin_density
 _atom_site_pbe_cm5_charge
 _atom_site_pbe_ddec_charge
 _atom_site_pbe_ddec_spin_density
 _atom_site_pbe_ddec_sum_bond_order
 _atom_site_pbe_magmom
Zn  Zn0  1  0.58423223  0.49995711  0.50040435  1  1.260721  0  0.668127  0.817005  0  2.437734  0
Zn  Zn1  1  0.41545222  0.49995442  0.50067912  1  1.281772  0  0.667395  0.817376  0  2.436889  0
Zn  Zn2  1  0.41582563  0.50222175  0.96167872  1  1.254908  0  0.667887  0.816707  0  2.436138  0
Zn  Zn3  1  0.58449125  0.50210383  0.96143636  1  1.278814  0  0.667213  0.816571  0  2.436067  0
H  H4  1  0.28670300  0.58225495  0.54469274  1  0.171188  0  0.137973  0.141485  0  0.952873  0
H  H5  1  0.28773435  0.41794409  0.45554844  1  0.135416  0  0.138874  0.138123  0  0.955193  0
H  H6  1  0.71233650  0.58190793  0.54501154  1  0.152491  0  0.138997  0.138483  0  0.95563  0
H  H7  1  0.71267969  0.41795979  0.45563216  1  0.13693  0  0.138834  0.142228  0  0.951291  0
H  H8  1  0.63054085  0.73778701  0.50027599  1  0.121664  0  0.111353  0.141443  0  0.989601  0
H  H9  1  0.36946335  0.73784841  0.50016466  1  0.12164  0  0.111063  0.140899  0  0.990027  0
H  H10  1  0.63068575  0.26200997  0.49987065  1  0.125339  0  0.111478  0.141289  0  0.989703  0
H  H11  1  0.36960560  0.26227076  0.49982934  1  0.123665  0  0.111136  0.140909  0  0.990482  0
H  H12  1  0.36928123  0.50034003  0.62929758  1  0.104077  0  0.105219  0.113837  0  1.002378  0
H  H13  1  0.29413414  0.50076619  0.69405226  1  0.114254  0  0.106256  0.123918  0  0.988072  0
H  H14  1  0.62862678  0.50015004  0.62784119  1  0.152264  0  0.094019  0.104347  0  1.049914  0
H  H15  1  0.63075116  0.50100679  0.83274683  1  0.103001  0  0.105059  0.113842  0  1.002183  0
H  H16  1  0.70591446  0.50087991  0.76796181  1  0.113109  0  0.106244  0.124085  0  0.987892  0
H  H17  1  0.37140867  0.50115434  0.83419829  1  0.118964  0  0.093874  0.10457  0  1.049769  0
H  H18  1  0.36929722  0.50235681  0.09002021  1  0.131042  0  0.11171  0.14146  0  0.990294  0
H  H19  1  0.63041908  0.50250383  0.08951225  1  0.128287  0  0.111415  0.141639  0  0.990104  0
H  H20  1  0.36953523  0.50025561  0.37261644  1  0.12487  0  0.111314  0.141065  0  0.989936  0
H  H21  1  0.63064247  0.50046686  0.37214147  1  0.131934  0  0.111609  0.141684  0  0.989908  0
H  H22  1  0.71287251  0.58441809  0.91767063  1  0.151241  0  0.138188  0.137784  0  0.957526  0
H  H23  1  0.71259292  0.42084327  0.00636338  1  0.15236  0  0.138766  0.13859  0  0.955918  0
H  H24  1  0.28778369  0.58407331  0.91732316  1  0.154642  0  0.138954  0.138669  0  0.955339  0
H  H25  1  0.28720706  0.42075153  0.00619373  1  0.125465  0  0.138534  0.138078  0  0.95678  0
H  H26  1  0.36947829  0.74022515  0.96118704  1  0.100087  0  0.111414  0.141225  0  0.990299  0
H  H27  1  0.63056561  0.73993538  0.96130505  1  0.095866  0  0.111377  0.141402  0  0.99052  0
H  H28  1  0.36946853  0.26437623  0.96184204  1  0.139952  0  0.111547  0.14191  0  0.989738  0
H  H29  1  0.63053405  0.26435719  0.96184901  1  0.140008  0  0.11129  0.141542  0  0.990197  0
H  H30  1  0.07236971  0.40896632  0.45074270  1  0.575408  0  0.32686  0.346368  0  0.910937  0
H  H31  1  0.07123508  0.59130995  0.54913498  1  0.615017  0  0.326286  0.346592  0  0.910345  0
H  H32  1  0.92811305  0.40899775  0.45077855  1  0.568645  0  0.326761  0.346561  0  0.910299  0
H  H33  1  0.92764668  0.59113494  0.54928616  1  0.575663  0  0.326508  0.345832  0  0.911304  0
H  H34  1  0.36401132  0.93607717  0.49978817  1  0.609992  0  0.315698  0.338347  0  0.929801  0
H  H35  1  0.63596315  0.93599310  0.49995644  1  0.611072  0  0.315348  0.337478  0  0.930737  0
H  H36  1  0.36402240  0.06405734  0.50006722  1  0.612023  0  0.315355  0.337995  0  0.929987  0
H  H37  1  0.63597449  0.06377386  0.50013956  1  0.607682  0  0.315686  0.338212  0  0.930188  0
H  H38  1  0.63581989  0.50201526  0.19642242  1  0.596363  0  0.315228  0.337825  0  0.931162  0
H  H39  1  0.36391078  0.50184686  0.19694850  1  0.578398  0  0.315357  0.33811  0  0.931174  0
H  H40  1  0.63611635  0.50149055  0.26522812  1  0.583631  0  0.315087  0.337751  0  0.930341  0
H  H41  1  0.36415050  0.50115459  0.26571293  1  0.599982  0  0.315126  0.337677  0  0.931083  0
H  H42  1  0.92793721  0.41262661  0.01120475  1  0.571174  0  0.326728  0.346124  0  0.910885  0
H  H43  1  0.92830923  0.59386746  0.91312246  1  0.569669  0  0.326775  0.346901  0  0.909995  0
H  H44  1  0.07185998  0.41227012  0.01112648  1  0.569152  0  0.326808  0.346531  0  0.910938  0
H  H45  1  0.07247617  0.59340372  0.91294389  1  0.573633  0  0.326682  0.346545  0  0.910969  0
H  H46  1  0.63611673  0.93819289  0.96104866  1  0.573917  0  0.315323  0.338133  0  0.930255  0
H  H47  1  0.36425193  0.93848637  0.96088316  1  0.567852  0  0.315333  0.337837  0  0.931444  0
H  H48  1  0.63612290  0.06615914  0.96137376  1  0.585021  0  0.315004  0.337111  0  0.930849  0
H  H49  1  0.36397663  0.06620138  0.96131048  1  0.586116  0  0.315144  0.337057  0  0.931141  0
C  C50  1  0.50007848  0.64633907  0.50094908  1  1.613817  0  0.216873  0.593499  0  4.160149  0
C  C51  1  0.49853482  0.50053696  0.57946674  1  1.517069  0  0.21638  0.596301  0  4.160099  0
C  C52  1  0.50025908  0.35361024  0.49973599  1  1.61285  0  0.216205  0.591766  0  4.15923  0
C  C53  1  0.50006530  0.49954477  0.42164892  1  1.578328  0  0.216615  0.592124  0  4.160085  0
C  C54  1  0.49990291  0.64857894  0.96108732  1  1.563876  0  0.21669  0.593386  0  4.157044  0
C  C55  1  0.50145751  0.50195009  0.88258825  1  1.509172  0  0.215973  0.596388  0  4.161307  0
C  C56  1  0.49993205  0.35581416  0.96204282  1  1.539723  0  0.217702  0.593459  0  4.158514  0
C  C57  1  0.49988675  0.50195494  0.04047709  1  1.585875  0  0.216473  0.591815  0  4.159527  0
C  C58  1  0.25087554  0.54618774  0.52515872  1  0.583733  0  0.041317  -0.050561  0  3.898927  0
C  C59  1  0.16652396  0.54796452  0.52600745  1  0.49333  0  0.101224  0.25942  0  4.07119  0
C  C60  1  0.12242663  0.50004848  0.50002849  1  0.169114  0  -0.024494  -0.110785  0  4.153449  0
C  C61  1  0.16712290  0.45216209  0.47409949  1  0.514233  0  0.101751  0.260261  0  4.066764  0
C  C62  1  0.25149080  0.45392954  0.47508937  1  0.597283  0  0.042683  -0.044726  0  3.89388  0
C  C63  1  0.03702656  0.50002262  0.50000401  1  -0.398612  0  -0.040849  -0.102664  0  4.203021  0
C  C64  1  0.96264965  0.50000099  0.50003542  1  -0.17024  0  -0.040146  -0.102947  0  4.204578  0
C  C65  1  0.87725426  0.49998915  0.50011306  1  0.170129  0  -0.024313  -0.110323  0  4.152791  0
C  C66  1  0.83275036  0.54779246  0.52617015  1  0.512355  0  0.101397  0.260511  0  4.066379  0
C  C67  1  0.74839372  0.54598660  0.52535963  1  0.574886  0  0.042313  -0.045363  0  3.893983  0
C  C68  1  0.74861012  0.45390697  0.47517779  1  0.600285  0  0.042141  -0.048751  0  3.894948  0
C  C69  1  0.83297282  0.45216916  0.47415960  1  0.509575  0  0.10152  0.260095  0  4.067459  0
C  C70  1  0.50000395  0.73023274  0.50049015  1  0.080243  0  -0.01046  0.021468  0  4.007403  0
C  C71  1  0.57377145  0.76858265  0.50031710  1  0.044234  0  -0.108593  -0.24745  0  3.967131  0
C  C72  1  0.57384086  0.84614160  0.50012154  1  0.40237  0  0.086188  0.29802  0  4.070261  0
C  C73  1  0.49998215  0.88680407  0.50004881  1  0.074985  0  -0.041299  -0.135492  0  4.156876  0
C  C74  1  0.42613941  0.84618085  0.50005580  1  0.403873  0  0.085975  0.29766  0  4.069809  0
C  C75  1  0.42622676  0.76861690  0.50026285  1  0.042963  0  -0.108998  -0.247634  0  3.967401  0
C  C76  1  0.49998465  0.96558151  0.49998029  1  -0.121398  0  -0.054661  -0.121616  0  4.239771  0
C  C77  1  0.49998538  0.03437728  0.49993417  1  -0.357619  0  -0.055004  -0.122825  0  4.240082  0
C  C78  1  0.50003816  0.11315526  0.49984239  1  0.077928  0  -0.040788  -0.134023  0  4.156017  0
C  C79  1  0.57392757  0.15371650  0.49981951  1  0.398549  0  0.086087  0.297442  0  4.070142  0
C  C80  1  0.57390482  0.23127216  0.49972768  1  0.040075  0  -0.109072  -0.247697  0  3.967462  0
C  C81  1  0.50016125  0.26971563  0.49967362  1  0.077856  0  -0.010178  0.022489  0  4.006178  0
C  C82  1  0.42635334  0.23143208  0.49971710  1  0.045487  0  -0.108764  -0.247738  0  3.968253  0
C  C83  1  0.42621691  0.15387192  0.49979020  1  0.40149  0  0.085479  0.297207  0  4.070661  0
C  C84  1  0.42595326  0.50051068  0.64601204  1  -0.064768  0  -0.07906  -0.137246  0  3.922846  0
C  C85  1  0.42540492  0.50061486  0.68823041  1  0.040026  0  -0.006667  0.089198  0  4.044099  0
C  C86  1  0.35102509  0.50075302  0.71057594  1  0.055995  0  -0.096858  -0.192695  0  3.994852  0
C  C87  1  0.57267470  0.50042551  0.64524746  1  0.00619  0  -0.085706  -0.132335  0  3.93471  0
C  C88  1  0.57508714  0.50057970  0.68741048  1  -0.064  0  -0.012764  0.028877  0  4.022027  0
C  C89  1  0.64877600  0.50068910  0.71038191  1  -0.188391  0  -0.014148  0.075121  0  3.962255  0
C  C90  1  0.57408682  0.50112372  0.81603093  1  -0.065682  0  -0.078753  -0.136965  0  3.923234  0
C  C91  1  0.57465037  0.50091624  0.77380958  1  0.041389  0  -0.005881  0.089648  0  4.043655  0
C  C92  1  0.64901809  0.50081045  0.75144818  1  0.057103  0  -0.097465  -0.193421  0  3.995385  0
C  C93  1  0.42735329  0.50122339  0.81678623  1  0.040735  0  -0.085969  -0.133617  0  3.934365  0
C  C94  1  0.42494874  0.50101504  0.77462698  1  -0.063107  0  -0.011911  0.030601  0  4.021055  0
C  C95  1  0.35127198  0.50095534  0.75164330  1  -0.181991  0  -0.01483  0.07435  0  3.962977  0
C  C96  1  0.49896950  0.50048864  0.62469062  1  0.040523  0  -0.016456  -0.019146  0  3.989447  0
C  C97  1  0.50036613  0.50068869  0.70961283  1  -0.002501  0  0.006214  0.010841  0  3.909649  0
C  C98  1  0.50106620  0.50138530  0.83735051  1  0.039793  0  -0.016436  -0.018827  0  3.989244  0
C  C99  1  0.49967703  0.50088595  0.75242156  1  -0.005047  0  0.00577  0.010348  0  3.909461  0
C  C100  1  0.49985465  0.50200596  0.08570344  1  -0.049458  0  -0.010558  0.022731  0  4.007916  0
C  C101  1  0.42606190  0.50201694  0.10651682  1  0.081482  0  -0.108607  -0.247097  0  3.968624  0
C  C102  1  0.42598891  0.50183222  0.14833477  1  0.431948  0  0.084573  0.2958  0  4.072096  0
C  C103  1  0.49987769  0.50163982  0.17007627  1  0.118834  0  -0.040936  -0.135194  0  4.160055  0
C  C104  1  0.57375498  0.50189380  0.14804802  1  0.447972  0  0.08591  0.2976  0  4.072011  0
C  C105  1  0.57366270  0.50208745  0.10623395  1  0.073316  0  -0.109003  -0.248807  0  3.969726  0
C  C106  1  0.49993216  0.50136118  0.21253070  1  -0.272552  0  -0.054974  -0.121615  0  4.244024  0
C  C107  1  0.50006769  0.50111796  0.24961683  1  -0.281945  0  -0.054768  -0.122018  0  4.243587  0
C  C108  1  0.50010887  0.50079409  0.29207118  1  0.115892  0  -0.040673  -0.13372  0  4.158992  0
C  C109  1  0.42620979  0.50056466  0.31408717  1  0.452892  0  0.085388  0.297107  0  4.071468  0
C  C110  1  0.42628826  0.50018061  0.35590231  1  0.127699  0  -0.108708  -0.247964  0  3.968044  0
C  C111  1  0.50008982  0.49997900  0.37643699  1  -0.159217  0  -0.01047  0.023056  0  4.00816  0
C  C112  1  0.57389506  0.50029803  0.35563581  1  0.131167  0  -0.108699  -0.248554  0  3.968547  0
C  C113  1  0.57398911  0.50070276  0.31381804  1  0.438618  0  0.085172  0.296672  0  4.071738  0
C  C114  1  0.74886415  0.54865079  0.93710923  1  0.594655  0  0.040705  -0.048471  0  3.898085  0
C  C115  1  0.83321585  0.55064759  0.93624652  1  0.508691  0  0.100419  0.258873  0  4.069626  0
C  C116  1  0.87753913  0.50310032  0.96210821  1  0.173379  0  -0.023872  -0.110444  0  4.15296  0
C  C117  1  0.83302715  0.45535143  0.98793435  1  0.50404  0  0.102198  0.26164  0  4.065768  0
C  C118  1  0.74866273  0.45680251  0.98692887  1  0.576386  0  0.04262  -0.046866  0  3.893923  0
C  C119  1  0.96294347  0.50316189  0.96209843  1  -0.400764  0  -0.041018  -0.103856  0  4.20481  0
C  C120  1  0.03732225  0.50304116  0.96209679  1  -0.168893  0  -0.040398  -0.101845  0  4.203775  0
C  C121  1  0.12273709  0.50289609  0.96202629  1  0.158247  0  -0.02349  -0.110314  0  4.151457  0
C  C122  1  0.16731721  0.55038246  0.93608349  1  0.525829  0  0.101078  0.26  0  4.066387  0
C  C123  1  0.25167498  0.54840244  0.93688175  1  0.572652  0  0.041726  -0.046391  0  3.893218  0
C  C124  1  0.25134928  0.45668152  0.98677476  1  0.605183  0  0.042243  -0.046755  0  3.894352  0
C  C125  1  0.16697824  0.45517399  0.98782656  1  0.505908  0  0.101781  0.2613  0  4.066449  0
C  C126  1  0.50001045  0.73248972  0.96112772  1  -0.007041  0  -0.010262  0.021841  0  4.005785  0
C  C127  1  0.42626984  0.77094773  0.96111013  1  0.10342  0  -0.108362  -0.246715  0  3.96642  0
C  C128  1  0.42624757  0.84851518  0.96109933  1  0.43168  0  0.085529  0.297569  0  4.06975  0
C  C129  1  0.50015199  0.88904689  0.96117363  1  0.157731  0  -0.04065  -0.136356  0  4.160459  0
C  C130  1  0.57398480  0.84834472  0.96118006  1  0.44337  0  0.085109  0.297471  0  4.070396  0
C  C131  1  0.57383274  0.77078339  0.96117789  1  0.100967  0  -0.109007  -0.248103  0  3.967614  0
C  C132  1  0.50018813  0.96781552  0.96128963  1  -0.277507  0  -0.055395  -0.122348  0  4.242863  0
C  C133  1  0.50011590  0.03659915  0.96146432  1  -0.310833  0  -0.05461  -0.119985  0  4.240342  0
C  C134  1  0.50005321  0.11537677  0.96168017  1  0.223593  0  -0.041235  -0.137144  0  4.158593  0
C  C135  1  0.42617856  0.15601868  0.96174985  1  0.419238  0  0.086102  0.298726  0  4.070362  0
C  C136  1  0.42623894  0.23357957  0.96194096  1  0.045206  0  -0.10863  -0.248284  0  3.968002  0
C  C137  1  0.49999395  0.27193635  0.96202782  1  -0.002652  0  -0.011131  0.021686  0  4.007637  0
C  C138  1  0.57378552  0.23356761  0.96193503  1  0.043992  0  -0.108882  -0.248452  0  3.969703  0
C  C139  1  0.57389945  0.15601290  0.96176203  1  0.419505  0  0.085611  0.297768  0  4.071154  0
Br  Br140  1  0.24952588  0.50132385  0.77920114  1  -0.093964  0  -0.003452  -0.099022  0  1.333088  0
Br  Br141  1  0.75051578  0.50076003  0.68281307  1  -0.085892  0  -0.00346  -0.098868  0  1.332346  0
N  N142  1  0.29072116  0.50001901  0.50017988  1  -1.219184  0  -0.308178  -0.139018  0  3.598576  0
N  N143  1  0.70895563  0.49993176  0.50032402  1  -1.211384  0  -0.307138  -0.138567  0  3.596572  0
N  N144  1  0.70921289  0.50254905  0.96195428  1  -1.210481  0  -0.307773  -0.136243  0  3.593757  0
N  N145  1  0.29108273  0.50242801  0.96176493  1  -1.205401  0  -0.307185  -0.136502  0  3.593061  0
O  O146  1  0.56880777  0.61412663  0.50101655  1  -1.165196  0  -0.317157  -0.546335  0  2.324451  0
O  O147  1  0.43139746  0.61403886  0.50122160  1  -1.167871  0  -0.317553  -0.547361  0  2.325326  0
O  O148  1  0.42967823  0.50067783  0.56232856  1  -1.160202  0  -0.318861  -0.550284  0  2.321706  0
O  O149  1  0.56708984  0.50040242  0.56180857  1  -1.168165  0  -0.316551  -0.542348  0  2.322906  0
O  O150  1  0.43157150  0.38594692  0.50007376  1  -1.167123  0  -0.317238  -0.546415  0  2.325353  0
O  O151  1  0.56898126  0.38578541  0.49952333  1  -1.165515  0  -0.31688  -0.545826  0  2.324388  0
O  O152  1  0.56874058  0.49957094  0.43893051  1  -1.165349  0  -0.316767  -0.545374  0  2.325717  0
O  O153  1  0.43132130  0.49926317  0.43914650  1  -1.164932  0  -0.317156  -0.546715  0  2.325609  0
O  O154  1  0.43117908  0.61641038  0.96117804  1  -1.166414  0  -0.317341  -0.54685  0  2.322905  0
O  O155  1  0.56856655  0.61620277  0.96099310  1  -1.165373  0  -0.316978  -0.546783  0  2.324135  0
O  O156  1  0.57029620  0.50229783  0.89975019  1  -1.154008  0  -0.318857  -0.550784  0  2.321657  0
O  O157  1  0.43289102  0.50205112  0.90023280  1  -1.166455  0  -0.316359  -0.542227  0  2.322608  0
O  O158  1  0.56863370  0.38808029  0.96175693  1  -1.169904  0  -0.317865  -0.54683  0  2.323821  0
O  O159  1  0.43122169  0.38805639  0.96226447  1  -1.169757  0  -0.316979  -0.545948  0  2.32443  0
O  O160  1  0.43122164  0.50216050  0.02318580  1  -1.164619  0  -0.316871  -0.545398  0  2.324859  0
O  O161  1  0.56862865  0.50173845  0.02297895  1  -1.164348  0  -0.316712  -0.546133  0  2.324999  0
O  O162  1  0.13100411  0.40412136  0.44809858  1  -1.07806  0  -0.3318  -0.399029  0  2.253993  0
O  O163  1  0.12980175  0.59598424  0.55198166  1  -1.125591  0  -0.332605  -0.400755  0  2.25396  0
O  O164  1  0.86952502  0.40424093  0.44808468  1  -1.072715  0  -0.332068  -0.400002  0  2.252055  0
O  O165  1  0.86903629  0.59575670  0.55215526  1  -1.083504  0  -0.331665  -0.399524  0  2.257626  0
O  O166  1  0.35334650  0.88245613  0.49989458  1  -1.132591  0  -0.354602  -0.427956  0  2.241249  0
O  O167  1  0.64662465  0.88236119  0.50004104  1  -1.132317  0  -0.354432  -0.427199  0  2.241653  0
O  O168  1  0.35340289  0.11769249  0.49982929  1  -1.133338  0  -0.354263  -0.427743  0  2.240996  0
O  O169  1  0.64668126  0.11738700  0.49991171  1  -1.129053  0  -0.354362  -0.427587  0  2.241861  0
O  O170  1  0.64651558  0.50196549  0.16748251  1  -1.120355  0  -0.354291  -0.427486  0  2.242097  0
O  O171  1  0.35322744  0.50185263  0.16804956  1  -1.103379  0  -0.353615  -0.427192  0  2.242611  0
O  O172  1  0.64675881  0.50100456  0.29412658  1  -1.109087  0  -0.353638  -0.427175  0  2.241741  0
O  O173  1  0.35346238  0.50070628  0.29465075  1  -1.123309  0  -0.353874  -0.427335  0  2.24209  0
O  O174  1  0.86932581  0.40766960  0.01382720  1  -1.077465  0  -0.332101  -0.399482  0  2.253761  0
O  O175  1  0.86972342  0.59847253  0.91035824  1  -1.08172  0  -0.332827  -0.400549  0  2.253735  0
O  O176  1  0.13044547  0.40750024  0.01377047  1  -1.076873  0  -0.332137  -0.400147  0  2.254289  0
O  O177  1  0.13108843  0.59816802  0.91022522  1  -1.073637  0  -0.331581  -0.400155  0  2.257308  0
O  O178  1  0.64677390  0.88455880  0.96119258  1  -1.104672  0  -0.354052  -0.427704  0  2.240785  0
O  O179  1  0.35352107  0.88487485  0.96103005  1  -1.097731  0  -0.353923  -0.427021  0  2.242097  0
O  O180  1  0.64671576  0.11978767  0.96162401  1  -1.113353  0  -0.353685  -0.426651  0  2.242031  0
O  O181  1  0.35338180  0.11983632  0.96158203  1  -1.112798  0  -0.353652  -0.426617  0  2.24315  0
