# generated using pymatgen
data_CuH4C6(N2O)2
_symmetry_space_group_name_H-M   'P 1'
_cell_length_a   5.90714868
_cell_length_b   10.15787290
_cell_length_c   12.45733310
_cell_angle_alpha   90.00399194
_cell_angle_beta   90.00036404
_cell_angle_gamma   89.99941764
_symmetry_Int_Tables_number   1
_chemical_formula_structural   CuH4C6(N2O)2
_chemical_formula_sum   'Cu4 H16 C24 N16 O8'
_cell_volume   747.49062928
_cell_formula_units_Z   4
loop_
 _symmetry_equiv_pos_site_id
 _symmetry_equiv_pos_as_xyz
  1  'x, y, z'
loop_
 _atom_site_type_symbol
 _atom_site_label
 _atom_site_symmetry_multiplicity
 _atom_site_fract_x
 _atom_site_fract_y
 _atom_site_fract_z
 _atom_site_occupancy
 _atom_site_hle17_ddec_charge
 _atom_site_hle17_ddec_spin_density
 _atom_site_hle17_ddec_sum_bond_order
 _atom_site_hle17_magmom
 _atom_site_hse06_10hf_ddec_charge
 _atom_site_hse06_10hf_ddec_spin_density
 _atom_site_hse06_10hf_ddec_sum_bond_order
 _atom_site_hse06_10hf_magmom
 _atom_site_hse06_ddec_charge
 _atom_site_hse06_ddec_spin_density
 _atom_site_hse06_ddec_sum_bond_order
 _atom_site_hse06_magmom
 _atom_site_pbe_cm5_charge
 _atom_site_pbe_ddec_charge
 _atom_site_pbe_ddec_spin_density
 _atom_site_pbe_ddec_sum_bond_order
 _atom_site_pbe_magmom
Cu  Cu0  1  0.20678201  0.18896940  0.98733663  1  0.833613  0.611313  1.930874  0.43  0.84484  0.76286  2.354513  0.603  0.950124  0.865348  2.274848  0.717  0.742807  0.782751  0.667059  2.410099  0.51
Cu  Cu1  1  0.29331396  0.81104170  0.48733102  1  0.833566  -0.6112  1.929845  -0.43  0.844718  -0.762805  2.353523  -0.603  0.950089  -0.865314  2.273733  -0.717  0.742576  0.782605  -0.666965  2.409157  -0.51
Cu  Cu2  1  0.79323291  0.68899269  0.51267559  1  0.83359  0.611373  1.930263  0.43  0.844537  0.762831  2.354182  0.603  0.949802  0.865343  2.274621  0.717  0.742572  0.782438  0.666981  2.409893  0.511
Cu  Cu3  1  0.70677905  0.31100195  0.01264991  1  0.833753  -0.611423  1.93061  -0.43  0.844777  -0.762842  2.354298  -0.603  0.950047  -0.865353  2.274747  -0.717  0.742759  0.782647  -0.66702  2.410059  -0.511
H  H4  1  0.21690247  0.97051153  0.28125364  1  0.091725  0.000166  0.936657  0.0  0.099422  5.1e-05  1.001008  0.0  0.102655  3.3e-05  0.997373  0.0  0.119344  0.097239  8.1e-05  1.00358  0.0
H  H5  1  0.28311964  0.02948210  0.78125677  1  0.091738  -0.000168  0.936528  0.0  0.099428  -5.1e-05  1.000901  0.0  0.10266  -3.4e-05  0.997269  0.0  0.119422  0.097251  -8.1e-05  1.003481  0.0
H  H6  1  0.78313607  0.47052706  0.21874606  1  0.091788  0.000163  0.936667  0.0  0.099474  5.1e-05  1.001018  0.0  0.102705  3.4e-05  0.997386  0.0  0.119444  0.097293  8e-05  1.003594  0.0
H  H7  1  0.71686680  0.52948702  0.71876318  1  0.091726  -0.000164  0.936776  0.0  0.099414  -5.1e-05  1.001123  0.0  0.102646  -3.4e-05  0.99749  0.0  0.119369  0.097227  -8e-05  1.003695  0.0
H  H8  1  0.67835681  0.24521495  0.34477204  1  0.103213  -0.000524  0.961624  0.0  0.110418  -0.000313  1.029283  0.0  0.113592  -0.000202  1.026074  0.0  0.107628  0.108236  -0.000398  1.031418  0.0
H  H9  1  0.82171208  0.75474287  0.84479435  1  0.103153  0.000523  0.96143  0.0  0.110422  0.000313  1.029061  0.0  0.113598  0.000202  1.025855  0.0  0.107559  0.108208  0.000399  1.031235  0.0
H  H10  1  0.32168794  0.74529132  0.15522358  1  0.103133  -0.000525  0.961298  0.0  0.110408  -0.000313  1.02895  0.0  0.113584  -0.000202  1.025744  0.0  0.107523  0.108187  -0.000399  1.03114  0.0
H  H11  1  0.17835956  0.25478515  0.65519916  1  0.1033  0.000526  0.961624  0.0  0.110424  0.000313  1.029369  0.0  0.113607  0.000202  1.026153  0.0  0.107664  0.1082  0.000398  1.031549  0.0
H  H12  1  0.71008956  0.18415132  0.54120083  1  0.106606  0.000109  0.964384  0.0  0.114892  1e-06  1.026114  0.0  0.117288  -8e-06  1.027244  0.0  0.105961  0.113175  1e-06  1.025586  0.0
H  H13  1  0.78985507  0.81585165  0.04120993  1  0.106657  -0.000107  0.964445  0.0  0.114978  -1e-06  1.026122  0.0  0.117375  8e-06  1.027244  0.0  0.105989  0.113263  -2e-06  1.025595  0.0
H  H14  1  0.28983908  0.68414536  0.95880309  1  0.106716  0.000109  0.964247  0.0  0.115008  1e-06  1.025983  0.0  0.117408  -8e-06  1.027099  0.0  0.106033  0.113293  1e-06  1.025456  0.0
H  H15  1  0.21008552  0.31586824  0.45877288  1  0.1066  -0.000114  0.96433  0.0  0.114939  -0.0  1.026001  0.0  0.117338  8e-06  1.027121  0.0  0.105979  0.113225  -0.0  1.025473  0.0
H  H16  1  0.99284161  0.01483459  0.59486038  1  0.084357  -0.000213  0.944531  -0.001  0.089331  -0.00015  1.015145  0.0  0.092316  -8.2e-05  1.011647  0.0  0.116079  0.087217  -0.000232  1.018034  -0.001
H  H17  1  0.50710374  0.98516702  0.09484541  1  0.084254  0.000213  0.944586  0.001  0.08924  0.00015  1.01516  0.0  0.092229  8.3e-05  1.01164  0.0  0.116019  0.087121  0.000232  1.018059  0.001
H  H18  1  0.00710101  0.51481639  0.90518120  1  0.084234  -0.000215  0.944761  -0.001  0.089248  -0.00015  1.015301  0.0  0.092248  -8.3e-05  1.01175  0.0  0.116065  0.087125  -0.000232  1.018198  -0.001
H  H19  1  0.49282119  0.48518775  0.40515191  1  0.084316  0.000218  0.944611  0.001  0.089353  0.00015  1.015142  0.0  0.092337  8.2e-05  1.01164  0.0  0.116082  0.087235  0.000233  1.018037  0.001
C  C20  1  0.10359017  0.02050341  0.33678631  1  0.133017  0.000918  3.662484  0.0  0.096885  -2e-06  3.913375  0.0  0.10864  0.000452  3.929133  0.0  0.052243  0.089349  -0.000505  3.902494  -0.001
C  C21  1  0.39643945  0.97949296  0.83678880  1  0.133092  -0.000902  3.662801  0.0  0.096929  4e-06  3.913723  0.0  0.108678  -0.000452  3.929479  0.0  0.052213  0.089378  0.000506  3.902858  0.001
C  C22  1  0.89641846  0.52048946  0.16320688  1  0.132747  0.000949  3.663213  0.0  0.096615  -5e-06  3.914086  0.0  0.108362  0.000449  3.929841  0.0  0.052015  0.089075  -0.000508  3.903204  -0.001
C  C23  1  0.60357520  0.47950318  0.66322160  1  0.132773  -0.000982  3.663063  0.0  0.096686  2e-06  3.913927  0.0  0.108435  -0.000453  3.929675  0.0  0.052151  0.089152  0.000506  3.903039  0.001
C  C24  1  0.95126564  0.11516213  0.29930956  1  -0.116184  -0.002156  3.747558  -0.003  -0.089672  -0.001297  3.9751  -0.002  -0.103795  -0.00102  3.995789  -0.002  -0.014429  -0.08005  -0.001739  3.960775  -0.003
C  C25  1  0.54877048  0.88482629  0.79933047  1  -0.11624  0.002156  3.747829  0.003  -0.089568  0.001297  3.975337  0.002  -0.103684  0.00102  3.99602  0.002  -0.014252  -0.079954  0.001741  3.961019  0.003
C  C26  1  0.04870118  0.61516270  0.20067942  1  -0.116105  -0.002189  3.747699  -0.003  -0.089626  -0.001297  3.975269  -0.002  -0.10374  -0.001019  3.995943  -0.002  -0.014346  -0.080012  -0.001742  3.96095  -0.003
C  C27  1  0.45127245  0.38483591  0.70068254  1  -0.115921  0.002218  3.747347  0.003  -0.089418  0.0013  3.97485  0.002  -0.10352  0.001023  3.995515  0.002  -0.014292  -0.079804  0.001744  3.960524  0.003
C  C28  1  0.80326712  0.17410038  0.37272642  1  -0.001402  0.003313  3.662082  0.003  -0.027041  0.002172  3.897724  0.003  -0.018934  0.001805  3.911677  0.002  -0.058177  -0.032249  0.002456  3.888187  0.003
C  C29  1  0.69675644  0.82586768  0.87273797  1  -0.001505  -0.003305  3.662294  -0.003  -0.027155  -0.002169  3.897796  -0.003  -0.019057  -0.001804  3.911761  -0.002  -0.058182  -0.03234  -0.002454  3.888268  -0.003
C  C30  1  0.19673113  0.67413102  0.12728600  1  -0.001161  0.003337  3.661604  0.003  -0.026805  0.00217  3.897112  0.003  -0.018709  0.001803  3.911078  0.002  -0.057932  -0.03198  0.002455  3.887587  0.003
C  C31  1  0.30328045  0.32591355  0.62725078  1  -0.001624  -0.003382  3.662463  -0.004  -0.027116  -0.002172  3.898002  -0.003  -0.019038  -0.001805  3.911967  -0.002  -0.058245  -0.032288  -0.002457  3.888501  -0.003
C  C32  1  0.81918606  0.13993042  0.48073173  1  -0.109657  -0.001456  3.706859  -0.002  -0.115826  -0.000789  3.947298  -0.001  -0.124159  -0.000802  3.968155  -0.001  -0.07921  -0.110241  -0.000831  3.93314  -0.001
C  C33  1  0.68078477  0.86006845  0.98072994  1  -0.109562  0.00145  3.707612  0.002  -0.115861  0.00079  3.948047  0.001  -0.124193  0.000802  3.968914  0.001  -0.079202  -0.110276  0.000832  3.93387  0.001
C  C34  1  0.18077537  0.63993332  0.01928436  1  -0.109794  -0.001485  3.707259  -0.002  -0.11605  -0.000789  3.947715  -0.001  -0.124382  -0.000801  3.968579  -0.001  -0.079312  -0.110468  -0.000833  3.933541  -0.001
C  C35  1  0.31916704  0.36009028  0.51924552  1  -0.109559  0.00154  3.707287  0.002  -0.115827  0.000791  3.94767  0.001  -0.124161  0.000802  3.968542  0.001  -0.079208  -0.110246  0.000835  3.933497  0.001
C  C36  1  0.97682805  0.04522626  0.51137787  1  0.14393  0.001168  3.680245  0.001  0.111747  0.000351  3.94429  0.0  0.121195  0.000649  3.961597  0.001  0.050371  0.105366  0.000104  3.932831  0.0
C  C37  1  0.52315680  0.95477713  0.01136442  1  0.143952  -0.001162  3.68059  -0.001  0.111798  -0.000345  3.944497  0.0  0.121245  -0.000646  3.961804  -0.001  0.050431  0.105418  -9.9e-05  3.933031  0.0
C  C38  1  0.02315819  0.54521993  0.98864137  1  0.143954  0.0012  3.680939  0.001  0.111785  0.000347  3.944854  0.0  0.121241  0.000646  3.962161  0.001  0.050442  0.105409  0.000101  3.933377  0.0
C  C39  1  0.47680744  0.45479128  0.48862153  1  0.143944  -0.001245  3.680645  -0.001  0.111654  -0.000349  3.944698  0.0  0.121103  -0.000647  3.961994  -0.001  0.05028  0.105272  -0.000102  3.933228  0.0
C  C40  1  0.94974274  0.15272314  0.18285313  1  0.652803  -0.000479  3.864449  -0.001  0.613482  6.9e-05  4.152331  -0.001  0.6567  3.1e-05  4.146165  -0.001  0.221143  0.584531  0.000111  4.157077  -0.001
C  C41  1  0.55029520  0.84726329  0.68287590  1  0.652928  0.000498  3.864667  0.001  0.613419  -5.6e-05  4.152875  0.001  0.656623  -2.1e-05  4.146718  0.001  0.220976  0.58448  -9.8e-05  4.157633  0.001
C  C42  1  0.05021853  0.65272471  0.31712917  1  0.652697  -0.000481  3.864732  -0.001  0.613398  6.4e-05  4.152629  -0.001  0.656611  2.7e-05  4.146462  -0.001  0.220975  0.584454  0.000106  4.15738  -0.001
C  C43  1  0.44974311  0.34725031  0.81713255  1  0.652491  0.000473  3.865127  0.001  0.61321  -6.6e-05  4.152967  0.001  0.656425  -3e-05  4.146818  0.001  0.220928  0.584257  -0.000111  4.157707  0.001
N  N44  1  0.11381479  0.98471357  0.44044928  1  -0.331171  -0.009519  3.287382  -0.012  -0.286995  -0.011928  3.589388  -0.017  -0.31464  -0.009666  3.608107  -0.015  -0.341464  -0.268647  -0.012949  3.577889  -0.017
N  N45  1  0.38617390  0.01528667  0.94044308  1  -0.331171  0.009546  3.28784  0.012  -0.287003  0.011955  3.589808  0.017  -0.314638  0.009689  3.608533  0.015  -0.341626  -0.268661  0.012979  3.578301  0.017
N  N46  1  0.88618802  0.48470695  0.05955203  1  -0.331027  -0.009576  3.288151  -0.012  -0.286854  -0.011948  3.590098  -0.017  -0.31449  -0.009681  3.608844  -0.015  -0.34156  -0.268511  -0.012971  3.578611  -0.017
N  N47  1  0.61377548  0.51528084  0.55956241  1  -0.331021  0.009605  3.287734  0.012  -0.286802  0.011951  3.5897  0.017  -0.314432  0.009684  3.608445  0.015  -0.341385  -0.268458  0.012973  3.578204  0.017
N  N48  1  0.88226664  0.17484328  0.92848275  1  -0.536465  -0.023758  2.893731  -0.028  -0.605511  -0.006067  3.309185  -0.008  -0.664041  -0.003131  3.324899  -0.005  -0.358171  -0.570146  -0.008499  3.30162  -0.01
N  N49  1  0.61773057  0.82519449  0.42850391  1  -0.536313  0.023449  2.89393  0.027  -0.60551  0.005983  3.309277  0.008  -0.664036  0.003077  3.324945  0.004  -0.358126  -0.570152  0.008413  3.301746  0.01
N  N50  1  0.11775014  0.67480580  0.57151020  1  -0.53651  -0.023495  2.89253  -0.027  -0.605605  -0.005981  3.30791  -0.008  -0.664167  -0.003077  3.323644  -0.004  -0.358024  -0.570231  -0.008405  3.300338  -0.01
N  N51  1  0.38226408  0.32513068  0.07149389  1  -0.536315  0.023782  2.894045  0.028  -0.605522  0.006045  3.309421  0.008  -0.664038  0.003119  3.325096  0.005  -0.358036  -0.570157  0.00847  3.301835  0.01
N  N52  1  0.85929051  0.16530579  0.83222990  1  0.405974  0.00569  4.138576  0.009  0.456973  -0.000383  4.451901  0.001  0.47993  -0.000154  4.487691  0.001  0.090417  0.442592  -0.000744  4.427101  0.0
N  N53  1  0.64068341  0.83474547  0.33224926  1  0.406256  -0.005565  4.138336  -0.009  0.457513  0.000395  4.451255  0.0  0.480473  0.000168  4.487026  -0.001  0.0907  0.443133  0.00075  4.426494  0.0
N  N54  1  0.14072132  0.66524775  0.66777053  1  0.40611  0.005572  4.138204  0.009  0.4572  -0.000392  4.451401  0.0  0.480152  -0.000163  4.487188  0.001  0.090405  0.442819  -0.000748  4.426596  0.0
N  N55  1  0.35930266  0.33469295  0.16774346  1  0.406374  -0.005677  4.13776  -0.009  0.457517  0.000382  4.450867  0.0  0.480481  0.000152  4.486645  -0.001  0.090704  0.443131  0.000742  4.426041  0.0
N  N56  1  0.83489241  0.15304351  0.74016165  1  -0.299062  -0.025323  2.370416  -0.028  -0.325022  -0.006646  2.608762  -0.008  -0.334172  -0.00546  2.61983  -0.007  -0.145047  -0.318177  -0.008095  2.600547  -0.009
N  N57  1  0.66507689  0.84696451  0.24017698  1  -0.299106  0.024897  2.370249  0.027  -0.325467  0.006545  2.608436  0.007  -0.334611  0.005378  2.619505  0.006  -0.145317  -0.318632  0.007996  2.600252  0.009
N  N58  1  0.16515004  0.65304231  0.75983005  1  -0.299125  -0.024889  2.370612  -0.027  -0.325097  -0.006547  2.608849  -0.007  -0.334261  -0.005383  2.619929  -0.006  -0.14497  -0.318245  -0.007986  2.60064  -0.009
N  N59  1  0.33492087  0.34698002  0.25981404  1  -0.299184  0.025299  2.369411  0.027  -0.325547  0.006627  2.607708  0.007  -0.3347  0.005449  2.618769  0.007  -0.145431  -0.318704  0.008062  2.599496  0.009
O  O60  1  0.10947768  0.10717692  0.12481727  1  -0.570852  0.083145  2.08988  0.106  -0.533895  0.0616  2.356406  0.088  -0.581269  0.047277  2.351187  0.072  -0.304561  -0.505797  0.067047  2.362237  0.091
O  O61  1  0.39051863  0.89279853  0.62486695  1  -0.570794  -0.083151  2.089772  -0.106  -0.533625  -0.061631  2.356257  -0.088  -0.581002  -0.047306  2.351023  -0.072  -0.304304  -0.505532  -0.06707  2.362112  -0.091
O  O62  1  0.89050447  0.60721052  0.37518009  1  -0.570745  0.083108  2.090037  0.106  -0.533731  0.061579  2.356519  0.088  -0.581089  0.047263  2.351303  0.072  -0.304461  -0.505639  0.067024  2.362392  0.091
O  O63  1  0.60946325  0.39279418  0.87517781  1  -0.570685  -0.083122  2.090171  -0.106  -0.533637  -0.0616  2.356585  -0.088  -0.581022  -0.047276  2.351393  -0.072  -0.30436  -0.505538  -0.067051  2.362449  -0.091
O  O64  1  0.79102420  0.22943540  0.15347319  1  -0.590638  -0.071785  2.139916  -0.091  -0.554033  -0.054776  2.418389  -0.078  -0.601462  -0.042378  2.413669  -0.064  -0.30491  -0.525115  -0.059914  2.423608  -0.082
O  O65  1  0.70904382  0.77058594  0.65349847  1  -0.590762  0.071756  2.140263  0.091  -0.554071  0.054773  2.418913  0.078  -0.60148  0.04238  2.414181  0.064  -0.304989  -0.525158  0.059904  2.424137  0.081
O  O66  1  0.20900890  0.72941857  0.34647417  1  -0.590671  -0.071825  2.139617  -0.091  -0.554134  -0.054784  2.418085  -0.078  -0.601581  -0.042379  2.413349  -0.064  -0.304845  -0.525202  -0.059935  2.423256  -0.082
O  O67  1  0.29103270  0.27053235  0.84650718  1  -0.590748  0.071775  2.140393  0.091  -0.554059  0.054783  2.418799  0.078  -0.601439  0.042385  2.413943  0.064  -0.304895  -0.525137  0.05993  2.423966  0.082
