# generated using pymatgen
data_Zr3H6C26S5NCl5O16
_symmetry_space_group_name_H-M   'P 1'
_cell_length_a   16.46663154
_cell_length_b   16.46000744
_cell_length_c   16.53582668
_cell_angle_alpha   61.59178331
_cell_angle_beta   59.82949306
_cell_angle_gamma   60.29711088
_symmetry_Int_Tables_number   1
_chemical_formula_structural   Zr3H6C26S5NCl5O16
_chemical_formula_sum   'Zr6 H12 C52 S10 N2 Cl10 O32'
_cell_volume   3208.56260994
_cell_formula_units_Z   2
loop_
 _symmetry_equiv_pos_site_id
 _symmetry_equiv_pos_as_xyz
  1  'x, y, z'
loop_
 _atom_site_type_symbol
 _atom_site_label
 _atom_site_symmetry_multiplicity
 _atom_site_fract_x
 _atom_site_fract_y
 _atom_site_fract_z
 _atom_site_occupancy
 _atom_site_pbe_bader_charge
 _atom_site_pbe_bader_spin_density
 _atom_site_pbe_cm5_charge
 _atom_site_pbe_ddec_charge
 _atom_site_pbe_ddec_spin_density
 _atom_site_pbe_ddec_sum_bond_order
 _atom_site_pbe_magmom
Zr  Zr0  1  0.88801907  0.90259199  0.59862074  1  2.635167  0  1.629398  2.375003  0  2.779638  0
Zr  Zr1  1  0.11083715  0.10359497  0.39754223  1  2.637235  0  1.629427  2.375293  0  2.779178  0
Zr  Zr2  1  0.10173675  0.89450890  0.60720390  1  2.638985  0  1.621105  2.379052  0  2.738567  0
Zr  Zr3  1  0.89659047  0.11222934  0.38941552  1  2.641207  0  1.620955  2.379286  0  2.739123  0
Zr  Zr4  1  0.10809069  0.89439282  0.38936595  1  2.640514  0  1.618296  2.381316  0  2.726692  0
Zr  Zr5  1  0.89048317  0.11207082  0.60694109  1  2.636194  0  1.618914  2.379823  0  2.731892  0
H  H6  1  0.07714566  0.75306485  0.57842427  1  0.598269  0  0.331971  0.425866  0  0.851587  0
H  H7  1  0.09146772  0.08329055  0.24799342  1  0.601322  0  0.332211  0.426479  0  0.852585  0
H  H8  1  0.08325738  0.08277889  0.58911452  1  0.601383  0  0.330649  0.425632  0  0.851026  0
H  H9  1  0.74485168  0.09415694  0.57775803  1  0.597536  0  0.330936  0.425792  0  0.851119  0
H  H10  1  0.09755285  0.64184845  0.87173666  1  0.06964  0  0.101413  0.104944  0  1.03946  0
H  H11  1  0.84430299  0.65422287  0.84842207  1  0.081644  0  0.103664  0.121826  0  1.00972  0
H  H12  1  0.88905445  0.37687184  0.13690250  1  0.093303  0  0.101484  0.104819  0  1.038157  0
H  H13  1  0.15363451  0.35311587  0.14890058  1  0.09511  0  0.103612  0.121557  0  1.010716  0
H  H14  1  0.20810781  0.54606106  0.92205254  1  0.43331  0  0.300425  0.291997  0  0.973572  0
H  H15  1  0.24352271  0.46084346  0.01919156  1  0.450791  0  0.310515  0.304925  0  0.93554  0
H  H16  1  0.82347591  0.42755262  0.04157169  1  0.426985  0  0.300516  0.291263  0  0.974075  0
H  H17  1  0.77622782  0.52466513  0.95630229  1  0.439216  0  0.310319  0.304933  0  0.934378  0
C  C18  1  0.99571714  0.73961024  0.48366244  1  1.614128  0  0.223894  0.657119  0  4.148496  0
C  C19  1  0.28124822  0.98832765  0.23480024  1  1.561851  0  0.223265  0.655437  0  4.147848  0
C  C20  1  0.99627101  0.27363963  0.50524402  1  1.583984  0  0.224677  0.656434  0  4.148168  0
C  C21  1  0.72506153  0.01009453  0.76877543  1  1.57921  0  0.225129  0.657991  0  4.146884  0
C  C22  1  0.97993303  0.74180036  0.76652460  1  1.519091  0  0.235396  0.644201  0  4.080141  0
C  C23  1  0.73133629  0.00402386  0.48887309  1  1.584421  0  0.222984  0.655306  0  4.152869  0
C  C24  1  0.01203995  0.27144476  0.23667416  1  1.531445  0  0.23541  0.644564  0  4.080026  0
C  C25  1  0.27579283  0.99378766  0.49908308  1  1.597433  0  0.2234  0.655852  0  4.153553  0
C  C26  1  0.27229572  0.73144670  0.49800298  1  1.597216  0  0.223866  0.656161  0  4.144667  0
C  C27  1  0.99232954  0.99704858  0.77706604  1  1.589383  0  0.224559  0.658485  0  4.143172  0
C  C28  1  0.73333438  0.28194251  0.49197865  1  1.579295  0  0.223992  0.656702  0  4.143465  0
C  C29  1  0.99790392  0.00281634  0.22664797  1  1.593055  0  0.223224  0.654489  0  4.147013  0
C  C30  1  0.92430705  0.42488183  0.56325037  1  0.134372  0  0.009564  0.104554  0  4.078137  0
C  C31  1  0.06381982  0.59175878  0.42205203  1  0.174458  0  0.010567  0.106223  0  4.077654  0
C  C32  1  0.99282030  0.36573762  0.50225963  1  -0.105301  0  -0.026159  -0.184072  0  3.921453  0
C  C33  1  0.99595761  0.65044104  0.48356017  1  -0.122964  0  -0.027808  -0.186872  0  3.924453  0
C  C34  1  0.03740902  0.50964658  0.45093319  1  -0.155846  0  -0.028503  -0.074775  0  4.097856  0
C  C35  1  0.94999535  0.50762235  0.53373068  1  -0.129171  0  -0.028356  -0.074145  0  4.100052  0
C  C36  1  0.42318867  0.92620798  0.08738722  1  0.108015  0  0.010016  0.104892  0  4.079374  0
C  C37  1  0.58820039  0.06760523  0.92042867  1  0.142679  0  0.009553  0.104794  0  4.076794  0
C  C38  1  0.37069621  0.98782360  0.14599358  1  -0.072215  0  -0.027217  -0.185673  0  3.922262  0
C  C39  1  0.63973720  0.00674948  0.86116277  1  -0.116347  0  -0.026445  -0.184736  0  3.922459  0
C  C40  1  0.50945810  0.03789473  0.00327601  1  -0.135842  0  -0.028447  -0.073651  0  4.098783  0
C  C41  1  0.50286022  0.95507881  0.00530317  1  -0.112216  0  -0.028064  -0.073969  0  4.097144  0
C  C42  1  0.05905169  0.92938988  0.91750404  1  0.15443  0  0.011165  0.107396  0  4.06908  0
C  C43  1  0.92613509  0.06627438  0.09086361  1  0.120694  0  0.0096  0.105725  0  4.070563  0
C  C44  1  0.99272658  0.99466611  0.86697921  1  -0.094285  0  -0.026696  -0.186001  0  3.910449  0
C  C45  1  0.99333623  0.00177194  0.14051141  1  -0.097904  0  -0.026275  -0.18383  0  3.911977  0
C  C46  1  0.94981689  0.03971271  0.00974466  1  -0.11688  0  -0.029322  -0.076026  0  4.099341  0
C  C47  1  0.03444794  0.95535195  0.99934769  1  -0.155618  0  -0.028513  -0.074709  0  4.095579  0
C  C48  1  0.41585896  0.59505948  0.56194944  1  0.162927  0  0.009249  0.104482  0  4.068359  0
C  C49  1  0.59326888  0.42192363  0.42482348  1  0.145698  0  0.010522  0.105817  0  4.070222  0
C  C50  1  0.36363376  0.64491179  0.49730677  1  -0.124718  0  -0.026125  -0.183739  0  3.911526  0
C  C51  1  0.64495174  0.37142321  0.49000777  1  -0.09623  0  -0.026092  -0.183147  0  3.908387  0
C  C52  1  0.50993545  0.50360726  0.45096369  1  -0.130589  0  -0.027951  -0.073877  0  4.096262  0
C  C53  1  0.49977308  0.51388817  0.53540610  1  -0.14887  0  -0.028956  -0.07458  0  4.098014  0
C  C54  1  0.04135208  0.60901332  0.90036842  1  -0.011798  0  -0.10056  -0.1693  0  3.98783  0
C  C55  1  0.89606854  0.61722007  0.88784337  1  -0.006043  0  -0.110176  -0.242119  0  3.968217  0
C  C56  1  0.88772686  0.53475471  0.96897925  1  0.394745  0  0.099469  0.266419  0  4.078608  0
C  C57  1  0.95719734  0.48730234  0.01962732  1  0.016832  0  -0.010145  -0.001934  0  3.965357  0
C  C58  1  0.94954804  0.40541252  0.10400762  1  -0.028671  0  -0.100225  -0.168458  0  3.988603  0
C  C59  1  0.09938542  0.39261166  0.11197515  1  -0.019917  0  -0.110448  -0.241968  0  3.970499  0
C  C60  1  0.10909711  0.47371612  0.02949577  1  0.388864  0  0.099707  0.266935  0  4.082355  0
C  C61  1  0.03622795  0.52459789  0.98223465  1  -0.001332  0  -0.009591  -0.002007  0  3.965298  0
C  C62  1  0.97206448  0.65442568  0.85436692  1  -0.040401  0  -0.025313  -0.025018  0  4.050836  0
C  C63  1  0.01954127  0.35924858  0.14929915  1  -0.019496  0  -0.025635  -0.026253  0  4.053979  0
C  C64  1  0.41929598  0.05962001  0.42726182  1  0.069626  0  0.010544  0.106534  0  4.071714  0
C  C65  1  0.59399429  0.93207045  0.55445534  1  0.153365  0  0.009995  0.105091  0  4.070995  0
C  C66  1  0.36731109  0.99406376  0.49372046  1  -0.05786  0  -0.027297  -0.184775  0  3.920941  0
C  C67  1  0.64488266  0.99871634  0.48913508  1  -0.128147  0  -0.027242  -0.184608  0  3.920181  0
C  C68  1  0.51206157  0.95403914  0.53141227  1  -0.145429  0  -0.028744  -0.07309  0  4.102874  0
C  C69  1  0.50237149  0.03656519  0.44914156  1  -0.11993  0  -0.028934  -0.074177  0  4.103838  0
S  S70  1  0.08819171  0.41120440  0.40894855  1  0.306787  0  0.096609  0.163445  0  2.789968  0
S  S71  1  0.89983030  0.60563965  0.57621249  1  0.290088  0  0.091344  0.155462  0  2.802511  0
S  S72  1  0.41902359  0.08042467  0.10124614  1  0.298182  0  0.091378  0.155014  0  2.802411  0
S  S73  1  0.59241253  0.91326778  0.90671808  1  0.313203  0  0.096915  0.163626  0  2.790473  0
S  S74  1  0.90019404  0.08729340  0.92002313  1  0.294385  0  0.091514  0.154896  0  2.793709  0
S  S75  1  0.08481591  0.90831110  0.08833893  1  0.310543  0  0.096128  0.160536  0  2.788466  0
S  S76  1  0.41768836  0.59272653  0.40388279  1  0.293638  0  0.096318  0.16062  0  2.790301  0
S  S77  1  0.59169764  0.42428654  0.58281030  1  0.303958  0  0.091064  0.153344  0  2.792277  0
S  S78  1  0.42038869  0.90424382  0.58215840  1  0.321584  0  0.093614  0.155491  0  2.796949  0
S  S79  1  0.59293842  0.08745919  0.39955407  1  0.313455  0  0.093787  0.155894  0  2.796888  0
N  N80  1  0.18614180  0.50780330  0.99417650  1  -1.233853  0  -0.596182  -0.6179  0  3.325887  0
N  N81  1  0.81170987  0.49964195  0.00323651  1  -1.215531  0  -0.596249  -0.617166  0  3.323001  0
Cl  Cl82  1  0.82136988  0.40466844  0.66228641  1  -0.160129  0  0.010239  -0.031515  0  1.513893  0
Cl  Cl83  1  0.16745559  0.61116210  0.32381692  1  -0.153075  0  0.013561  -0.027572  0  1.51077  0
Cl  Cl84  1  0.39849959  0.82792070  0.10676218  1  -0.150097  0  0.013365  -0.027575  0  1.511173  0
Cl  Cl85  1  0.61224523  0.16666514  0.90025794  1  -0.162288  0  0.010142  -0.031801  0  1.513742  0
Cl  Cl86  1  0.15970372  0.82975137  0.88887664  1  -0.154577  0  0.013309  -0.026274  0  1.514912  0
Cl  Cl87  1  0.82584005  0.16632456  0.11948757  1  -0.165493  0  0.007972  -0.034221  0  1.516708  0
Cl  Cl88  1  0.38754602  0.62363690  0.66202264  1  -0.166621  0  0.007983  -0.034149  0  1.51623  0
Cl  Cl89  1  0.62090053  0.39345104  0.32507237  1  -0.161631  0  0.013255  -0.026402  0  1.514921  0
Cl  Cl90  1  0.39162535  0.15760028  0.33056029  1  -0.152404  0  0.013355  -0.02947  0  1.533111  0
Cl  Cl91  1  0.62067860  0.83498744  0.65211651  1  -0.15573  0  0.013543  -0.028866  0  1.532623  0
O  O92  1  0.92427613  0.77600307  0.55224847  1  -1.176884  0  -0.352603  -0.611143  0  2.279775  0
O  O93  1  0.24755205  0.05705879  0.27105545  1  -1.171044  0  -0.352391  -0.610449  0  2.279994  0
O  O94  1  0.06956068  0.23553497  0.43857959  1  -1.179675  0  -0.3524  -0.610615  0  2.27819  0
O  O95  1  0.75647079  0.94351950  0.73059528  1  -1.175521  0  -0.352615  -0.611315  0  2.279656  0
O  O96  1  0.05108265  0.77303103  0.73504423  1  -1.185105  0  -0.356078  -0.619737  0  2.278121  0
O  O97  1  0.76493904  0.07311556  0.42213384  1  -1.171662  0  -0.347576  -0.608905  0  2.245187  0
O  O98  1  0.94108910  0.24005336  0.26787298  1  -1.177094  0  -0.355717  -0.619467  0  2.277044  0
O  O99  1  0.23981283  0.92706736  0.56821040  1  -1.181828  0  -0.34783  -0.609335  0  2.245028  0
O  O100  1  0.24027336  0.76326143  0.42848409  1  -1.17349  0  -0.348743  -0.609056  0  2.248613  0
O  O101  1  0.92427128  0.06791408  0.74353527  1  -1.178511  0  -0.34966  -0.611353  0  2.249034  0
O  O102  1  0.76421224  0.24863310  0.56269138  1  -1.172483  0  -0.348856  -0.610027  0  2.247407  0
O  O103  1  0.06776458  0.93342267  0.25831870  1  -1.176599  0  -0.347851  -0.607904  0  2.248463  0
O  O104  1  0.06114247  0.92886575  0.73907916  1  -1.181578  0  -0.362227  -0.617501  0  2.321976  0
O  O105  1  0.77086522  0.24403759  0.42368134  1  -1.164403  0  -0.36258  -0.618063  0  2.320885  0
O  O106  1  0.93236228  0.07384511  0.26176352  1  -1.176516  0  -0.363355  -0.618018  0  2.321595  0
O  O107  1  0.23192716  0.76676349  0.56884308  1  -1.176688  0  -0.36338  -0.618884  0  2.320403  0
O  O108  1  0.91465300  0.77944259  0.72636240  1  -1.180085  0  -0.369895  -0.625362  0  2.307878  0
O  O109  1  0.23895031  0.06263632  0.43371427  1  -1.179013  0  -0.368837  -0.619017  0  2.352892  0
O  O110  1  0.07982722  0.23122202  0.27434347  1  -1.187875  0  -0.370033  -0.625297  0  2.307843  0
O  O111  1  0.76464334  0.93867727  0.55777340  1  -1.172872  0  -0.368663  -0.618436  0  2.351135  0
O  O112  1  0.76007771  0.07877798  0.73376430  1  -1.16531  0  -0.362472  -0.617286  0  2.312044  0
O  O113  1  0.06680644  0.77231339  0.41753507  1  -1.177377  0  -0.361717  -0.616556  0  2.311448  0
O  O114  1  0.24337898  0.92241447  0.26729165  1  -1.169361  0  -0.361563  -0.615906  0  2.309719  0
O  O115  1  0.92737617  0.23880200  0.57373087  1  -1.166123  0  -0.362334  -0.616587  0  2.312406  0
O  O116  1  0.81717684  0.06924724  0.55472372  1  -1.227016  0  -0.692927  -1.068998  0  2.350665  0
O  O117  1  0.05887530  0.05975823  0.56418924  1  -1.231202  0  -0.692726  -1.068837  0  2.349619  0
O  O118  1  0.06587171  0.05934736  0.31906704  1  -1.230955  0  -0.694015  -1.070125  0  2.3584  0
O  O119  1  0.05564584  0.82412660  0.55437959  1  -1.226362  0  -0.693894  -1.069256  0  2.356669  0
O  O120  1  0.13346903  0.95420973  0.45652593  1  -1.201688  0  -0.789105  -1.149006  0  2.117354  0
O  O121  1  0.95575658  0.96156876  0.44919788  1  -1.203989  0  -0.78916  -1.149441  0  2.118774  0
O  O122  1  0.95767506  0.13498295  0.45699129  1  -1.197981  0  -0.790992  -1.149197  0  2.128824  0
O  O123  1  0.95033168  0.96210807  0.62993500  1  -1.199109  0  -0.791091  -1.14824  0  2.126553  0
