# generated using pymatgen
data_ZnH20C22(NO2)2
_symmetry_space_group_name_H-M   'P 1'
_cell_length_a   6.96479113
_cell_length_b   9.36704261
_cell_length_c   16.24742396
_cell_angle_alpha   90.65332721
_cell_angle_beta   102.37524966
_cell_angle_gamma   90.61419012
_symmetry_Int_Tables_number   1
_chemical_formula_structural   ZnH20C22(NO2)2
_chemical_formula_sum   'Zn2 H40 C44 N4 O8'
_cell_volume   1035.18385984
_cell_formula_units_Z   2
loop_
 _symmetry_equiv_pos_site_id
 _symmetry_equiv_pos_as_xyz
  1  'x, y, z'
loop_
 _atom_site_type_symbol
 _atom_site_label
 _atom_site_symmetry_multiplicity
 _atom_site_fract_x
 _atom_site_fract_y
 _atom_site_fract_z
 _atom_site_occupancy
 _atom_site_hle17_bader_spin_density
 _atom_site_hle17_ddec_charge
 _atom_site_hle17_ddec_spin_density
 _atom_site_hle17_ddec_sum_bond_order
 _atom_site_hle17_magmom
 _atom_site_hse06_10hf_bader_spin_density
 _atom_site_hse06_10hf_ddec_charge
 _atom_site_hse06_10hf_ddec_spin_density
 _atom_site_hse06_10hf_ddec_sum_bond_order
 _atom_site_hse06_10hf_magmom
 _atom_site_hse06_bader_spin_density
 _atom_site_hse06_ddec_charge
 _atom_site_hse06_ddec_spin_density
 _atom_site_hse06_ddec_sum_bond_order
 _atom_site_hse06_magmom
 _atom_site_pbe_bader_spin_density
 _atom_site_pbe_cm5_charge
 _atom_site_pbe_ddec_charge
 _atom_site_pbe_ddec_spin_density
 _atom_site_pbe_ddec_sum_bond_order
 _atom_site_pbe_magmom
Zn  Zn0  1  0.88257578  0.77294991  0.19345359  1  0  0.975769  0  1.872992  0  0  0.778961  0  2.350103  0  0  0.827172  0  2.295664  0  0  0.688035  0.745493  0  2.387412  0
Zn  Zn1  1  0.11742789  0.22704435  0.80654760  1  0  0.975776  0  1.872894  0  0  0.778918  0  2.349997  0  0  0.827126  0  2.295566  0  0  0.688024  0.745454  0  2.387301  0
H  H2  1  0.25575963  0.10180544  0.40574072  1  0  0.106021  0  0.92424  0  0  0.121133  0  0.979806  0  0  0.123882  0  0.977895  0  0  0.099154  0.119219  0  0.981118  0
H  H3  1  0.74421518  0.89820496  0.59426175  1  0  0.106027  0  0.924183  0  0  0.121135  0  0.979784  0  0  0.123888  0  0.977869  0  0  0.099186  0.119221  0  0.981095  0
H  H4  1  0.03193609  0.17438129  0.34828934  1  0  0.099673  0  0.93291  0  0  0.116184  0  0.99116  0  0  0.118489  0  0.989714  0  0  0.097834  0.114392  0  0.992584  0
H  H5  1  0.96804126  0.82562055  0.65170714  1  0  0.099645  0  0.933086  0  0  0.1162  0  0.991299  0  0  0.118506  0  0.989852  0  0  0.097839  0.114415  0  0.992711  0
H  H6  1  0.55908498  0.11820051  0.35207084  1  0  0.093811  0  0.936581  0  0  0.108152  0  0.989404  0  0  0.111447  0  0.988139  0  0  0.100847  0.105934  0  0.990145  0
H  H7  1  0.44090174  0.88181091  0.64793761  1  0  0.093736  0  0.936701  0  0  0.10815  0  0.989458  0  0  0.111448  0  0.988189  0  0  0.10084  0.10593  0  0.990203  0
H  H8  1  0.74568941  0.25078568  0.26192570  1  0  0.076436  0  0.971317  0  0  0.087069  0  1.034876  0  0  0.089599  0  1.03336  0  0  0.094406  0.08515  0  1.036075  0
H  H9  1  0.25429661  0.74920652  0.73807517  1  0  0.076308  0  0.971497  0  0  0.086989  0  1.034993  0  0  0.08951  0  1.033497  0  0  0.094404  0.085069  0  1.036193  0
H  H10  1  0.57318020  0.40623659  0.14868270  1  0  0.107834  0  0.974555  0  0  0.118144  0  1.038076  0  0  0.121376  0  1.036349  0  0  0.098859  0.115871  0  1.03937  0
H  H11  1  0.42682014  0.59374700  0.85131382  1  0  0.1079  0  0.974637  0  0  0.118165  0  1.038177  0  0  0.121416  0  1.036421  0  0  0.098824  0.115866  0  1.039499  0
H  H12  1  0.02042204  0.29182368  0.21044157  1  0  0.100285  0  0.961204  0  0  0.111615  0  1.024773  0  0  0.114722  0  1.023311  0  0  0.098714  0.109457  0  1.025609  0
H  H13  1  0.97955350  0.70816749  0.78955222  1  0  0.100342  0  0.961292  0  0  0.111721  0  1.024787  0  0  0.114828  0  1.023324  0  0  0.09866  0.109555  0  1.025636  0
H  H14  1  0.28539123  0.51224716  0.07508268  1  0  0.108803  0  0.946214  0  0  0.122037  0  1.01021  0  0  0.124217  0  1.009646  0  0  0.100725  0.120536  0  1.010701  0
H  H15  1  0.71460969  0.48775032  0.92492198  1  0  0.108814  0  0.946161  0  0  0.122031  0  1.010181  0  0  0.124211  0  1.009617  0  0  0.100702  0.120529  0  1.010669  0
H  H16  1  0.10336910  0.37601346  0.04699307  1  0  0.100528  0  0.947626  0  0  0.116908  0  1.007751  0  0  0.118337  0  1.007381  0  0  0.097938  0.115957  0  1.007934  0
H  H17  1  0.89662417  0.62398511  0.95299863  1  0  0.100597  0  0.947687  0  0  0.116967  0  1.007805  0  0  0.118396  0  1.007437  0  0  0.097979  0.116013  0  1.007987  0
H  H18  1  0.64205849  0.01953426  0.17645125  1  0  0.078267  0  0.979641  0  0  0.084841  0  1.048082  0  0  0.087083  0  1.046526  0  0  0.113363  0.083228  0  1.049159  0
H  H19  1  0.35794513  0.98046961  0.82353830  1  0  0.078277  0  0.979582  0  0  0.08491  0  1.047976  0  0  0.087156  0  1.046411  0  0  0.113396  0.083294  0  1.049053  0
H  H20  1  0.30333384  0.08858737  0.11017510  1  0  0.104166  0  0.989027  0  0  0.111947  0  1.055097  0  0  0.113608  0  1.057517  0  0  0.105431  0.11075  0  1.053559  0
H  H21  1  0.69667581  0.91141967  0.88981746  1  0  0.104162  0  0.989086  0  0  0.111861  0  1.055239  0  0  0.113511  0  1.057672  0  0  0.105383  0.110677  0  1.053687  0
H  H22  1  0.26101706  0.70270897  0.95720053  1  0  0.120164  0  0.971249  0  0  0.128685  0  1.032596  0  0  0.132446  0  1.031186  0  0  0.107383  0.125934  0  1.033871  0
H  H23  1  0.73899528  0.29729378  0.04278731  1  0  0.120078  0  0.971493  0  0  0.128635  0  1.032758  0  0  0.132393  0  1.031357  0  0  0.107376  0.125884  0  1.034034  0
H  H24  1  0.60036044  0.64572634  0.03565691  1  0  0.084995  0  0.957466  0  0  0.094122  0  1.020846  0  0  0.096502  0  1.018758  0  0  0.116263  0.092316  0  1.02244  0
H  H25  1  0.39963729  0.35426794  0.96434130  1  0  0.084999  0  0.957524  0  0  0.094118  0  1.020911  0  0  0.096498  0  1.01882  0  0  0.116283  0.09231  0  1.022509  0
H  H26  1  0.03742281  0.94521719  0.91494055  1  0  0.101415  0  0.930274  0  0  0.118704  0  0.992085  0  0  0.120079  0  0.991606  0  0  0.102598  0.117697  0  0.992547  0
H  H27  1  0.96258474  0.05477917  0.08503883  1  0  0.101418  0  0.93047  0  0  0.118872  0  0.992098  0  0  0.120248  0  0.991621  0  0  0.10266  0.117857  0  0.992551  0
H  H28  1  0.95237208  0.83955886  0.98853643  1  0  0.081537  0  0.940811  0  0  0.101465  0  1.00089  0  0  0.101945  0  1.00126  0  0  0.098537  0.101282  0  1.000514  0
H  H29  1  0.04764291  0.16044175  0.01144301  1  0  0.081602  0  0.940671  0  0  0.101472  0  1.000851  0  0  0.101952  0  1.001222  0  0  0.098592  0.101289  0  1.000472  0
H  H30  1  0.48583465  0.75915717  0.23963592  1  0  0.084356  0  0.944164  0  0  0.093043  0  1.00643  0  0  0.095309  0  1.005079  0  0  0.119936  0.091492  0  1.00714  0
H  H31  1  0.51417545  0.24084988  0.76037330  1  0  0.084331  0  0.944082  0  0  0.093011  0  1.006375  0  0  0.095274  0  1.005031  0  0  0.119958  0.091461  0  1.007084  0
H  H32  1  0.33464392  0.64209762  0.34411575  1  0  0.122682  0  0.959501  0  0  0.131455  0  1.022642  0  0  0.134995  0  1.02078  0  0  0.109386  0.128844  0  1.024219  0
H  H33  1  0.66537492  0.35794784  0.65590864  1  0  0.122558  0  0.959618  0  0  0.131314  0  1.022821  0  0  0.134852  0  1.020961  0  0  0.109374  0.128706  0  1.024387  0
H  H34  1  0.88666268  0.42906284  0.43568075  1  0  0.104335  0  0.946243  0  0  0.116537  0  1.002105  0  0  0.119483  0  1.002006  0  0  0.107583  0.114205  0  1.002758  0
H  H35  1  0.11333821  0.57093677  0.56432085  1  0  0.104295  0  0.946243  0  0  0.116481  0  1.002145  0  0  0.119445  0  1.002026  0  0  0.107572  0.11415  0  1.002798  0
H  H36  1  0.02205036  0.56500626  0.32850555  1  0  0.077028  0  0.940717  0  0  0.086597  0  1.005123  0  0  0.088877  0  1.002985  0  0  0.118071  0.084805  0  1.00686  0
H  H37  1  0.97793597  0.43495496  0.67148283  1  0  0.076942  0  0.94072  0  0  0.086514  0  1.00513  0  0  0.088787  0  1.003  0  0  0.118075  0.084719  0  1.006871  0
H  H38  1  0.59735694  0.35603490  0.48885802  1  0  0.090095  0  0.918117  0  0  0.108988  0  0.972956  0  0  0.110454  0  0.97231  0  0  0.101087  0.107878  0  0.973463  0
H  H39  1  0.40265862  0.64399456  0.51116906  1  0  0.090064  0  0.918087  0  0  0.108957  0  0.972938  0  0  0.110414  0  0.972312  0  0  0.101098  0.10786  0  0.973429  0
H  H40  1  0.36143463  0.40707814  0.43380473  1  0  0.085499  0  0.92465  0  0  0.105028  0  0.980521  0  0  0.105577  0  0.98148  0  0  0.098055  0.104573  0  0.979927  0
H  H41  1  0.63858963  0.59295448  0.56621575  1  0  0.085653  0  0.924575  0  0  0.10509  0  0.980547  0  0  0.105683  0  0.98146  0  0  0.098133  0.104634  0  0.979952  0
C  C42  1  0.09780630  0.96700922  0.30558519  1  0  0.693193  0  3.866222  0  0  0.656226  0  4.15407  0  0  0.688263  0  4.148815  0  0  0.198784  0.634487  0  4.156648  0
C  C43  1  0.90219613  0.03298932  0.69442022  1  0  0.693131  0  3.866334  0  0  0.656252  0  4.154099  0  0  0.688289  0  4.148844  0  0  0.198808  0.634509  0  4.156685  0
C  C44  1  0.16468893  0.11575825  0.34244673  1  0  -0.301195  0  3.707599  0  0  -0.345496  0  3.949133  0  0  -0.350721  0  3.955774  0  0  -0.162029  -0.341698  0  3.944466  0
C  C45  1  0.83529445  0.88424464  0.65755460  1  0  -0.301164  0  3.707724  0  0  -0.345612  0  3.94929  0  0  -0.350844  0  3.955937  0  0  -0.162071  -0.341808  0  3.944595  0
C  C46  1  0.27697188  0.19749350  0.28808829  1  0  0.121435  0  3.775319  0  0  0.143214  0  4.015682  0  0  0.144644  0  4.04041  0  0  -0.01265  0.142002  0  3.998948  0
C  C47  1  0.72301414  0.80250083  0.71191074  1  0  0.121457  0  3.77518  0  0  0.143417  0  4.015373  0  0  0.14485  0  4.040101  0  0  -0.012548  0.142211  0  3.998616  0
C  C48  1  0.48188763  0.18563642  0.30149146  1  0  -0.141001  0  3.749134  0  0  -0.163391  0  3.998322  0  0  -0.167284  0  4.01979  0  0  -0.099197  -0.161071  0  3.98382  0
C  C49  1  0.51809420  0.81436540  0.69850788  1  0  -0.140966  0  3.74883  0  0  -0.163496  0  3.998013  0  0  -0.167392  0  4.019476  0  0  -0.099262  -0.161174  0  3.983506  0
C  C50  1  0.58634663  0.26005266  0.25101779  1  0  -0.062279  0  3.821822  0  0  -0.072508  0  4.075798  0  0  -0.072824  0  4.096913  0  0  -0.096063  -0.071983  0  4.061552  0
C  C51  1  0.41363345  0.73993635  0.74898378  1  0  -0.062039  0  3.821482  0  0  -0.072302  0  4.0755  0  0  -0.07262  0  4.096616  0  0  -0.096059  -0.071777  0  4.061244  0
C  C52  1  0.48886525  0.34678180  0.18652677  1  0  -0.140131  0  3.733562  0  0  -0.164614  0  3.981808  0  0  -0.168047  0  4.003337  0  0  -0.10029  -0.162658  0  3.967323  0
C  C53  1  0.51111708  0.65318905  0.81346687  1  0  -0.140309  0  3.733759  0  0  -0.164821  0  3.982005  0  0  -0.168266  0  4.003513  0  0  -0.100246  -0.162845  0  3.967537  0
C  C54  1  0.28390682  0.35809035  0.17124758  1  0  0.120888  0  3.766479  0  0  0.144861  0  4.001671  0  0  0.146096  0  4.025724  0  0  -0.012258  0.143905  0  3.98526  0
C  C55  1  0.71608043  0.64189864  0.82874784  1  0  0.120846  0  3.766608  0  0  0.14494  0  4.001656  0  0  0.146178  0  4.02571  0  0  -0.012256  0.143982  0  3.98524  0
C  C56  1  0.18011926  0.28335550  0.22241044  1  0  -0.191727  0  3.705583  0  0  -0.22132  0  3.953563  0  0  -0.225404  0  3.974229  0  0  -0.101596  -0.217797  0  3.939049  0
C  C57  1  0.81987244  0.71663133  0.77758904  1  0  -0.191729  0  3.70566  0  0  -0.221443  0  3.953522  0  0  -0.225528  0  3.974181  0  0  -0.101589  -0.217921  0  3.939016  0
C  C58  1  0.17813370  0.44676018  0.09870336  1  0  -0.306049  0  3.698612  0  0  -0.349358  0  3.93587  0  0  -0.354921  0  3.943521  0  0  -0.163813  -0.345519  0  3.930699  0
C  C59  1  0.82185811  0.55323306  0.90129371  1  0  -0.306168  0  3.698593  0  0  -0.349501  0  3.935856  0  0  -0.35507  0  3.943505  0  0  -0.163836  -0.34565  0  3.930672  0
C  C60  1  0.02405709  0.54288714  0.12306196  1  0  0.691881  0  3.865949  0  0  0.648055  0  4.163351  0  0  0.680681  0  4.156884  0  0  0.202086  0.625945  0  4.167012  0
C  C61  1  0.97594070  0.45710821  0.87693749  1  0  0.692028  0  3.865855  0  0  0.648166  0  4.163289  0  0  0.680793  0  4.156821  0  0  0.202092  0.626054  0  4.166948  0
C  C62  1  0.55155155  0.95245536  0.12772690  1  0  0.124327  0  3.719081  0  0  0.093213  0  3.967949  0  0  0.100852  0  3.98603  0  0  0.041778  0.088274  0  3.955654  0
C  C63  1  0.44844329  0.04754000  0.87227168  1  0  0.124361  0  3.71905  0  0  0.093149  0  3.967897  0  0  0.100787  0  3.985976  0  0  0.04171  0.088218  0  3.955598  0
C  C64  1  0.36173193  0.99058177  0.08931680  1  0  -0.163164  0  3.692687  0  0  -0.180401  0  3.935299  0  0  -0.189043  0  3.958365  0  0  -0.083903  -0.174882  0  3.920019  0
C  C65  1  0.63826256  0.00941252  0.91067005  1  0  -0.163266  0  3.692539  0  0  -0.180392  0  3.935189  0  0  -0.189026  0  3.958259  0  0  -0.083919  -0.174884  0  3.919902  0
C  C66  1  0.25073467  0.90200266  0.02660580  1  0  0.173167  0  3.68527  0  0  0.18858  0  3.920344  0  0  0.195134  0  3.940695  0  0  0.021001  0.184314  0  3.906557  0
C  C67  1  0.74927763  0.09799476  0.97338570  1  0  0.173433  0  3.684734  0  0  0.188761  0  3.919916  0  0  0.19532  0  3.940264  0  0  0.021072  0.184487  0  3.906128  0
C  C68  1  0.34005741  0.77724750  0.00523087  1  0  -0.167967  0  3.685747  0  0  -0.186765  0  3.936292  0  0  -0.195649  0  3.957514  0  0  -0.083834  -0.181044  0  3.92216  0
C  C69  1  0.65995227  0.22275527  0.99476721  1  0  -0.167948  0  3.685596  0  0  -0.186692  0  3.936105  0  0  -0.195576  0  3.957326  0  0  -0.08381  -0.180971  0  3.921977  0
C  C70  1  0.52855716  0.74428099  0.04771443  1  0  0.126828  0  3.703078  0  0  0.093185  0  3.958892  0  0  0.100627  0  3.976927  0  0  0.042738  0.088512  0  3.946558  0
C  C71  1  0.47144507  0.25572182  0.95227931  1  0  0.126873  0  3.703094  0  0  0.093189  0  3.958897  0  0  0.100636  0  3.976926  0  0  0.042696  0.088513  0  3.946567  0
C  C72  1  0.04332804  0.93449319  0.98305430  1  0  -0.158973  0  3.697565  0  0  -0.203463  0  3.946253  0  0  -0.204496  0  3.956914  0  0  -0.155306  -0.202795  0  3.939069  0
C  C73  1  0.95667661  0.06550532  0.01692423  1  0  -0.159231  0  3.69773  0  0  -0.203828  0  3.946555  0  0  -0.204872  0  3.957223  0  0  -0.15556  -0.203124  0  3.939339  0
C  C74  1  0.57239402  0.68715754  0.28474100  1  0  0.150451  0  3.67979  0  0  0.118161  0  3.928338  0  0  0.126141  0  3.946244  0  0  0.055859  0.113275  0  3.915504  0
C  C75  1  0.42761929  0.31285804  0.71527040  1  0  0.150475  0  3.679723  0  0  0.118118  0  3.928385  0  0  0.126101  0  3.946285  0  0  0.055851  0.113232  0  3.915553  0
C  C76  1  0.48683002  0.61813953  0.34321090  1  0  -0.156023  0  3.674484  0  0  -0.175365  0  3.921423  0  0  -0.184036  0  3.943149  0  0  -0.076456  -0.169752  0  3.906881  0
C  C77  1  0.51317483  0.38188784  0.65680169  1  0  -0.155736  0  3.674875  0  0  -0.175182  0  3.92179  0  0  -0.183853  0  3.943516  0  0  -0.076418  -0.169565  0  3.907251  0
C  C78  1  0.59763426  0.52290834  0.39925037  1  0  0.16135  0  3.727935  0  0  0.17646  0  3.966722  0  0  0.181587  0  3.990284  0  0  0.017961  0.173178  0  3.950694  0
C  C79  1  0.40237911  0.47710830  0.60076228  1  0  0.160916  0  3.728611  0  0  0.176412  0  3.966864  0  0  0.181545  0  3.990432  0  0  0.017896  0.173108  0  3.950872  0
C  C80  1  0.79398872  0.50335828  0.39408815  1  0  -0.187728  0  3.736241  0  0  -0.204481  0  3.983458  0  0  -0.213839  0  4.006418  0  0  -0.087893  -0.1986  0  3.968434  0
C  C81  1  0.20601235  0.49664133  0.60592023  1  0  -0.187405  0  3.736249  0  0  -0.204263  0  3.983357  0  0  -0.213636  0  4.006308  0  0  -0.08773  -0.198377  0  3.968335  0
C  C82  1  0.87021971  0.57734141  0.33450055  1  0  0.143649  0  3.717468  0  0  0.109936  0  3.969835  0  0  0.117686  0  3.988356  0  0  0.049718  0.104885  0  3.957687  0
C  C83  1  0.12978349  0.42264003  0.66549559  1  0  0.143656  0  3.717442  0  0  0.109932  0  3.969809  0  0  0.117683  0  3.988339  0  0  0.049601  0.104884  0  3.957656  0
C  C84  1  0.50873584  0.44840267  0.46361113  1  0  -0.155307  0  3.690078  0  0  -0.200232  0  3.945537  0  0  -0.201892  0  3.957344  0  0  -0.151217  -0.198861  0  3.937145  0
C  C85  1  0.49129266  0.55162779  0.53640539  1  0  -0.155249  0  3.689837  0  0  -0.200239  0  3.945219  0  0  -0.201935  0  3.957034  0  0  -0.151334  -0.198885  0  3.936857  0
N  N86  1  0.63400351  0.83046844  0.10854288  1  0  -0.352697  0  3.325633  0  0  -0.268136  0  3.607073  0  0  -0.287919  0  3.62117  0  0  -0.342111  -0.254844  0  3.59735  0
N  N87  1  0.36600312  0.16953114  0.89145367  1  0  -0.352768  0  3.32567  0  0  -0.268125  0  3.607062  0  0  -0.287913  0  3.621171  0  0  -0.342073  -0.254831  0  3.597336  0
N  N88  1  0.76125576  0.66781697  0.28028000  1  0  -0.337916  0  3.330233  0  0  -0.252179  0  3.606236  0  0  -0.272285  0  3.621144  0  0  -0.33085  -0.238799  0  3.59608  0
N  N89  1  0.23874910  0.33216767  0.71972000  1  0  -0.338055  0  3.330482  0  0  -0.252249  0  3.606475  0  0  -0.272353  0  3.621376  0  0  -0.330906  -0.238872  0  3.596321  0
O  O90  1  0.16120897  0.85712841  0.34408850  1  0  -0.633714  0  1.882371  0  0  -0.592977  0  2.092684  0  0  -0.614853  0  2.084099  0  0  -0.33965  -0.57714  0  2.097912  0
O  O91  1  0.83881115  0.14287325  0.65591725  1  0  -0.63366  0  1.882334  0  0  -0.592943  0  2.092614  0  0  -0.614821  0  2.084038  0  0  -0.3397  -0.577107  0  2.097841  0
O  O92  1  0.97294895  0.96853796  0.23337688  1  0  -0.670371  0  2.022995  0  0  -0.594196  0  2.290465  0  0  -0.623883  0  2.276985  0  0  -0.344679  -0.573518  0  2.298847  0
O  O93  1  0.02705316  0.03144989  0.76662659  1  0  -0.670353  0  2.023115  0  0  -0.594196  0  2.290544  0  0  -0.623881  0  2.277063  0  0  -0.344634  -0.57352  0  2.29893  0
O  O94  1  0.84827137  0.50207670  0.11163544  1  0  -0.639151  0  1.930812  0  0  -0.590712  0  2.159153  0  0  -0.613902  0  2.150819  0  0  -0.323406  -0.574734  0  2.164423  0
O  O95  1  0.15172500  0.49791439  0.88837002  1  0  -0.639284  0  1.930744  0  0  -0.590749  0  2.159022  0  0  -0.613933  0  2.15067  0  0  -0.323393  -0.574769  0  2.164287  0
O  O96  1  0.08950541  0.66531385  0.15649480  1  0  -0.645409  0  2.003248  0  0  -0.567857  0  2.271574  0  0  -0.596252  0  2.257365  0  0  -0.336829  -0.548046  0  2.280515  0
O  O97  1  0.91049388  0.33468683  0.84350051  1  0  -0.645436  0  2.003398  0  0  -0.56787  0  2.271708  0  0  -0.596267  0  2.257508  0  0  -0.336839  -0.54806  0  2.280649  0
