# generated using pymatgen
data_ErH29C26(NO4)2
_symmetry_space_group_name_H-M   'P 1'
_cell_length_a   10.80290341
_cell_length_b   11.44648668
_cell_length_c   12.60800000
_cell_angle_alpha   110.73870267
_cell_angle_beta   100.65523834
_cell_angle_gamma   109.97133912
_symmetry_Int_Tables_number   1
_chemical_formula_structural   ErH29C26(NO4)2
_chemical_formula_sum   'Er2 H58 C52 N4 O16'
_cell_volume   1284.71360676
_cell_formula_units_Z   2
loop_
 _symmetry_equiv_pos_site_id
 _symmetry_equiv_pos_as_xyz
  1  'x, y, z'
loop_
 _atom_site_type_symbol
 _atom_site_label
 _atom_site_symmetry_multiplicity
 _atom_site_fract_x
 _atom_site_fract_y
 _atom_site_fract_z
 _atom_site_occupancy
 _atom_site_hle17_bader_spin_density
 _atom_site_hle17_ddec_charge
 _atom_site_hle17_ddec_spin_density
 _atom_site_hle17_ddec_sum_bond_order
 _atom_site_hle17_magmom
 _atom_site_hse06_10hf_bader_spin_density
 _atom_site_hse06_10hf_ddec_charge
 _atom_site_hse06_10hf_ddec_spin_density
 _atom_site_hse06_10hf_ddec_sum_bond_order
 _atom_site_hse06_10hf_magmom
 _atom_site_hse06_bader_spin_density
 _atom_site_hse06_ddec_charge
 _atom_site_hse06_ddec_spin_density
 _atom_site_hse06_ddec_sum_bond_order
 _atom_site_hse06_magmom
 _atom_site_pbe_bader_charge
 _atom_site_pbe_bader_spin_density
 _atom_site_pbe_cm5_charge
 _atom_site_pbe_ddec_charge
 _atom_site_pbe_ddec_spin_density
 _atom_site_pbe_ddec_sum_bond_order
 _atom_site_pbe_magmom
Er  Er0  1  0.90276019  0.61359989  0.56859170  1  0  2.171211  0  1.69398  0  0  2.002256  0  2.194883  0  0  2.0592  0  2.14777  0  2.148495  0  1.495965  1.959927  0  2.230582  0
Er  Er1  1  0.09724540  0.38640176  0.43140670  1  0  2.171181  0  1.694036  0  0  2.002183  0  2.195014  0  0  2.059179  0  2.147847  0  2.148379  0  1.495969  1.959866  0  2.230699  0
H  H2  1  0.49664716  0.45760011  0.77551994  1  0  0.419826  0  0.770771  0  0  0.404267  0  0.820654  0  0  0.413729  0  0.8109  0  0.617661  0  0.356528  0.397367  0  0.827978  0
H  H3  1  0.50334340  0.54239528  0.22447645  1  0  0.419856  0  0.770706  0  0  0.404299  0  0.820592  0  0  0.413755  0  0.810843  0  0.617749  0  0.356508  0.3974  0  0.827917  0
H  H4  1  0.53440563  0.73685165  0.61691939  1  0  0.099551  0  0.939214  0  0  0.114636  0  1.000488  0  0  0.117028  0  0.999292  0  0.034899  0  0.095291  0.112836  0  1.001594  0
H  H5  1  0.46559618  0.26315208  0.38309098  1  0  0.09959  0  0.939216  0  0  0.114721  0  1.000433  0  0  0.117122  0  0.999226  0  0.035079  0  0.095304  0.112921  0  1.00154  0
H  H6  1  0.47195556  0.61601398  0.46525385  1  0  0.12741  0  0.915222  0  0  0.142896  0  0.971781  0  0  0.146046  0  0.969964  0  0.097027  0  0.110391  0.140609  0  0.973284  0
H  H7  1  0.52805191  0.38398767  0.53475754  1  0  0.127353  0  0.915269  0  0  0.142859  0  0.971821  0  0  0.14603  0  0.969981  0  0.096905  0  0.110388  0.140575  0  0.97332  0
H  H8  1  0.48005931  0.83215857  0.46447583  1  0  0.054996  0  0.963314  0  0  0.075351  0  1.022615  0  0  0.075832  0  1.023492  0  0.011924  0  0.083946  0.075007  0  1.022058  0
H  H9  1  0.51993972  0.16783682  0.53552587  1  0  0.055002  0  0.96335  0  0  0.075369  0  1.022616  0  0  0.075855  0  1.023489  0  0.012052  0  0.083973  0.075027  0  1.022059  0
H  H10  1  0.61652209  0.80636838  0.41751216  1  0  0.070907  0  0.958868  0  0  0.085182  0  1.028707  0  0  0.086848  0  1.028052  0  0.047803  0  0.087561  0.083975  0  1.029206  0
H  H11  1  0.38348022  0.19363014  0.58249661  1  0  0.070928  0  0.958818  0  0  0.085198  0  1.028647  0  0  0.086863  0  1.027997  0  0.048021  0  0.087554  0.083992  0  1.029145  0
H  H12  1  0.78232659  0.96620131  0.63914704  1  0  0.057648  0  0.949363  0  0  0.077127  0  1.011465  0  0  0.07743  0  1.012904  0  0.008842  0  0.084046  0.07684  0  1.010603  0
H  H13  1  0.21767383  0.03379929  0.36085576  1  0  0.057596  0  0.949397  0  0  0.077115  0  1.011455  0  0  0.077419  0  1.012895  0  0.008871  0  0.084044  0.07683  0  1.010593  0
H  H14  1  0.64542162  0.00961363  0.66707336  1  0  0.042597  0  0.965775  0  0  0.062322  0  1.030978  0  0  0.062759  0  1.031459  0  -0.00244  0  0.079385  0.061896  0  1.030835  0
H  H15  1  0.35457831  0.99039010  0.33292878  1  0  0.042629  0  0.965755  0  0  0.062334  0  1.030975  0  0  0.062768  0  1.031457  0  -0.002189  0  0.079389  0.061902  0  1.030841  0
H  H16  1  0.64329455  0.08201538  0.49497910  1  0  0.059223  0  0.953801  0  0  0.080782  0  1.011237  0  0  0.081161  0  1.012432  0  0.051112  0  0.088618  0.080496  0  1.01044  0
H  H17  1  0.35670167  0.91797793  0.50501513  1  0  0.059192  0  0.953858  0  0  0.080742  0  1.011294  0  0  0.08112  0  1.012488  0  0.051206  0  0.088613  0.080465  0  1.010492  0
H  H18  1  0.79076837  0.05166686  0.48733950  1  0  0.06044  0  0.960127  0  0  0.079057  0  1.024404  0  0  0.079359  0  1.02577  0  0.032105  0  0.08862  0.078861  0  1.023484  0
H  H19  1  0.20922647  0.94832124  0.51265443  1  0  0.060434  0  0.960167  0  0  0.079014  0  1.024485  0  0  0.079317  0  1.025852  0  0.032202  0  0.088626  0.078818  0  1.023568  0
H  H20  1  0.77478107  0.26954414  0.70562973  1  0  0.085875  0  0.9359  0  0  0.100973  0  0.997544  0  0  0.103261  0  0.996022  0  0.013212  0  0.090373  0.099392  0  0.998621  0
H  H21  1  0.22521699  0.73045542  0.29435729  1  0  0.086018  0  0.935874  0  0  0.101111  0  0.997502  0  0  0.103396  0  0.995983  0  0.013325  0  0.09044  0.099535  0  0.998578  0
H  H22  1  0.92137951  0.22989041  0.70788740  1  0  0.089997  0  0.943296  0  0  0.106255  0  1.003983  0  0  0.107672  0  1.004506  0  0.026455  0  0.093638  0.105259  0  1.003713  0
H  H23  1  0.07861294  0.77010291  0.29210861  1  0  0.089951  0  0.943249  0  0  0.106214  0  1.003929  0  0  0.107631  0  1.004456  0  0.026651  0  0.09361  0.105224  0  1.003659  0
H  H24  1  0.43590449  0.76273145  0.82257194  1  0  0.091521  0  0.93289  0  0  0.107248  0  0.99231  0  0  0.109313  0  0.991452  0  0.034473  0  0.093755  0.105747  0  0.993065  0
H  H25  1  0.56409028  0.23726915  0.17742996  1  0  0.091518  0  0.932907  0  0  0.107212  0  0.992347  0  0  0.109273  0  0.991491  0  0.034176  0  0.093775  0.105706  0  0.993096  0
H  H26  1  0.29033095  0.79162547  0.85129580  1  0  0.094207  0  0.940946  0  0  0.107838  0  1.003755  0  0  0.10954  0  1.00427  0  0.041739  0  0.094055  0.106537  0  1.003659  0
H  H27  1  0.70965773  0.20836784  0.14869883  1  0  0.094165  0  0.941073  0  0  0.107804  0  1.003851  0  0  0.109502  0  1.004367  0  0.041739  0  0.094041  0.106498  0  1.003751  0
H  H28  1  0.44091229  0.87950571  0.68881490  1  0  0.062018  0  0.949579  0  0  0.083612  0  1.007885  0  0  0.083627  0  1.009212  0  0.01441  0  0.091469  0.083486  0  1.007138  0
H  H29  1  0.55908951  0.12050010  0.31119217  1  0  0.062036  0  0.949631  0  0  0.083549  0  1.007984  0  0  0.083561  0  1.009315  0  0.014371  0  0.091478  0.083425  0  1.007238  0
H  H30  1  0.28882561  0.89615530  0.70522834  1  0  0.07179  0  0.944366  0  0  0.087445  0  1.008807  0  0  0.088024  0  1.010504  0  0.034233  0  0.092858  0.086913  0  1.007778  0
H  H31  1  0.71117384  0.10384947  0.29477406  1  0  0.071829  0  0.944357  0  0  0.087469  0  1.008755  0  0  0.088044  0  1.010457  0  0.034144  0  0.092881  0.08694  0  1.007727  0
H  H32  1  0.57399532  0.04342125  0.91043008  1  0  0.054556  0  0.950328  0  0  0.073963  0  1.012743  0  0  0.074142  0  1.014355  0  0.025015  0  0.08168  0.073626  0  1.011998  0
H  H33  1  0.42599522  0.95657622  0.08957808  1  0  0.054598  0  0.950331  0  0  0.073957  0  1.012807  0  0  0.074139  0  1.014422  0  0.025122  0  0.081675  0.07362  0  1.012064  0
H  H34  1  0.41929560  0.05391320  0.92778752  1  0  0.055898  0  0.954477  0  0  0.073979  0  1.020322  0  0  0.074001  0  1.022579  0  0.022166  0  0.083012  0.073819  0  1.019031  0
H  H35  1  0.58069869  0.94608844  0.07221226  1  0  0.055858  0  0.954325  0  0  0.073894  0  1.02024  0  0  0.073919  0  1.022491  0  0.022308  0  0.082964  0.073733  0  1.018951  0
H  H36  1  0.57419518  0.15107158  0.77126017  1  0  0.055693  0  0.94595  0  0  0.0761  0  1.005572  0  0  0.076336  0  1.006387  0  -0.009574  0  0.086582  0.075797  0  1.005199  0
H  H37  1  0.42581140  0.84892173  0.22874205  1  0  0.055739  0  0.94596  0  0  0.076099  0  1.005644  0  0  0.076334  0  1.006459  0  -0.009739  0  0.086588  0.075794  0  1.005272  0
H  H38  1  0.40527086  0.13702571  0.76296791  1  0  0.068417  0  0.957364  0  0  0.084031  0  1.023862  0  0  0.08434  0  1.025841  0  0.049906  0  0.090551  0.083697  0  1.02265  0
H  H39  1  0.59472861  0.86297490  0.23702998  1  0  0.06831  0  0.957459  0  0  0.083967  0  1.023902  0  0  0.084276  0  1.025883  0  0.049835  0  0.090531  0.083634  0  1.022692  0
H  H40  1  0.66999018  0.32783959  0.99215999  1  0  0.105871  0  0.924022  0  0  0.121739  0  0.978432  0  0  0.123552  0  0.978582  0  0.069111  0  0.102478  0.120413  0  0.978522  0
H  H41  1  0.33001255  0.67216831  0.00782886  1  0  0.105818  0  0.924072  0  0  0.121707  0  0.978482  0  0  0.123523  0  0.978626  0  0.069344  0  0.102442  0.120376  0  0.978569  0
H  H42  1  0.49740130  0.30477501  0.98379991  1  0  0.107416  0  0.92424  0  0  0.122192  0  0.984554  0  0  0.123948  0  0.984598  0  0.051098  0  0.105386  0.121007  0  0.984538  0
H  H43  1  0.50260899  0.69522872  0.01620466  1  0  0.107356  0  0.924095  0  0  0.122117  0  0.984465  0  0  0.123872  0  0.984516  0  0.050944  0  0.105324  0.120931  0  0.984447  0
H  H44  1  0.99998042  0.90558972  0.54028767  1  0  0.086763  0  0.954676  0  0  0.092971  0  1.022114  0  0  0.096028  0  1.018459  0  0.111721  0  0.124176  0.090676  0  1.024813  0
H  H45  1  0.00002750  0.09441401  0.45971534  1  0  0.086772  0  0.954714  0  0  0.092979  0  1.022139  0  0  0.096041  0  1.018486  0  0.111963  0  0.124223  0.090695  0  1.024814  0
H  H46  1  0.13345622  0.16851093  0.65049912  1  0  0.129577  0  0.932971  0  0  0.139754  0  0.988957  0  0  0.143871  0  0.986839  0  0.123257  0  0.118272  0.136718  0  0.990766  0
H  H47  1  0.86655549  0.83149175  0.34949820  1  0  0.129646  0  0.932921  0  0  0.139837  0  0.988895  0  0  0.143955  0  0.986769  0  0.123086  0  0.118307  0.136799  0  0.990709  0
H  H48  1  0.23525178  0.28355981  0.87732066  1  0  0.110989  0  0.95844  0  0  0.12131  0  1.018441  0  0  0.124514  0  1.016153  0  0.10643  0  0.1096  0.118959  0  1.020112  0
H  H49  1  0.76475850  0.71644392  0.12267756  1  0  0.110982  0  0.958498  0  0  0.12131  0  1.018495  0  0  0.124516  0  1.016192  0  0.10648  0  0.109592  0.118952  0  1.020172  0
H  H50  1  0.27464140  0.25966587  0.06822088  1  0  0.108088  0  0.961833  0  0  0.115539  0  1.027731  0  0  0.119752  0  1.024491  0  0.098256  0  0.104188  0.112504  0  1.030078  0
H  H51  1  0.72535574  0.74033161  0.93177881  1  0  0.108135  0  0.961759  0  0  0.115572  0  1.027683  0  0  0.119779  0  1.02445  0  0.098297  0  0.104184  0.112531  0  1.030037  0
H  H52  1  0.24512860  0.10895583  0.17128007  1  0  0.111269  0  0.934129  0  0  0.124303  0  0.990219  0  0  0.126927  0  0.98986  0  0.057146  0  0.110729  0.122368  0  0.990618  0
H  H53  1  0.75485861  0.89104686  0.82872369  1  0  0.111355  0  0.934161  0  0  0.124422  0  0.990184  0  0  0.12701  0  0.98987  0  0.056799  0  0.110777  0.122487  0  0.990586  0
H  H54  1  0.14466753  0.86940552  0.15796771  1  0  0.094265  0  0.964344  0  0  0.104648  0  1.03088  0  0  0.106951  0  1.029926  0  0.047866  0  0.107297  0.102986  0  1.031552  0
H  H55  1  0.85531829  0.13059405  0.84203007  1  0  0.094272  0  0.964335  0  0  0.104608  0  1.030917  0  0  0.10691  0  1.029968  0  0.047838  0  0.107271  0.102945  0  1.031591  0
H  H56  1  0.99149428  0.61269864  0.02866613  1  0  0.100887  0  0.946794  0  0  0.112667  0  1.003158  0  0  0.115738  0  1.002313  0  0.053817  0  0.10769  0.110475  0  1.003826  0
H  H57  1  0.00850236  0.38730196  0.97132972  1  0  0.100927  0  0.946735  0  0  0.112673  0  1.003134  0  0  0.115745  0  1.002294  0  0.053754  0  0.107711  0.110482  0  1.003801  0
H  H58  1  0.89312969  0.52230742  0.80378998  1  0  0.08083  0  0.956202  0  0  0.089282  0  1.018702  0  0  0.092114  0  1.015972  0  0.129006  0  0.119826  0.087175  0  1.020664  0
H  H59  1  0.10687827  0.47769110  0.19620541  1  0  0.080774  0  0.956238  0  0  0.089235  0  1.018745  0  0  0.092071  0  1.016012  0  0.128991  0  0.119795  0.087135  0  1.020699  0
C  C60  1  0.68910992  0.68891584  0.55290339  1  0  0.693214  0  3.85859  0  0  0.653048  0  4.154756  0  0  0.686393  0  4.147521  0  1.520368  0  0.184529  0.630498  0  4.158568  0
C  C61  1  0.31089562  0.31109414  0.44711196  1  0  0.693464  0  3.858524  0  0  0.653339  0  4.154608  0  0  0.68668  0  4.147388  0  1.520435  0  0.184593  0.630785  0  4.158438  0
C  C62  1  0.56091024  0.71537181  0.53418603  1  0  -0.262078  0  3.662267  0  0  -0.299212  0  3.914417  0  0  -0.305061  0  3.921982  0  -0.04313  0  -0.166205  -0.295211  0  3.909258  0
C  C63  1  0.43909534  0.28463192  0.46582494  1  0  -0.262116  0  3.662124  0  0  -0.299358  0  3.914341  0  0  -0.305217  0  3.921888  0  -0.0433  0  -0.166257  -0.295361  0  3.909187  0
C  C64  1  0.58130646  0.83071450  0.49551583  1  0  -0.089936  0  3.707339  0  0  -0.133558  0  3.973404  0  0  -0.133818  0  3.986937  0  -0.006691  0  -0.172847  -0.133299  0  3.96399  0
C  C65  1  0.41869398  0.16928194  0.50448642  1  0  -0.089993  0  3.707282  0  0  -0.133592  0  3.973346  0  0  -0.133862  0  3.986885  0  -0.007042  0  -0.172863  -0.133336  0  3.963932  0
C  C66  1  0.68919333  0.97456883  0.59600438  1  0  -0.110763  0  3.697604  0  0  -0.15123  0  3.964325  0  0  -0.152386  0  3.979168  0  -0.026243  0  -0.170197  -0.150137  0  3.953956  0
C  C67  1  0.31080851  0.02543074  0.40399593  1  0  -0.110685  0  3.697577  0  0  -0.151153  0  3.96427  0  0  -0.152318  0  3.979134  0  -0.026122  0  -0.170175  -0.150062  0  3.953906  0
C  C68  1  0.73595336  0.08261968  0.54946199  1  0  -0.078553  0  3.680409  0  0  -0.118715  0  3.941278  0  0  -0.119245  0  3.955824  0  -0.037988  0  -0.164968  -0.118233  0  3.931128  0
C  C69  1  0.26404710  0.91737259  0.45053337  1  0  -0.078529  0  3.680504  0  0  -0.118668  0  3.941386  0  0  -0.119189  0  3.955923  0  -0.038403  0  -0.164995  -0.11819  0  3.931255  0
C  C70  1  0.83257655  0.23106984  0.64978870  1  0  -0.264161  0  3.667478  0  0  -0.306627  0  3.924108  0  0  -0.311836  0  3.931177  0  -0.035268  0  -0.168069  -0.302994  0  3.919125  0
C  C71  1  0.16742672  0.76892660  0.35020686  1  0  -0.264346  0  3.667633  0  0  -0.306768  0  3.924231  0  0  -0.311987  0  3.931299  0  -0.035926  0  -0.16808  -0.303156  0  3.919275  0
C  C72  1  0.89258115  0.33012344  0.59760735  1  0  0.757618  0  3.786859  0  0  0.720283  0  4.075778  0  0  0.75513  0  4.064614  0  1.582646  0  0.229486  0.696549  0  4.082424  0
C  C73  1  0.10742966  0.66987092  0.40238477  1  0  0.75794  0  3.786458  0  0  0.720543  0  4.07547  0  0  0.755411  0  4.064275  0  1.582816  0  0.229672  0.696806  0  4.082128  0
C  C74  1  0.24275458  0.64133427  0.67066342  1  0  0.752055  0  3.820393  0  0  0.713723  0  4.105909  0  0  0.74848  0  4.095057  0  1.57842  0  0.218861  0.690073  0  4.112276  0
C  C75  1  0.75725007  0.35866738  0.32932928  1  0  0.752038  0  3.820381  0  0  0.713691  0  4.10593  0  0  0.748444  0  4.095095  0  1.579717  0  0.218803  0.690038  0  4.112289  0
C  C76  1  0.34295664  0.77378811  0.78442454  1  0  -0.252252  0  3.65154  0  0  -0.291219  0  3.90151  0  0  -0.29636  0  3.908046  0  -0.043164  0  -0.164238  -0.287711  0  3.897032  0
C  C77  1  0.65703580  0.22620520  0.21557307  1  0  -0.252236  0  3.651765  0  0  -0.291187  0  3.901695  0  0  -0.296321  0  3.908228  0  -0.043107  0  -0.164296  -0.287648  0  3.897189  0
C  C78  1  0.38506715  0.89656268  0.75331435  1  0  -0.082352  0  3.664447  0  0  -0.121621  0  3.925228  0  0  -0.121955  0  3.939012  0  -0.012192  0  -0.162045  -0.121217  0  3.91571  0
C  C79  1  0.61492620  0.10343688  0.24668699  1  0  -0.082536  0  3.664927  0  0  -0.121647  0  3.925493  0  0  -0.121976  0  3.939267  0  -0.011936  0  -0.162096  -0.121259  0  3.915979  0
C  C80  1  0.47476442  0.03883584  0.86264184  1  0  -0.107751  0  3.688047  0  0  -0.147814  0  3.950008  0  0  -0.148732  0  3.964588  0  -0.030331  0  -0.169808  -0.146825  0  3.939779  0
C  C81  1  0.52523174  0.96116789  0.13736685  1  0  -0.107755  0  3.688227  0  0  -0.147732  0  3.950034  0  0  -0.148654  0  3.964612  0  -0.030078  0  -0.169767  -0.146742  0  3.939817  0
C  C82  1  0.50393343  0.15525378  0.82424063  1  0  -0.084769  0  3.692342  0  0  -0.127216  0  3.955241  0  0  -0.127679  0  3.970185  0  0.015424  0  -0.165964  -0.126744  0  3.945058  0
C  C83  1  0.49607121  0.84474995  0.17577019  1  0  -0.084519  0  3.692134  0  0  -0.126948  0  3.954985  0  0  -0.127419  0  3.969945  0  0.015156  0  -0.165893  -0.126483  0  3.944809  0
C  C84  1  0.56751889  0.30103146  0.93041653  1  0  -0.264863  0  3.68783  0  0  -0.30255  0  3.936706  0  0  -0.308811  0  3.946409  0  -0.028068  0  -0.15836  -0.298267  0  3.929925  0
C  C85  1  0.43247781  0.69896081  0.06958458  1  0  -0.264911  0  3.687509  0  0  -0.302612  0  3.936491  0  0  -0.308885  0  3.946206  0  -0.028064  0  -0.15829  -0.298319  0  3.929694  0
C  C86  1  0.58737711  0.41563127  0.89289595  1  0  0.692345  0  3.760543  0  0  0.647398  0  4.069331  0  0  0.679169  0  4.061111  0  1.502569  0  0.23685  0.62581  0  4.074276  0
C  C87  1  0.41260456  0.58435267  0.10709376  1  0  0.69243  0  3.761179  0  0  0.647442  0  4.070053  0  0  0.679211  0  4.061837  0  1.502906  0  0.236809  0.625863  0  4.074991  0
C  C88  1  0.04770120  0.96077821  0.63845342  1  0  0.154542  0  3.705186  0  0  0.122352  0  3.96988  0  0  0.131376  0  3.983992  0  0.539715  0  0.061067  0.116559  0  3.960264  0
C  C89  1  0.95230675  0.03922239  0.36154660  1  0  0.154481  0  3.705086  0  0  0.122286  0  3.969799  0  0  0.131308  0  3.983915  0  0.539274  0  0.060977  0.116493  0  3.960187  0
C  C90  1  0.12097177  0.10702623  0.70050535  1  0  -0.124085  0  3.704599  0  0  -0.137167  0  3.962198  0  0  -0.144178  0  3.98121  0  0.005386  0  -0.07938  -0.132697  0  3.949455  0
C  C91  1  0.87903478  0.89297125  0.29949266  1  0  -0.124136  0  3.70458  0  0  -0.137244  0  3.9622  0  0  -0.144253  0  3.981207  0  0.005743  0  -0.079435  -0.132775  0  3.949457  0
C  C92  1  0.17857990  0.17054473  0.82532904  1  0  -0.041279  0  3.674693  0  0  -0.065528  0  3.920647  0  0  -0.062961  0  3.938639  0  -0.096098  0  -0.060523  -0.066837  0  3.908321  0
C  C93  1  0.82142805  0.82945588  0.17467257  1  0  -0.041148  0  3.674833  0  0  -0.065404  0  3.920736  0  0  -0.062833  0  3.938735  0  -0.096453  0  -0.060454  -0.066711  0  3.908411  0
C  C94  1  0.16339761  0.08769583  0.88711558  1  0  0.019549  0  3.781488  0  0  0.038557  0  4.007512  0  0  0.035334  0  4.033335  0  -0.0678  0  -0.002352  0.040332  0  3.990479  0
C  C95  1  0.83660701  0.91230999  0.11289035  1  0  0.019394  0  3.781535  0  0  0.038483  0  4.007491  0  0  0.035252  0  4.033313  0  -0.067493  0  -0.002332  0.040272  0  3.99047  0
C  C96  1  0.22047584  0.14650076  0.01625528  1  0  -0.101213  0  3.742334  0  0  -0.1258  0  4.000203  0  0  -0.128859  0  4.022243  0  0.018254  0  -0.085066  -0.123683  0  3.985724  0
C  C97  1  0.77952454  0.85350610  0.98374715  1  0  -0.101276  0  3.742243  0  0  -0.125868  0  4.000108  0  0  -0.128922  0  4.022147  0  0.018423  0  -0.085097  -0.123745  0  3.985626  0
C  C98  1  0.20318488  0.06291211  0.07271104  1  0  -0.10129  0  3.734419  0  0  -0.123968  0  3.992341  0  0  -0.126688  0  4.014416  0  -0.035059  0  -0.083896  -0.122173  0  3.977879  0
C  C99  1  0.79680468  0.93709162  0.92728787  1  0  -0.101367  0  3.73459  0  0  -0.124079  0  3.992471  0  0  -0.126772  0  4.014559  0  -0.0348  0  -0.08394  -0.122286  0  3.97801  0
C  C100  1  0.12556045  0.91457300  0.00445414  1  0  0.018946  0  3.803849  0  0  0.03251  0  4.039449  0  0  0.030228  0  4.063837  0  0.035305  0  -0.005164  0.033824  0  4.023648  0
C  C101  1  0.87442958  0.08543177  0.99554994  1  0  0.018863  0  3.804262  0  0  0.03251  0  4.039727  0  0  0.030231  0  4.064104  0  0.035675  0  -0.005172  0.033828  0  4.023921  0
C  C102  1  0.10073720  0.82518617  0.05982988  1  0  -0.060287  0  3.713681  0  0  -0.085035  0  3.963356  0  0  -0.083781  0  3.983568  0  -0.027495  0  -0.068607  -0.085734  0  3.949945  0
C  C103  1  0.89924956  0.17481340  0.94017121  1  0  -0.060274  0  3.713801  0  0  -0.085013  0  3.963466  0  0  -0.083753  0  3.983671  0  -0.027831  0  -0.068565  -0.085716  0  3.950057  0
C  C104  1  0.01764980  0.68413664  0.98881978  1  0  -0.112343  0  3.739652  0  0  -0.125419  0  3.993181  0  0  -0.131679  0  4.014148  0  -0.022866  0  -0.083108  -0.121172  0  3.978785  0
C  C105  1  0.98234497  0.31586397  0.01118133  1  0  -0.112392  0  3.739673  0  0  -0.125422  0  3.993224  0  0  -0.131685  0  4.014196  0  -0.022524  0  -0.083138  -0.121179  0  3.978832  0
C  C106  1  0.96145319  0.63264168  0.86258739  1  0  0.162764  0  3.681881  0  0  0.133354  0  3.938575  0  0  0.141319  0  3.953365  0  0.532667  0  0.063679  0.128119  0  3.928124  0
C  C107  1  0.03854957  0.36735996  0.13741056  1  0  0.162783  0  3.68196  0  0  0.133333  0  3.938687  0  0  0.141294  0  3.953482  0  0.533274  0  0.063699  0.128096  0  3.928238  0
C  C108  1  0.06593593  0.85238397  0.87600268  1  0  0.132912  0  3.756249  0  0  0.130279  0  3.995461  0  0  0.134269  0  4.016071  0  0.456781  0  0.123349  0.127445  0  3.981696  0
C  C109  1  0.93405695  0.14761664  0.12399655  1  0  0.132845  0  3.756405  0  0  0.130211  0  3.995608  0  0  0.134188  0  4.016217  0  0.456607  0  0.123361  0.127387  0  3.981857  0
C  C110  1  0.08746197  0.94057366  0.81636786  1  0  0.142579  0  3.747127  0  0  0.139212  0  3.983226  0  0  0.143745  0  4.003973  0  0.473106  0  0.123254  0.136339  0  3.969097  0
C  C111  1  0.91254030  0.05943320  0.18363248  1  0  0.142888  0  3.746882  0  0  0.13942  0  3.983081  0  0  0.143984  0  4.00379  0  0.473003  0  0.123259  0.136497  0  3.969021  0
N  N112  1  0.03163855  0.87924419  0.69370452  1  0  -0.427452  0  3.245601  0  0  -0.378201  0  3.513867  0  0  -0.393378  0  3.531276  0  -1.228536  0  -0.364328  -0.367811  0  3.501715  0
N  N113  1  0.96836374  0.12075849  0.30629449  1  0  -0.427561  0  3.245386  0  0  -0.378268  0  3.513671  0  0  -0.393463  0  3.531073  0  -1.228639  0  -0.364292  -0.36786  0  3.501536  0
N  N114  1  0.98611393  0.71292542  0.80673878  1  0  -0.39199  0  3.206968  0  0  -0.345556  0  3.472211  0  0  -0.359175  0  3.489585  0  -1.201457  0  -0.340227  -0.33602  0  3.460076  0
N  N115  1  0.01388743  0.28707518  0.19325623  1  0  -0.39193  0  3.206995  0  0  -0.345461  0  3.47222  0  0  -0.35909  0  3.489599  0  -1.202021  0  -0.340221  -0.335925  0  3.460087  0
O  O116  1  0.71347589  0.63632793  0.62465198  1  0  -0.726778  0  1.909883  0  0  -0.68479  0  2.148972  0  0  -0.709562  0  2.139006  0  -1.196237  0  -0.410717  -0.667211  0  2.155282  0
O  O117  1  0.28652877  0.36367163  0.37535591  1  0  -0.726858  0  1.910064  0  0  -0.684904  0  2.149152  0  0  -0.709686  0  2.13917  0  -1.195983  0  -0.410725  -0.66732  0  2.155466  0
O  O118  1  0.77185016  0.71731079  0.49580644  1  0  -0.698549  0  1.98998  0  0  -0.650111  0  2.233226  0  0  -0.675875  0  2.225402  0  -1.182346  0  -0.385893  -0.631962  0  2.237937  0
O  O119  1  0.22815819  0.28270128  0.50421003  1  0  -0.698686  0  1.990006  0  0  -0.650224  0  2.233194  0  0  -0.675992  0  2.225387  0  -1.182492  0  -0.385925  -0.63207  0  2.237899  0
O  O120  1  0.98529500  0.31484290  0.55239832  1  0  -0.730331  0  2.038257  0  0  -0.680115  0  2.292217  0  0  -0.706457  0  2.282331  0  -1.193894  0  -0.391841  -0.661366  0  2.298105  0
O  O121  1  0.01471629  0.68515041  0.44760385  1  0  -0.730424  0  2.03781  0  0  -0.680216  0  2.29184  0  0  -0.706559  0  2.281938  0  -1.193607  0  -0.391962  -0.661454  0  2.297725  0
O  O122  1  0.84503485  0.41867050  0.60140848  1  0  -0.730507  0  2.020982  0  0  -0.678137  0  2.269323  0  0  -0.704245  0  2.259082  0  -1.198476  0  -0.39287  -0.659636  0  2.275795  0
O  O123  1  0.15498019  0.58132490  0.39858465  1  0  -0.730659  0  2.020939  0  0  -0.678267  0  2.269311  0  0  -0.704389  0  2.259062  0  -1.198741  0  -0.39295  -0.659777  0  2.275807  0
O  O124  1  0.11528481  0.62002113  0.63005889  1  0  -0.83635  0  2.190093  0  0  -0.777171  0  2.455214  0  0  -0.806175  0  2.446686  0  -1.224027  0  -0.427765  -0.756246  0  2.459916  0
O  O125  1  0.88471849  0.37996906  0.36993150  1  0  -0.836294  0  2.190034  0  0  -0.777131  0  2.455186  0  0  -0.806112  0  2.446614  0  -1.224088  0  -0.427801  -0.756208  0  2.459895  0
O  O126  1  0.28712348  0.55800089  0.61471808  1  0  -0.68327  0  1.967763  0  0  -0.635033  0  2.200509  0  0  -0.66015  0  2.191538  0  -1.18064  0  -0.372481  -0.617566  0  2.206146  0
O  O127  1  0.71288865  0.44201118  0.38527281  1  0  -0.683244  0  1.967723  0  0  -0.635007  0  2.200479  0  0  -0.660111  0  2.191497  0  -1.181794  0  -0.372328  -0.617542  0  2.206114  0
O  O128  1  0.47573272  0.38164548  0.79880907  1  0  -0.530705  0  2.04326  0  0  -0.478693  0  2.244515  0  0  -0.499198  0  2.230379  0  -1.115734  0  -0.317299  -0.464238  0  2.253906  0
O  O129  1  0.52424045  0.61834263  0.20117984  1  0  -0.530769  0  2.043274  0  0  -0.478796  0  2.244602  0  0  -0.499285  0  2.230468  0  -1.115807  0  -0.317314  -0.464339  0  2.254003  0
O  O130  1  0.69137342  0.52871303  0.94141900  1  0  -0.562347  0  1.951683  0  0  -0.529957  0  2.173527  0  0  -0.550271  0  2.165135  0  -1.174121  0  -0.284848  -0.515929  0  2.178807  0
O  O131  1  0.30862224  0.47129591  0.05857066  1  0  -0.562313  0  1.952421  0  0  -0.529856  0  2.174259  0  0  -0.550168  0  2.165865  0  -1.174431  0  -0.284765  -0.515836  0  2.17953  0
