# generated using pymatgen
data_FePH5(CO3)2
_symmetry_space_group_name_H-M   'P 1'
_cell_length_a   4.85435559
_cell_length_b   8.01830048
_cell_length_c   16.90754063
_cell_angle_alpha   90.00000266
_cell_angle_beta   90.00005823
_cell_angle_gamma   108.19712834
_symmetry_Int_Tables_number   1
_chemical_formula_structural   FePH5(CO3)2
_chemical_formula_sum   'Fe4 P4 H20 C8 O24'
_cell_volume   625.19045274
_cell_formula_units_Z   4
loop_
 _symmetry_equiv_pos_site_id
 _symmetry_equiv_pos_as_xyz
  1  'x, y, z'
loop_
 _atom_site_type_symbol
 _atom_site_label
 _atom_site_symmetry_multiplicity
 _atom_site_fract_x
 _atom_site_fract_y
 _atom_site_fract_z
 _atom_site_occupancy
 _atom_site_hle17_ddec_charge
 _atom_site_hle17_ddec_spin_density
 _atom_site_hle17_ddec_sum_bond_order
 _atom_site_hle17_magmom
 _atom_site_hse06_10hf_ddec_charge
 _atom_site_hse06_10hf_ddec_spin_density
 _atom_site_hse06_10hf_ddec_sum_bond_order
 _atom_site_hse06_10hf_magmom
 _atom_site_hse06_ddec_charge
 _atom_site_hse06_ddec_spin_density
 _atom_site_hse06_ddec_sum_bond_order
 _atom_site_hse06_magmom
 _atom_site_pbe_cm5_charge
 _atom_site_pbe_ddec_charge
 _atom_site_pbe_ddec_spin_density
 _atom_site_pbe_ddec_sum_bond_order
 _atom_site_pbe_magmom
Fe  Fe0  1  0.94230323  0.07272748  0.83918192  1  1.547046  4.590942  2.090051  4.067  1.512728  4.61817  2.509629  4.143  1.662661  4.69271  2.400288  4.273  0.908991  1.406844  4.559541  2.583554  4.044
Fe  Fe1  1  0.55769610  0.42727500  0.33917952  1  1.546983  4.590963  2.090138  4.067  1.512704  4.618187  2.509724  4.143  1.662641  4.692727  2.400372  4.273  0.908909  1.406804  4.559355  2.583638  4.044
Fe  Fe2  1  0.05769439  0.92727355  0.16082116  1  1.547039  4.590961  2.090169  4.067  1.512708  4.618179  2.509768  4.143  1.662652  4.692719  2.40041  4.273  0.908902  1.406798  4.559244  2.583687  4.044
Fe  Fe3  1  0.44230218  0.57272734  0.66081765  1  1.547066  4.590948  2.09004  4.067  1.512763  4.618175  2.5096  4.143  1.662694  4.692715  2.400266  4.273  0.908993  1.406884  4.55953  2.583517  4.044
P  P4  1  0.59404587  0.36102660  0.82208240  1  1.642055  0.014338  4.649584  0.013  1.511985  0.021534  5.148186  0.022  1.578499  0.016517  5.103482  0.019  0.386928  1.464383  0.02593  5.178811  0.025
P  P5  1  0.90595000  0.13897323  0.32208482  1  1.641997  0.014329  4.64958  0.013  1.511949  0.021534  5.148176  0.022  1.578457  0.016516  5.103483  0.019  0.386867  1.464323  0.025929  5.178836  0.025
P  P6  1  0.40594902  0.63897311  0.17791595  1  1.642113  0.014344  4.649486  0.013  1.512063  0.021531  5.148068  0.022  1.578576  0.016515  5.103373  0.019  0.386913  1.464446  0.025931  5.178738  0.025
P  P7  1  0.09404489  0.86102648  0.67791766  1  1.642065  0.014345  4.649634  0.013  1.511995  0.021535  5.148236  0.022  1.57851  0.016518  5.103531  0.019  0.386913  1.464382  0.025928  5.178854  0.025
H  H8  1  0.70499727  0.59527466  0.91504212  1  0.181467  -0.000406  0.93539  0.0  0.198379  4.3e-05  0.987924  0.0  0.201357  -9.2e-05  0.986675  0.0  0.107401  0.196137  0.000161  0.988982  0.001
H  H9  1  0.79500324  0.90472946  0.41504334  1  0.181379  -0.000416  0.935445  0.0  0.198275  4.3e-05  0.988014  0.0  0.201254  -9.2e-05  0.986761  0.0  0.107343  0.196044  0.00016  0.989053  0.001
H  H10  1  0.29499961  0.40472899  0.08495741  1  0.181363  -0.000397  0.93551  0.0  0.198263  4.3e-05  0.988068  0.0  0.201242  -9.2e-05  0.986817  0.0  0.10733  0.196033  0.000161  0.989109  0.001
H  H11  1  0.20499504  0.09527289  0.58495796  1  0.18146  -0.00041  0.935409  0.0  0.19837  4.3e-05  0.987947  0.0  0.201352  -9.2e-05  0.986691  0.0  0.107382  0.196127  0.00016  0.989003  0.001
H  H12  1  0.02487779  0.57050362  0.87108294  1  0.180259  0.000463  0.934443  0.001  0.197634  0.000723  0.987188  0.001  0.201011  0.000493  0.985338  0.001  0.108957  0.195047  0.000934  0.988766  0.002
H  H13  1  0.47511961  0.92949745  0.37108539  1  0.180252  0.000458  0.93446  0.001  0.197621  0.000724  0.987211  0.001  0.200992  0.000493  0.985367  0.001  0.108942  0.195034  0.000934  0.988792  0.002
H  H14  1  0.97511842  0.42949871  0.12891541  1  0.180276  0.000465  0.934377  0.001  0.197645  0.000723  0.98714  0.001  0.20102  0.000494  0.985291  0.001  0.108956  0.195058  0.000935  0.988722  0.002
H  H15  1  0.52487594  0.07050357  0.62891650  1  0.180259  0.000458  0.934475  0.001  0.197631  0.000724  0.987219  0.001  0.201006  0.000493  0.985373  0.001  0.108939  0.195042  0.000933  0.988798  0.002
H  H16  1  0.83749292  0.41891234  0.94596680  1  0.180525  0.000476  0.952611  0.001  0.194766  0.000629  1.010709  0.001  0.197431  0.000372  1.010382  0.001  0.107031  0.192734  0.000874  1.011114  0.002
H  H17  1  0.66249932  0.08108758  0.44597093  1  0.1805  0.000472  0.952677  0.001  0.194734  0.000629  1.010794  0.001  0.197396  0.000372  1.010471  0.001  0.107009  0.192702  0.000873  1.011187  0.002
H  H18  1  0.16249991  0.58108736  0.05403036  1  0.180473  0.000479  0.952752  0.001  0.194706  0.000629  1.010868  0.001  0.197369  0.000372  1.010544  0.001  0.106993  0.192676  0.000875  1.011266  0.002
H  H19  1  0.33749351  0.91891212  0.55403274  1  0.180553  0.000471  0.952646  0.001  0.194799  0.000629  1.01074  0.001  0.197463  0.000372  1.010415  0.001  0.107037  0.192767  0.000873  1.011138  0.002
H  H20  1  0.40866179  0.87673893  0.87653086  1  0.433753  -0.000413  0.867698  0.0  0.405095  0.000243  0.927782  0.001  0.419092  -5.1e-05  0.907676  0.001  0.300751  0.395127  0.000522  0.942096  0.002
H  H21  1  0.09132944  0.62326212  0.37652787  1  0.43388  -0.000412  0.867533  0.0  0.405191  0.000243  0.927656  0.001  0.419187  -5.1e-05  0.907549  0.001  0.300806  0.395217  0.000522  0.941978  0.002
H  H22  1  0.59132691  0.12326075  0.12347281  1  0.433807  -0.000412  0.867604  0.0  0.405109  0.000243  0.927748  0.001  0.419105  -5.1e-05  0.907644  0.001  0.30078  0.395137  0.000523  0.942071  0.002
H  H23  1  0.90866058  0.37674019  0.62346870  1  0.433822  -0.000414  0.867615  0.0  0.405178  0.000243  0.927673  0.001  0.419175  -5.1e-05  0.907566  0.001  0.300795  0.395209  0.000521  0.941988  0.002
H  H24  1  0.47042350  0.81223100  0.79193311  1  0.437072  -0.000719  0.859571  0.001  0.410736  2.9e-05  0.916665  0.002  0.423923  -0.000381  0.898007  0.001  0.303436  0.401424  0.000415  0.929833  0.002
H  H25  1  0.02957624  0.68777525  0.29193070  1  0.437056  -0.000719  0.85954  0.001  0.410726  2.9e-05  0.916659  0.002  0.423908  -0.000381  0.89801  0.001  0.303439  0.401414  0.000416  0.929827  0.002
H  H26  1  0.52957197  0.18777394  0.20807055  1  0.437054  -0.00072  0.85952  0.001  0.41073  2.8e-05  0.916647  0.002  0.423911  -0.000381  0.898  0.001  0.303438  0.401416  0.000416  0.929818  0.002
H  H27  1  0.97042263  0.31223233  0.70806646  1  0.437061  -0.000722  0.859615  0.001  0.41073  2.9e-05  0.916678  0.002  0.423916  -0.000381  0.89802  0.001  0.303432  0.40142  0.000415  0.929843  0.002
C  C28  1  0.81199626  0.50017082  0.89612513  1  -0.648415  0.008709  3.580728  0.014  -0.702041  0.0074  3.807499  0.012  -0.714386  0.005461  3.805508  0.009  -0.246261  -0.693178  0.009032  3.809257  0.013
C  C29  1  0.68800144  0.99983196  0.39612750  1  -0.648228  0.008727  3.580785  0.014  -0.701826  0.007399  3.807591  0.012  -0.714168  0.00546  3.805605  0.009  -0.246112  -0.692966  0.009031  3.809322  0.013
C  C30  1  0.18799995  0.49983151  0.10387262  1  -0.648245  0.008691  3.58082  0.014  -0.701856  0.0074  3.807636  0.012  -0.714201  0.00546  3.805649  0.009  -0.246125  -0.692996  0.009034  3.809378  0.013
C  C31  1  0.31199477  0.00017038  0.60387439  1  -0.648439  0.008722  3.580819  0.014  -0.702061  0.0074  3.807584  0.012  -0.714406  0.005461  3.80559  0.009  -0.246223  -0.693195  0.009031  3.809333  0.013
C  C32  1  0.09689809  0.94361005  0.98956736  1  0.56838  -0.008109  3.863789  -0.006  0.521375  -0.000313  4.16365  0.0  0.555936  -0.002685  4.156817  -0.001  0.232814  0.49773  0.002023  4.167651  0.002
C  C33  1  0.40311763  0.55639383  0.48956742  1  0.568458  -0.008119  3.863702  -0.006  0.521553  -0.000311  4.163464  0.0  0.556065  -0.002685  4.156707  -0.001  0.232961  0.497901  0.002021  4.167452  0.002
C  C34  1  0.90311258  0.05639235  0.01043039  1  0.56848  -0.008104  3.863619  -0.006  0.521616  -0.000313  4.16335  0.0  0.556114  -0.002686  4.156597  -0.001  0.232972  0.497969  0.002024  4.167351  0.002
C  C35  1  0.59690130  0.44360861  0.51043210  1  0.568275  -0.008129  3.86383  -0.006  0.5214  -0.000313  4.163525  0.0  0.555927  -0.002684  4.156746  -0.001  0.232839  0.49775  0.00202  4.167513  0.002
O  O36  1  0.30042877  0.26299737  0.85976140  1  -0.852504  0.081603  1.97236  0.149  -0.808903  0.069905  2.260377  0.122  -0.862634  0.057215  2.242842  0.106  -0.370213  -0.770131  0.079969  2.271186  0.134
O  O37  1  0.19956977  0.23700213  0.35976199  1  -0.852442  0.081595  1.972381  0.149  -0.808872  0.069898  2.260439  0.122  -0.862612  0.057209  2.242907  0.106  -0.370156  -0.770081  0.079979  2.271241  0.134
O  O38  1  0.69956959  0.73700104  0.14023872  1  -0.852529  0.081596  1.972357  0.149  -0.808925  0.069898  2.260391  0.122  -0.862659  0.057209  2.242851  0.106  -0.37022  -0.770131  0.079982  2.271199  0.134
O  O39  1  0.80042925  0.76299760  0.64023872  1  -0.852491  0.081598  1.972389  0.149  -0.808888  0.069902  2.260406  0.122  -0.862619  0.057213  2.242869  0.106  -0.370187  -0.770113  0.07997  2.271209  0.134
O  O40  1  0.56018703  0.47976489  0.75314511  1  -0.828888  0.104921  1.959591  0.193  -0.78359  0.088814  2.254779  0.157  -0.84123  0.071573  2.233396  0.134  -0.366389  -0.742945  0.1018  2.268801  0.172
O  O41  1  0.93980741  0.02022440  0.25314991  1  -0.828952  0.104929  1.959584  0.193  -0.783676  0.088819  2.254818  0.157  -0.841298  0.071577  2.233388  0.134  -0.366387  -0.742999  0.101838  2.268833  0.172
O  O42  1  0.43980529  0.52022564  0.24684969  1  -0.828921  0.104926  1.959622  0.193  -0.783693  0.088819  2.254886  0.157  -0.841315  0.071577  2.233457  0.134  -0.36636  -0.743028  0.10182  2.268911  0.172
O  O43  1  0.06018698  0.97976614  0.74685495  1  -0.828894  0.104924  1.9596  0.193  -0.783605  0.088816  2.254801  0.157  -0.841244  0.071575  2.233415  0.134  -0.366406  -0.742953  0.101811  2.268817  0.172
O  O44  1  0.75216708  0.23251905  0.79004109  1  -0.87119  0.075855  1.980353  0.138  -0.812391  0.06696  2.255542  0.117  -0.86314  0.055131  2.235096  0.102  -0.36277  -0.776343  0.075991  2.268973  0.127
O  O45  1  0.74783420  0.26747947  0.29003934  1  -0.871179  0.075849  1.980338  0.138  -0.812408  0.066954  2.255579  0.117  -0.86315  0.055126  2.235131  0.102  -0.362792  -0.776348  0.075996  2.269015  0.127
O  O46  1  0.24783195  0.76748068  0.20996139  1  -0.871256  0.075848  1.980319  0.138  -0.812446  0.066956  2.255513  0.117  -0.863199  0.055127  2.235062  0.102  -0.362797  -0.776376  0.076002  2.268946  0.127
O  O47  1  0.25216828  0.73251896  0.70995842  1  -0.871216  0.075855  1.980405  0.138  -0.8124  0.06696  2.255575  0.117  -0.863146  0.055131  2.235119  0.102  -0.362762  -0.776356  0.075993  2.269008  0.127
O  O48  1  0.12765693  0.92009420  0.91637754  1  -0.580425  0.04288  2.144476  0.08  -0.530966  0.040451  2.386846  0.074  -0.570718  0.033016  2.379759  0.065  -0.269844  -0.503053  0.046275  2.390966  0.081
O  O49  1  0.37235312  0.57990304  0.41636931  1  -0.580517  0.042896  2.14408  0.08  -0.531135  0.040463  2.386472  0.074  -0.570879  0.033028  2.379409  0.065  -0.269961  -0.503215  0.046297  2.390595  0.081
O  O50  1  0.87234696  0.07990293  0.08363086  1  -0.580582  0.042897  2.143978  0.08  -0.531209  0.040465  2.386358  0.074  -0.570954  0.033029  2.379301  0.065  -0.269985  -0.503286  0.046301  2.390486  0.081
O  O51  1  0.62765631  0.42009280  0.58362253  1  -0.580406  0.042883  2.144443  0.08  -0.530997  0.040451  2.386762  0.074  -0.570737  0.033016  2.379692  0.065  -0.26986  -0.50309  0.046279  2.39088  0.081
O  O52  1  0.20736504  0.88345464  0.04583225  1  -0.55228  0.048401  2.058759  0.089  -0.511938  0.044318  2.30389  0.08  -0.549687  0.036317  2.296939  0.07  -0.272903  -0.485608  0.050458  2.30807  0.088
O  O53  1  0.29265460  0.61653972  0.54582692  1  -0.552166  0.048396  2.058962  0.089  -0.511932  0.044315  2.304158  0.08  -0.549662  0.036314  2.297233  0.07  -0.272942  -0.48561  0.050445  2.308333  0.088
O  O54  1  0.79265132  0.11653862  0.95417378  1  -0.552146  0.048387  2.059034  0.089  -0.511883  0.044311  2.304172  0.08  -0.54961  0.03631  2.297253  0.07  -0.272903  -0.485558  0.050436  2.308349  0.088
O  O55  1  0.70737613  0.38345754  0.45416788  1  -0.552197  0.048406  2.058751  0.089  -0.511921  0.044317  2.303848  0.08  -0.549657  0.036317  2.296915  0.07  -0.272927  -0.485593  0.050457  2.308019  0.088
O  O56  1  0.56517500  0.85541676  0.84354442  1  -0.836898  0.041054  1.906487  0.074  -0.802898  0.041089  2.107449  0.071  -0.838129  0.034398  2.069587  0.064  -0.567902  -0.778198  0.046168  2.133686  0.075
O  O57  1  0.93482109  0.64458727  0.34354153  1  -0.836974  0.041056  1.906308  0.074  -0.802908  0.04109  2.107326  0.071  -0.838143  0.034399  2.06947  0.064  -0.567952  -0.778227  0.046174  2.133629  0.075
O  O58  1  0.43481981  0.14458687  0.15645866  1  -0.836896  0.041057  1.906306  0.074  -0.802831  0.04109  2.107329  0.071  -0.838068  0.034399  2.069477  0.064  -0.567918  -0.778141  0.046178  2.13362  0.075
O  O59  1  0.06517372  0.35541637  0.65645504  1  -0.83695  0.041059  1.906439  0.074  -0.802963  0.04109  2.107384  0.071  -0.838194  0.034399  2.069522  0.064  -0.56794  -0.778262  0.046168  2.133615  0.075
