# generated using pymatgen
data_Al3H25C48S3Cl6O23
_symmetry_space_group_name_H-M   'P 1'
_cell_length_a   13.62133329
_cell_length_b   14.03273757
_cell_length_c   27.05182072
_cell_angle_alpha   90.68100070
_cell_angle_beta   88.91651244
_cell_angle_gamma   61.77646910
_symmetry_Int_Tables_number   1
_chemical_formula_structural   Al3H25C48S3Cl6O23
_chemical_formula_sum   'Al6 H50 C96 S6 Cl12 O46'
_cell_volume   4553.96031517
_cell_formula_units_Z   2
loop_
 _symmetry_equiv_pos_site_id
 _symmetry_equiv_pos_as_xyz
  1  'x, y, z'
loop_
 _atom_site_type_symbol
 _atom_site_label
 _atom_site_symmetry_multiplicity
 _atom_site_fract_x
 _atom_site_fract_y
 _atom_site_fract_z
 _atom_site_occupancy
 _atom_site_pbe_bader_charge
 _atom_site_pbe_bader_spin_density
 _atom_site_pbe_cm5_charge
 _atom_site_pbe_ddec_charge
 _atom_site_pbe_ddec_spin_density
 _atom_site_pbe_ddec_sum_bond_order
 _atom_site_pbe_magmom
Al  Al0  1  0.15987959  0.43596222  0.50594886  1  2.49959  0  0.403286  1.686777  0  2.540565  0
Al  Al1  1  0.37929744  0.20470852  0.50378209  1  2.481917  0  0.511533  1.664056  0  2.507312  0
Al  Al2  1  0.40976377  0.40264022  0.50232206  1  2.482474  0  0.517105  1.661586  0  2.490409  0
Al  Al3  1  0.17273051  0.92455702  0.01359814  1  2.490954  0  0.397594  1.68488  0  2.552581  0
Al  Al4  1  0.92903649  0.12800879  0.01676561  1  2.481646  0  0.501269  1.657976  0  2.517268  0
Al  Al5  1  0.94639143  0.90708970  0.01481295  1  2.480406  0  0.508463  1.664448  0  2.499782  0
H  H6  1  0.78683980  0.21090332  0.77504938  1  0.14121  0  0.100754  0.087121  0  1.022456  0
H  H7  1  0.51676088  0.36226448  0.37000858  1  0.179437  0  0.116742  0.141402  0  1.021161  0
H  H8  1  0.13210977  0.50064599  0.36643576  1  0.141811  0  0.115937  0.141927  0  1.030229  0
H  H9  1  0.35998829  0.11661797  0.37176270  1  0.153688  0  0.115488  0.139539  0  1.028344  0
H  H10  1  0.55210967  0.39576769  0.19544854  1  0.090204  0  0.11034  0.115095  0  0.980599  0
H  H11  1  0.03117183  0.54927588  0.19607005  1  0.052103  0  0.107786  0.111543  0  0.984369  0
H  H12  1  0.40958583  0.01860965  0.19906188  1  0.067498  0  0.109577  0.114045  0  0.982689  0
H  H13  1  0.49838597  0.42992790  0.28484053  1  0.088211  0  0.108002  0.115571  0  0.991703  0
H  H14  1  0.06700823  0.48690340  0.28271490  1  0.048239  0  0.105589  0.110907  0  0.994755  0
H  H15  1  0.43895072  0.04652896  0.28750266  1  0.08005  0  0.110209  0.120781  0  0.981663  0
H  H16  1  0.87705770  0.93095991  0.15644794  1  0.093996  0  0.109793  0.117316  0  1.015353  0
H  H17  1  0.99937147  0.73501834  0.78708897  1  0.135147  0  0.089402  0.075239  0  1.052572  0
H  H18  1  0.17974020  0.87996344  0.15899075  1  0.137182  0  0.111253  0.122034  0  1.008428  0
H  H19  1  0.92597999  0.18521412  0.16230177  1  0.090052  0  0.104741  0.113001  0  1.019243  0
H  H20  1  0.92818523  0.88159282  0.24608864  1  0.093703  0  0.106984  0.125818  0  1.018052  0
H  H21  1  0.19511653  0.92413842  0.24952237  1  0.075635  0  0.104144  0.123693  0  1.022029  0
H  H22  1  0.86176616  0.20123487  0.25242333  1  0.087081  0  0.101023  0.118706  0  1.032012  0
H  H23  1  0.67779132  0.28741446  0.70847327  1  0.118058  0  0.121031  0.120407  0  0.945237  0
H  H24  1  0.01962423  0.72960845  0.70447832  1  0.089822  0  0.109371  0.093947  0  0.964938  0
H  H25  1  0.32195456  0.11841598  0.72353837  1  0.152115  0  0.109269  0.104337  0  1.017923  0
H  H26  1  0.79170746  0.98704138  0.69066130  1  0.124438  0  0.111579  0.14787  0  0.98118  0
H  H27  1  0.21786125  0.82734819  0.70771714  1  0.127951  0  0.108597  0.143593  0  1.000405  0
H  H28  1  0.30596067  0.09778974  0.80573665  1  0.100425  0  0.112839  0.102883  0  0.952087  0
H  H29  1  0.06274611  0.10458765  0.71178979  1  0.121369  0  0.103619  0.135315  0  0.999557  0
H  H30  1  0.82836986  0.09184820  0.69880598  1  0.087893  0  0.110115  0.137592  0  0.955808  0
H  H31  1  0.07632250  0.85561135  0.70770834  1  0.049081  0  0.101181  0.117738  0  0.963983  0
H  H32  1  0.20932121  0.03144852  0.71783345  1  0.066048  0  0.110953  0.135053  0  0.949937  0
H  H33  1  0.88309369  0.02364036  0.77608143  1  0.093217  0  0.08991  0.063663  0  1.062225  0
H  H34  1  0.07486471  0.87047577  0.79330077  1  0.077687  0  0.096005  0.066684  0  1.013097  0
H  H35  1  0.18337483  0.02817686  0.80192679  1  0.121682  0  0.091286  0.063705  0  1.064022  0
H  H36  1  0.48750269  0.17671945  0.73439501  1  0.148116  0  0.096629  0.096005  0  1.082507  0
H  H37  1  0.32055784  0.52105179  0.71280184  1  0.106797  0  0.101604  0.109563  0  1.012705  0
H  H38  1  0.06211910  0.37892414  0.72633099  1  0.135062  0  0.103692  0.109024  0  1.029418  0
H  H39  1  0.60737450  0.03751403  0.81212731  1  0.091966  0  0.097383  0.109368  0  1.015243  0
H  H40  1  0.53213855  0.17973089  0.81432024  1  0.083373  0  0.094596  0.113792  0  1.000236  0
H  H41  1  0.29818501  0.52818564  0.79778638  1  0.091785  0  0.091703  0.113172  0  0.996697  0
H  H42  1  0.04417480  0.37492087  0.81033123  1  0.068581  0  0.097087  0.123703  0  0.984512  0
H  H43  1  0.79457642  0.83892091  0.37009064  1  0.638315  0  0.311511  0.367976  0  0.928707  0
H  H44  1  0.49071531  0.65548780  0.33109701  1  0.630812  0  0.352107  0.402765  0  0.837734  0
H  H45  1  0.87255688  0.47682179  0.33788086  1  0.622756  0  0.344783  0.393226  0  0.853423  0
H  H46  1  0.59538512  0.88237280  0.76847029  1  0.640606  0  0.35676  0.410753  0  0.830824  0
H  H47  1  0.54118784  0.49735359  0.75531176  1  0.633975  0  0.308176  0.355739  0  0.94601  0
H  H48  1  0.98137502  0.35491135  0.63546711  1  0.646835  0  0.33546  0.388124  0  0.878142  0
H  H49  1  0.35018842  0.62178949  0.80250398  1  0.111927  0  0.097747  0.11808  0  1.019656  0
H  H50  1  0.95426113  0.31778758  0.80510876  1  0.110725  0  0.10255  0.11906  0  0.993123  0
H  H51  1  0.65975059  0.26605460  0.12640279  1  0.088971  0  0.114903  0.12328  0  0.982346  0
H  H52  1  0.04662728  0.66244061  0.12874857  1  0.096295  0  0.111551  0.120698  0  0.987734  0
H  H53  1  0.27791508  0.04484391  0.13037168  1  0.125865  0  0.11949  0.132984  0  0.976896  0
H  H54  1  0.98267062  0.56527972  0.53594828  1  0.573886  0  0.29833  0.390069  0  0.912227  0
H  H55  1  0.35671273  0.82394322  0.98368659  1  0.601435  0  0.294018  0.386634  0  0.918491  0
C  C56  1  0.25800393  0.55842562  0.56539138  1  1.668285  0  0.286478  0.718585  0  4.137216  0
C  C57  1  0.74265388  0.09864089  0.85372779  1  -0.371702  0  -0.018772  -0.009843  0  4.015213  0
C  C58  1  0.15422300  0.71033274  0.85320491  1  -0.20953  0  -0.021784  -0.019232  0  4.031741  0
C  C59  1  0.11825670  0.18943592  0.86485603  1  -0.256908  0  -0.024852  -0.02706  0  4.042996  0
C  C60  1  0.61739411  0.16707657  0.65764650  1  -0.144748  0  -0.015871  -0.027019  0  3.977735  0
C  C61  1  0.21121799  0.66828445  0.64959968  1  0.133787  0  -0.025163  -0.041813  0  3.996912  0
C  C62  1  0.15809663  0.20916246  0.66232471  1  -0.542422  0  -0.022271  -0.044451  0  4.025339  0
C  C63  1  0.58220481  0.19323992  0.61637369  1  -0.058405  0  -0.018804  -0.15532  0  3.883529  0
C  C64  1  0.23183322  0.63053643  0.60775756  1  -0.325377  0  -0.025712  -0.159448  0  3.899813  0
C  C65  1  0.17681114  0.22022654  0.61929248  1  0.268582  0  -0.028325  -0.177644  0  3.915795  0
C  C66  1  0.07950132  0.10442563  0.08892575  1  1.583563  0  0.272383  0.636596  0  4.096116  0
C  C67  1  0.20968319  0.25162590  0.57385029  1  1.686924  0  0.28183  0.712268  0  4.162425  0
C  C68  1  0.80459854  0.07204254  0.08342483  1  1.555277  0  0.280748  0.650289  0  4.072186  0
C  C69  1  0.10238363  0.80707183  0.08668095  1  1.568392  0  0.270473  0.635241  0  4.09447  0
C  C70  1  0.08929950  0.12161615  0.95124199  1  1.67282  0  0.281735  0.719792  0  4.146396  0
C  C71  1  0.81589095  0.06996842  0.94526917  1  1.662228  0  0.286755  0.730633  0  4.125022  0
C  C72  1  0.10867340  0.78861917  0.94478011  1  1.654491  0  0.280516  0.721107  0  4.143927  0
C  C73  1  0.56655750  0.28007351  0.35529524  1  0.010502  0  -0.067609  -0.123966  0  3.876212  0
C  C74  1  0.16364542  0.55289533  0.35137414  1  -0.007067  0  -0.073266  -0.132568  0  3.891328  0
C  C75  1  0.27668998  0.14961249  0.35700007  1  0.04541  0  -0.071674  -0.126891  0  3.884158  0
C  C76  1  0.59840374  0.26269667  0.30512465  1  -0.052407  0  -0.001591  0.08467  0  4.032779  0
C  C77  1  0.14023953  0.58906306  0.30292305  1  -0.045904  0  -0.005283  0.082268  0  4.043368  0
C  C78  1  0.52332413  0.22731325  0.57076553  1  1.665715  0  0.29294  0.727549  0  4.127406  0
C  C79  1  0.26279471  0.12785949  0.30779751  1  -0.047039  0  -0.003552  0.080612  0  4.045771  0
C  C80  1  0.66274795  0.22343440  0.20326769  1  -0.045314  0  -0.004042  0.077402  0  4.037635  0
C  C81  1  0.09737043  0.66244164  0.20424332  1  0.028191  0  -0.008415  0.073847  0  4.049577  0
C  C82  1  0.22899438  0.09281963  0.20735746  1  0.01429  0  -0.006762  0.07256  0  4.047587  0
C  C83  1  0.25459348  0.52573536  0.43057617  1  1.604275  0  0.273755  0.633089  0  4.091241  0
C  C84  1  0.21458002  0.24558179  0.43685182  1  1.623991  0  0.276913  0.633344  0  4.087311  0
C  C85  1  0.53407870  0.22611518  0.43650772  1  1.589319  0  0.285157  0.649814  0  4.067367  0
C  C86  1  0.58613507  0.33000865  0.22162023  1  -0.0391  0  -0.083995  -0.129475  0  3.993443  0
C  C87  1  0.06856393  0.58253778  0.22177669  1  0.001162  0  -0.086703  -0.128923  0  4.004433  0
C  C88  1  0.33907741  0.05796753  0.22520629  1  -0.137607  0  -0.084545  -0.128584  0  3.998019  0
C  C89  1  0.60068069  0.11039587  0.79490575  1  -0.040719  0  -0.16372  -0.21586  0  3.853299  0
C  C90  1  0.55631542  0.34895039  0.27068481  1  -0.013129  0  -0.079064  -0.113603  0  3.972175  0
C  C91  1  0.08827290  0.54810190  0.26932798  1  -0.011759  0  -0.085429  -0.123376  0  3.99422  0
C  C92  1  0.35535759  0.07367305  0.27366076  1  2.7e-05  0  -0.081289  -0.118022  0  3.975617  0
C  C93  1  0.69375196  0.20106221  0.15291387  1  0.003511  0  -0.07179  -0.136839  0  3.912078  0
C  C94  1  0.08216843  0.69640692  0.15501179  1  -0.080758  0  -0.078279  -0.148154  0  3.929513  0
C  C95  1  0.20899530  0.08168197  0.15742049  1  -0.044693  0  -0.073087  -0.14126  0  3.911079  0
C  C96  1  0.76715753  0.09562103  0.13625623  1  -0.042055  0  -0.012963  -0.042235  0  4.011114  0
C  C97  1  0.11526452  0.77150864  0.13895466  1  -0.000552  0  -0.014752  -0.038295  0  4.021204  0
C  C98  1  0.09996912  0.11856486  0.14161658  1  -0.058371  0  -0.016015  -0.042902  0  4.026749  0
C  C99  1  0.66067889  0.08552587  0.36862629  1  -0.163861  0  -0.00718  -0.146455  0  3.839057  0
C  C100  1  0.28814411  0.60573763  0.78450095  1  -0.078738  0  -0.170418  -0.229397  0  3.87442  0
C  C101  1  0.26782597  0.65188574  0.36327375  1  -0.153025  0  -0.009311  -0.146779  0  3.854532  0
C  C102  1  0.07570927  0.25883796  0.36976813  1  -0.172365  0  -0.006083  -0.141876  0  3.847967  0
C  C103  1  0.71860605  0.06904925  0.32256854  1  0.067703  0  -0.002939  0.006575  0  3.993189  0
C  C104  1  0.22050875  0.71150143  0.32019836  1  0.037519  0  -0.007129  0.000672  0  3.994753  0
C  C105  1  0.05935813  0.21398586  0.32552313  1  0.002193  0  -0.006643  0.001221  0  4.00052  0
C  C106  1  0.67628616  0.15621032  0.28833530  1  0.022986  0  0.007149  0.009381  0  3.928656  0
C  C107  1  0.16740627  0.67052402  0.28706652  1  -0.021075  0  0.001057  0.00536  0  3.941378  0
C  C108  1  0.15279991  0.15972285  0.29171618  1  0.049308  0  0.00408  0.008483  0  3.942111  0
C  C109  1  0.81947778  0.97381507  0.30590086  1  0.005154  0  0.016523  0.10096  0  4.019124  0
C  C110  1  0.21623461  0.81306762  0.30646796  1  0.055769  0  0.012502  0.098176  0  4.06413  0
C  C111  1  0.03591379  0.30807577  0.79314660  1  -0.041569  0  -0.158198  -0.211369  0  3.844132  0
C  C112  1  0.95702174  0.21500532  0.31091857  1  0.111395  0  0.014723  0.106411  0  4.058188  0
C  C113  1  0.85164846  0.95404975  0.25712781  1  0.043456  0  -0.089168  -0.185391  0  3.940923  0
C  C114  1  0.19667230  0.84813840  0.25892986  1  0.028913  0  -0.096287  -0.200107  0  3.958868  0
C  C115  1  0.93983697  0.19882821  0.26265771  1  -0.017876  0  -0.10065  -0.206841  0  3.969451  0
C  C116  1  0.79145656  0.03193150  0.22061965  1  -0.055834  0  -0.004472  0.093444  0  4.03825  0
C  C117  1  0.16880064  0.79153570  0.22212132  1  0.010566  0  -0.008659  0.088138  0  4.058363  0
C  C118  1  0.02650163  0.16971254  0.22575743  1  -0.041423  0  -0.00931  0.090645  0  4.059553  0
C  C119  1  0.64072832  0.25141197  0.73344279  1  0.103308  0  -0.03649  0.000374  0  3.721336  0
C  C120  1  0.09543002  0.66345584  0.71922113  1  0.089508  0  -0.04125  0.005582  0  3.730352  0
C  C121  1  0.25275047  0.19236008  0.73942334  1  0.084163  0  -0.044794  -0.002736  0  3.713579  0
C  C122  1  0.57368651  0.11403219  0.73958210  1  -0.140971  0  -0.080068  -0.198055  0  3.729546  0
C  C123  1  0.71012660  0.13725000  0.23751994  1  0.023305  0  0.003207  -0.008578  0  3.924273  0
C  C124  1  0.14382200  0.70854195  0.23797093  1  -0.024211  0  -0.003152  -0.015306  0  3.938482  0
C  C125  1  0.13630163  0.14013341  0.24170171  1  -0.024005  0  -0.000624  -0.012191  0  3.93505  0
C  C126  1  0.81644223  0.01154850  0.16987638  1  0.023348  0  -0.071881  -0.131938  0  3.893562  0
C  C127  1  0.15727027  0.81960143  0.17225469  1  -0.034898  0  -0.074701  -0.135354  0  3.899372  0
C  C128  1  0.00945410  0.16105847  0.17542522  1  0.041866  0  -0.081468  -0.142826  0  3.921007  0
C  C129  1  0.59139158  0.19316453  0.38637809  1  0.01373  0  -0.000127  -0.030453  0  3.924549  0
C  C130  1  0.23106466  0.57895467  0.38083787  1  0.003922  0  -0.004024  -0.030424  0  3.933532  0
C  C131  1  0.18548460  0.21877909  0.38717446  1  0.027188  0  -0.004811  -0.035944  0  3.943784  0
C  C132  1  0.77528600  0.05843556  0.71326381  1  -0.057023  0  -0.156043  -0.265093  0  3.809959  0
C  C133  1  0.30281326  0.60075342  0.72776087  1  -0.10416  0  -0.076426  -0.187826  0  3.70857  0
C  C134  1  0.15902704  0.80117629  0.72190857  1  0.019525  0  -0.160367  -0.262579  0  3.841807  0
C  C135  1  0.13338672  0.10426429  0.73044004  1  -0.060105  0  -0.159335  -0.260148  0  3.831169  0
C  C136  1  0.80272934  0.02844883  0.76773317  1  0.099843  0  -0.042574  0.05702  0  3.750147  0
C  C137  1  0.15412942  0.80507690  0.77880584  1  0.051575  0  -0.035596  0.067152  0  3.720509  0
C  C138  1  0.11970452  0.10354248  0.78679159  1  0.084567  0  -0.041141  0.060335  0  3.742775  0
C  C139  1  0.76977088  0.08580400  0.89668038  1  0.142958  0  -0.035872  -0.192375  0  3.917955  0
C  C140  1  0.13666858  0.73617231  0.89674900  1  -0.003796  0  -0.040056  -0.194626  0  3.937066  0
C  C141  1  0.10878206  0.16694285  0.90720507  1  0.034324  0  -0.037387  -0.188041  0  3.94092  0
C  C142  1  0.65140206  0.14542259  0.70873904  1  0.134605  0  0.010232  0.152949  0  3.855291  0
C  C143  1  0.19442084  0.68488114  0.70285517  1  0.107543  0  0.006722  0.148763  0  3.867011  0
C  C144  1  0.04571826  0.31206194  0.73644224  1  -0.148744  0  -0.076962  -0.203442  0  3.757468  0
C  C145  1  0.14374124  0.20516533  0.71539100  1  0.157922  0  0.00437  0.14853  0  3.883868  0
C  C146  1  0.70210767  0.22353241  0.78290642  1  0.078404  0  -0.046494  0.001441  0  3.770138  0
C  C147  1  0.08229144  0.66983111  0.77682422  1  0.084079  0  -0.04669  0.00777  0  3.741962  0
C  C148  1  0.24561891  0.18085524  0.79650456  1  0.103668  0  -0.038746  0.01735  0  3.732243  0
C  C149  1  0.71063393  0.11530202  0.80232238  1  0.134386  0  -0.001983  0.104599  0  3.868038  0
C  C150  1  0.17103917  0.69544582  0.79992281  1  0.118945  0  -0.003143  0.107382  0  3.892589  0
C  C151  1  0.12723455  0.19979733  0.81195510  1  0.120732  0  -0.002991  0.101511  0  3.914309  0
S  S152  1  0.64802919  0.97629998  0.39843792  1  3.104982  0  0.53944  1.153776  0  6.001515  0
S  S153  1  0.39180246  0.64609213  0.38939333  1  3.062811  0  0.541798  1.156738  0  5.963906  0
S  S154  1  0.96455105  0.38306108  0.39687444  1  3.049034  0  0.548515  1.155941  0  5.926653  0
S  S155  1  0.56702879  0.99695483  0.71158682  1  3.013136  0  0.54327  1.159655  0  5.851891  0
S  S156  1  0.42679040  0.61158129  0.70502659  1  3.026313  0  0.533106  1.153472  0  5.879512  0
S  S157  1  0.91289079  0.34948781  0.70720675  1  3.061049  0  0.536683  1.166053  0  5.919948  0
Cl  Cl158  1  0.49706856  0.34893262  0.74066336  1  -0.232064  0  0.012933  -0.082245  0  1.749248  0
Cl  Cl159  1  0.82055473  0.89637764  0.78245190  1  -0.259781  0  -0.010278  -0.098672  0  1.493604  0
Cl  Cl160  1  0.25868997  0.83459018  0.80400677  1  -0.235603  0  -0.00338  -0.079641  0  1.470604  0
Cl  Cl161  1  0.99154800  0.10495006  0.80571918  1  -0.269591  0  -0.001585  -0.097702  0  1.56065  0
Cl  Cl162  1  0.10445148  0.54492584  0.69085350  1  -0.20917  0  -0.012751  -0.073994  0  1.589437  0
Cl  Cl163  1  0.28177300  0.29765088  0.72104090  1  -0.213653  0  -0.010545  -0.08919  0  1.715622  0
Cl  Cl164  1  0.64627096  0.33152907  0.82738081  1  -0.216647  0  -0.020522  -0.082684  0  1.446428  0
Cl  Cl165  1  0.08899134  0.55249556  0.80483479  1  -0.223219  0  -0.032677  -0.112031  0  1.534345  0
Cl  Cl166  1  0.28386452  0.26413413  0.83294524  1  -0.216787  0  -0.025289  -0.093979  0  1.477581  0
Cl  Cl167  1  0.91524291  0.89213846  0.34892408  1  -0.189815  0  0.045605  -0.042783  0  1.58908  0
Cl  Cl168  1  0.21652969  0.90040479  0.35189035  1  -0.162928  0  0.020566  -0.025842  0  1.57439  0
Cl  Cl169  1  0.86372515  0.21866076  0.35595351  1  -0.171282  0  0.021017  -0.027718  0  1.603264  0
O  O170  1  0.15754482  0.35112918  0.56460559  1  -1.214863  0  -0.208292  -0.555425  0  2.279403  0
O  O171  1  0.14858256  0.33092438  0.46007275  1  -1.233066  0  -0.198941  -0.532242  0  2.386602  0
O  O172  1  0.50033244  0.16641628  0.45766222  1  -1.250919  0  -0.214511  -0.574371  0  2.395579  0
O  O173  1  0.34593894  0.50350404  0.45174889  1  -1.266499  0  -0.232794  -0.59223  0  2.371469  0
O  O174  1  0.17969027  0.50530485  0.44722410  1  -1.230274  0  -0.205726  -0.538339  0  2.368823  0
O  O175  1  0.31117520  0.17589003  0.45171852  1  -1.276936  0  -0.23631  -0.590287  0  2.313387  0
O  O176  1  0.51742611  0.31826916  0.45350230  1  -1.258162  0  -0.222843  -0.573238  0  2.289918  0
O  O177  1  0.31765015  0.34708836  0.50448018  1  -1.613982  0  -0.391153  -1.276991  0  2.302649  0
O  O178  1  0.16676688  0.84164949  0.07062090  1  -1.239954  0  -0.210072  -0.550461  0  2.353351  0
O  O179  1  0.97925237  0.16351513  0.07423656  1  -1.28445  0  -0.24923  -0.615535  0  2.295909  0
O  O180  1  0.83971420  0.97508909  0.06711666  1  -1.260964  0  -0.229853  -0.58981  0  2.291631  0
O  O181  1  0.48317591  0.16750765  0.55424207  1  -1.240944  0  -0.21762  -0.572949  0  2.237941  0
O  O182  1  0.15874210  0.03369783  0.06273510  1  -1.247864  0  -0.212158  -0.548868  0  2.329265  0
O  O183  1  0.80613646  0.14786966  0.05804709  1  -1.267255  0  -0.235498  -0.596041  0  2.277781  0
O  O184  1  0.02352090  0.80369114  0.06205951  1  -1.274149  0  -0.251788  -0.617314  0  2.265678  0
O  O185  1  0.01431518  0.98680305  0.01446572  1  -1.609978  0  -0.392665  -1.27267  0  2.310281  0
O  O186  1  0.15663779  0.02389349  0.95900282  1  -1.219837  0  -0.20565  -0.554406  0  2.284408  0
O  O187  1  0.83934327  0.14279324  0.96125994  1  -1.235491  0  -0.224538  -0.582822  0  2.237226  0
O  O188  1  0.01414734  0.80562263  0.96418417  1  -1.255513  0  -0.241413  -0.603209  0  2.224811  0
O  O189  1  0.69868625  0.95511920  0.44583875  1  -1.273753  0  -0.304825  -0.508894  0  2.108261  0
O  O190  1  0.53438567  0.00064497  0.39141544  1  -1.274231  0  -0.289644  -0.491816  0  2.17334  0
O  O191  1  0.71468200  0.87295004  0.36241452  1  -1.217815  0  -0.364605  -0.52457  0  2.211254  0
O  O192  1  0.35930612  0.51456037  0.54828132  1  -1.248981  0  -0.226936  -0.575067  0  2.214705  0
O  O193  1  0.36798752  0.70303692  0.43582733  1  -1.261441  0  -0.287711  -0.477301  0  2.113217  0
O  O194  1  0.47792968  0.53514125  0.38236479  1  -1.298796  0  -0.307802  -0.542126  0  2.178531  0
O  O195  1  0.42748600  0.71147663  0.35014479  1  -1.173318  0  -0.360692  -0.538367  0  2.215537  0
O  O196  1  0.92032170  0.36386577  0.44154440  1  -1.251673  0  -0.279554  -0.462845  0  2.126257  0
O  O197  1  0.00237212  0.46278061  0.39148403  1  -1.277735  0  -0.291949  -0.519132  0  2.206439  0
O  O198  1  0.86725406  0.41944184  0.35603328  1  -1.167498  0  -0.36988  -0.550884  0  2.212294  0
O  O199  1  0.47188618  0.04064365  0.68061800  1  -1.278531  0  -0.288753  -0.492135  0  2.166126  0
O  O200  1  0.67351505  0.91439348  0.69300834  1  -1.28944  0  -0.302171  -0.526477  0  2.168134  0
O  O201  1  0.53071461  0.94990554  0.75923135  1  -1.182166  0  -0.363044  -0.538119  0  2.127037  0
O  O202  1  0.47952379  0.53209096  0.66597211  1  -1.276422  0  -0.308038  -0.520925  0  2.145114  0
O  O203  1  0.17490509  0.81830163  0.96287740  1  -1.220843  0  -0.209522  -0.565472  0  2.275464  0
O  O204  1  0.39853883  0.72299736  0.69856541  1  -1.286138  0  -0.306969  -0.511982  0  2.153816  0
O  O205  1  0.50548860  0.57659589  0.75245659  1  -1.188232  0  -0.363607  -0.521556  0  2.207531  0
O  O206  1  0.90379603  0.25369180  0.69386476  1  -1.310195  0  -0.322946  -0.563247  0  2.159203  0
O  O207  1  0.82616121  0.43325109  0.73708885  1  -1.296348  0  -0.31116  -0.507467  0  2.092677  0
O  O208  1  0.92337185  0.40746666  0.65849956  1  -1.20557  0  -0.344382  -0.501891  0  2.169186  0
O  O209  1  0.00102098  0.18349259  0.97761461  1  -1.259017  0  -0.242708  -0.608302  0  2.222789  0
O  O210  1  0.83386741  0.98381042  0.96774206  1  -1.246455  0  -0.226022  -0.588603  0  2.232923  0
O  O211  1  0.18153271  0.53912584  0.55073822  1  -1.221167  0  -0.208622  -0.573268  0  2.289703  0
O  O212  1  0.29127540  0.17695350  0.54869780  1  -1.253728  0  -0.230085  -0.583062  0  2.226823  0
O  O213  1  0.51162189  0.31474985  0.55186868  1  -1.230832  0  -0.216243  -0.574039  0  2.22726  0
O  O214  1  0.01532515  0.51449411  0.50848121  1  -1.347509  0  -0.564894  -0.977718  0  1.819297  0
O  O215  1  0.31830286  0.86548501  0.01315622  1  -1.387827  0  -0.578168  -0.997896  0  1.78981  0
