# generated using pymatgen
data_MnH28C40S2(N5O)2
_symmetry_space_group_name_H-M   'P 1'
_cell_length_a   9.42726540
_cell_length_b   9.55003566
_cell_length_c   11.11138566
_cell_angle_alpha   83.76988261
_cell_angle_beta   84.88911911
_cell_angle_gamma   81.94814158
_symmetry_Int_Tables_number   1
_chemical_formula_structural   MnH28C40S2(N5O)2
_chemical_formula_sum   'Mn1 H28 C40 S2 N10 O2'
_cell_volume   981.87646438
_cell_formula_units_Z   1
loop_
 _symmetry_equiv_pos_site_id
 _symmetry_equiv_pos_as_xyz
  1  'x, y, z'
loop_
 _atom_site_type_symbol
 _atom_site_label
 _atom_site_symmetry_multiplicity
 _atom_site_fract_x
 _atom_site_fract_y
 _atom_site_fract_z
 _atom_site_occupancy
 _atom_site_pbe_cm5_charge
 _atom_site_pbe_ddec_charge
 _atom_site_pbe_ddec_spin_density
 _atom_site_pbe_ddec_sum_bond_order
 _atom_site_pbe_magmom
Mn  Mn0  1  0.99998907  0.00000207  0.50000133  1  0.703492  0.558019  1.195042  3.534725  1.14
H  H1  1  0.64560033  0.11632117  0.54493372  1  0.130584  0.096181  -0.000331  1.060369  0.0
H  H2  1  0.35439673  0.88368520  0.45506099  1  0.130618  0.096131  -0.000331  1.060328  0.0
H  H3  1  0.00607961  0.33868460  0.50651405  1  0.126231  0.126657  -0.000187  1.004414  0.0
H  H4  1  0.99392821  0.66130462  0.49348844  1  0.126256  0.126703  -0.000187  1.004479  0.0
H  H5  1  0.77260761  0.51450900  0.59423332  1  0.128189  0.136194  -9.4e-05  1.005163  0.0
H  H6  1  0.22740258  0.48548661  0.40576756  1  0.128164  0.136231  -9.4e-05  1.005241  0.0
H  H7  1  0.58322940  0.56641352  0.69367039  1  0.093538  0.10287  0.000413  1.064101  0.0
H  H8  1  0.41677621  0.43359272  0.30632997  1  0.093541  0.102893  0.000413  1.064076  0.0
H  H9  1  0.34218145  0.64786745  0.77761189  1  0.098895  0.098949  1e-05  1.023677  0.0
H  H10  1  0.65782366  0.35213450  0.22239156  1  0.098927  0.099007  9e-06  1.023649  0.0
H  H11  1  0.18411313  0.28922438  0.65594844  1  0.105566  0.106882  -5.1e-05  1.026856  0.0
H  H12  1  0.81589651  0.71077547  0.34405214  1  0.105581  0.106909  -5.2e-05  1.026814  0.0
H  H13  1  0.42740677  0.20337474  0.57137303  1  0.100081  0.107345  -1.6e-05  1.045924  0.0
H  H14  1  0.57260004  0.79663047  0.42862553  1  0.100103  0.107356  -1.6e-05  1.045833  0.0
H  H15  1  0.24335600  0.53435357  0.96984607  1  0.105957  0.107661  -0.000106  0.994261  0.0
H  H16  1  0.75664539  0.46564420  0.03015441  1  0.105922  0.107597  -0.000106  0.994273  0.0
H  H17  1  0.17099131  0.68439145  0.13577275  1  0.107316  0.118269  -0.000233  1.008506  0.0
H  H18  1  0.82901180  0.31560949  0.86422824  1  0.107321  0.118258  -0.000233  1.0085  0.0
H  H19  1  0.80452611  0.88831715  0.94436580  1  0.102812  0.106225  -0.000117  1.01941  0.0
H  H20  1  0.19547778  0.11168594  0.05563315  1  0.102778  0.106206  -0.000117  1.019394  0.0
H  H21  1  0.87314394  0.72863426  0.78390129  1  0.101412  0.103422  -0.000268  1.04918  0.0
H  H22  1  0.12686046  0.27137311  0.21609548  1  0.101415  0.103383  -0.000268  1.049253  0.0
H  H23  1  0.12701203  0.84175298  0.25426356  1  0.139687  0.101906  -0.000479  1.020292  0.0
H  H24  1  0.87298017  0.15825000  0.74574530  1  0.139699  0.101907  -0.000479  1.020424  0.0
H  H25  1  0.72687173  0.98118800  0.10391076  1  0.125951  0.126501  -5e-06  1.005726  0.0
H  H26  1  0.27312870  0.01880887  0.89608086  1  0.126005  0.126573  -5e-06  1.005711  0.0
H  H27  1  0.72936716  0.09295152  0.32172024  1  0.113014  0.107372  -0.000409  1.041814  0.0
H  H28  1  0.27061836  0.90704536  0.67827433  1  0.11296  0.107338  -0.000409  1.041929  0.0
C  C29  1  0.71239423  0.20002682  0.54216162  1  0.13594  0.07162  -0.015129  3.87553  -0.009
C  C30  1  0.28760327  0.79997629  0.45783782  1  0.135906  0.07173  -0.015119  3.8753  -0.009
C  C31  1  0.89590614  0.31922018  0.52604648  1  0.009469  -0.021793  0.001149  3.961718  0.001
C  C32  1  0.10410034  0.68077121  0.47395414  1  0.009509  -0.021848  0.001147  3.961928  0.001
C  C33  1  0.78042056  0.40752051  0.56910417  1  0.009503  -0.08007  0.000813  3.889591  0.001
C  C34  1  0.21958736  0.59247619  0.43089500  1  0.00945  -0.080275  0.000811  3.889637  0.001
C  C35  1  0.52318032  0.37779881  0.62811851  1  0.09917  0.184834  -0.008802  3.995505  -0.006
C  C36  1  0.47682622  0.62220854  0.37187899  1  0.099167  0.184786  -0.008798  3.995477  -0.006
C  C37  1  0.49785627  0.50248994  0.68673221  1  -0.098512  -0.176258  -0.000452  3.992724  0.0
C  C38  1  0.50214868  0.49751315  0.31326666  1  -0.09848  -0.176276  -0.000451  3.992666  0.0
C  C39  1  0.36058389  0.54846936  0.73540081  1  -0.084819  -0.086547  -0.005298  3.991735  -0.003
C  C40  1  0.63942079  0.45153584  0.26459882  1  -0.084885  -0.086654  -0.005295  3.992022  -0.003
C  C41  1  0.24585739  0.47194964  0.72627873  1  -0.026651  -0.031987  -0.004268  4.008638  -0.002
C  C42  1  0.75414651  0.52805339  0.27372383  1  -0.026612  -0.0319  -0.004265  4.008907  -0.002
C  C43  1  0.27309926  0.34723277  0.66646192  1  -0.078557  -0.07363  -0.002895  3.970191  -0.002
C  C44  1  0.72690783  0.65277030  0.33353770  1  -0.078597  -0.073673  -0.002895  3.970096  -0.002
C  C45  1  0.40990460  0.29932945  0.61842891  1  -0.094511  -0.175638  -0.00041  3.979686  0.0
C  C46  1  0.59010235  0.70067468  0.38157062  1  -0.094579  -0.175708  -0.000409  3.979652  0.0
C  C47  1  0.09563879  0.52658280  0.76536869  1  0.151008  0.341574  -0.016499  4.005257  -0.009
C  C48  1  0.90436353  0.47341602  0.23463253  1  0.150969  0.341468  -0.016497  4.005456  -0.009
C  C49  1  0.06494951  0.62342131  0.86310358  1  -0.022207  -0.021512  -0.003909  3.982739  -0.002
C  C50  1  0.93505309  0.37657537  0.13689869  1  -0.022146  -0.021413  -0.00391  3.9828  -0.002
C  C51  1  0.14914878  0.61429915  0.96246293  1  -0.080644  -0.086921  -0.002493  3.991234  -0.001
C  C52  1  0.85085168  0.38569756  0.03753770  1  -0.08064  -0.08688  -0.002492  3.991385  -0.001
C  C53  1  0.10921018  0.70052501  0.05613417  1  -0.092941  -0.170941  -0.001943  3.9879  -0.001
C  C54  1  0.89078988  0.29947483  0.94386984  1  -0.092941  -0.17092  -0.001943  3.988046  -0.001
C  C55  1  0.98516118  0.80052418  0.05055062  1  0.099173  0.175548  -0.008721  4.001535  -0.006
C  C56  1  0.01483849  0.19947041  0.94945025  1  0.099191  0.175585  -0.008722  4.001528  -0.006
C  C57  1  0.90085646  0.81118333  0.95124987  1  -0.094458  -0.175202  -0.000672  3.986704  0.0
C  C58  1  0.09914437  0.18881871  0.04874940  1  -0.094452  -0.175195  -0.000672  3.98659  0.0
C  C59  1  0.93965357  0.72196851  0.85998502  1  -0.075607  -0.06205  -0.005064  3.948935  -0.003
C  C60  1  0.06034633  0.27803248  0.14001351  1  -0.075678  -0.062148  -0.005064  3.949278  -0.003
C  C61  1  0.01940198  0.89529547  0.24413045  1  0.146307  0.090109  -0.013364  3.87352  -0.008
C  C62  1  0.98058849  0.10470443  0.75587249  1  0.146407  0.090254  -0.013366  3.873654  -0.008
C  C63  1  0.81059065  0.97064198  0.16593986  1  0.002599  -0.102628  0.000432  3.923333  0.0
C  C64  1  0.18940619  0.02935800  0.83405629  1  0.002548  -0.102656  0.000432  3.923178  0.0
C  C65  1  0.81283274  0.02497841  0.27465435  1  0.007959  -0.021819  -7.3e-05  3.966918  0.0
C  C66  1  0.18715890  0.97502054  0.72534138  1  0.008022  -0.021702  -7.3e-05  3.966633  0.0
C  C67  1  0.73392003  0.87360391  0.62319423  1  0.136956  0.238706  0.012069  4.319789  0.011
C  C68  1  0.26606166  0.12638969  0.37680720  1  0.136936  0.238643  0.012073  4.31982  0.011
S  S69  1  0.58197200  0.85220848  0.69796228  1  -0.189063  -0.358545  0.024775  2.237113  0.019
S  S70  1  0.41800485  0.14779785  0.30204027  1  -0.189076  -0.358515  0.02478  2.237152  0.019
N  N71  1  0.85320666  0.18934938  0.51082810  1  -0.332838  -0.222703  -0.01058  3.536936  -0.012
N  N72  1  0.14679264  0.81063990  0.48917323  1  -0.332772  -0.222681  -0.010578  3.53677  -0.012
N  N73  1  0.66368237  0.33158070  0.57956700  1  -0.22609  0.003599  -0.000923  3.795888  0.0
N  N74  1  0.33632549  0.66842455  0.42042877  1  -0.226057  0.00376  -0.000922  3.795666  0.0
N  N75  1  0.94233439  0.88705628  0.14679180  1  -0.224291  0.004446  -0.001039  3.795728  0.0
N  N76  1  0.05766367  0.11294257  0.85320885  1  -0.224347  0.004338  -0.001039  3.795783  0.0
N  N77  1  0.94315152  0.97646642  0.32316468  1  -0.325887  -0.209721  -0.013787  3.557684  -0.012
N  N78  1  0.05683347  0.02353460  0.67683679  1  -0.325965  -0.209933  -0.013786  3.557792  -0.012
N  N79  1  0.84444057  0.89505339  0.56822395  1  -0.41477  -0.42503  -0.005304  3.412769  -0.013
N  N80  1  0.15553616  0.10494558  0.43177472  1  -0.414686  -0.424911  -0.005307  3.412742  -0.013
O  O81  1  0.99469581  0.49363805  0.71431865  1  -0.26724  -0.432873  -0.013273  2.184502  -0.011
O  O82  1  0.00530841  0.50635435  0.28568566  1  -0.267206  -0.432788  -0.013271  2.184617  -0.011
