# generated using pymatgen
data_CuH17C17(NO)5
_symmetry_space_group_name_H-M   'P 1'
_cell_length_a   6.22976100
_cell_length_b   14.75258538
_cell_length_c   25.50817285
_cell_angle_alpha   106.69382543
_cell_angle_beta   90.00019593
_cell_angle_gamma   89.99996579
_symmetry_Int_Tables_number   1
_chemical_formula_structural   CuH17C17(NO)5
_chemical_formula_sum   'Cu4 H68 C68 N20 O20'
_cell_volume   2245.52525746
_cell_formula_units_Z   4
loop_
 _symmetry_equiv_pos_site_id
 _symmetry_equiv_pos_as_xyz
  1  'x, y, z'
loop_
 _atom_site_type_symbol
 _atom_site_label
 _atom_site_symmetry_multiplicity
 _atom_site_fract_x
 _atom_site_fract_y
 _atom_site_fract_z
 _atom_site_occupancy
 _atom_site_pbe_bader_charge
 _atom_site_pbe_bader_spin_density
 _atom_site_pbe_cm5_charge
 _atom_site_pbe_ddec_charge
 _atom_site_pbe_ddec_spin_density
 _atom_site_pbe_ddec_sum_bond_order
 _atom_site_pbe_magmom
Cu  Cu0  1  0.75900634  0.55332681  0.67531791  1  1.054156  0.564709  0.733917  0.754854  0.723966  2.226619  0.564
Cu  Cu1  1  0.25899959  0.44667292  0.82468216  1  1.054307  0.564706  0.733893  0.754801  0.723962  2.226657  0.564
Cu  Cu2  1  0.24099199  0.44667277  0.32468108  1  1.05428  0.564704  0.733883  0.754799  0.72396  2.226662  0.564
Cu  Cu3  1  0.74099071  0.55332666  0.17531801  1  1.054021  0.564701  0.733889  0.754761  0.723957  2.226686  0.564
H  H4  1  0.39095735  0.74781592  0.75883315  1  0.083032  0.004433  0.107718  0.112221  0.002367  0.996759  0.002
H  H5  1  0.89095115  0.25218313  0.74116574  1  0.083003  0.004433  0.107729  0.112237  0.002367  0.996728  0.002
H  H6  1  0.60904098  0.25218366  0.24116546  1  0.083017  0.004433  0.107729  0.11223  0.002367  0.996735  0.002
H  H7  1  0.10904397  0.74781504  0.25883419  1  0.083041  0.004434  0.107726  0.112249  0.002367  0.996728  0.002
H  H8  1  0.37652184  0.62305195  0.74888500  1  0.115966  0.000275  0.119475  0.13308  -0.000101  0.991458  0.0
H  H9  1  0.87651718  0.37694852  0.75111451  1  0.115992  0.000275  0.119493  0.133097  -0.000101  0.991581  0.0
H  H10  1  0.62347649  0.37694835  0.25111490  1  0.115953  0.000274  0.119466  0.13307  -0.000101  0.991495  0.0
H  H11  1  0.12347634  0.62305036  0.24888555  1  0.115907  0.000275  0.119514  0.133145  -0.000101  0.991496  0.0
H  H12  1  0.63255777  0.61937297  0.80562321  1  0.099648  2e-05  0.120762  0.13381  -0.00015  0.998014  0.0
H  H13  1  0.13255402  0.38062744  0.69437609  1  0.099632  2e-05  0.120736  0.133759  -0.00015  0.998019  0.0
H  H14  1  0.36743896  0.38062591  0.19437567  1  0.099656  2e-05  0.120753  0.133789  -0.00015  0.998028  0.0
H  H15  1  0.86743788  0.61937285  0.30562419  1  0.099643  2e-05  0.120758  0.133817  -0.00015  0.998018  0.0
H  H16  1  0.80659978  0.71903195  0.82029698  1  0.069938  0.004091  0.111601  0.120589  0.002155  0.98435  0.002
H  H17  1  0.30659760  0.28096921  0.67970376  1  0.069584  0.004093  0.111616  0.1206  0.002156  0.984365  0.002
H  H18  1  0.19339855  0.28096692  0.17970229  1  0.069718  0.004092  0.111601  0.120571  0.002156  0.984316  0.002
H  H19  1  0.69339591  0.71903038  0.32029681  1  0.069953  0.004092  0.11161  0.120608  0.002155  0.984377  0.002
H  H20  1  0.75155168  0.74992267  0.68334466  1  0.105345  0.000809  0.114649  0.109923  0.000112  0.985131  0.001
H  H21  1  0.25154355  0.25008060  0.81665599  1  0.1053  0.000809  0.114671  0.109977  0.000112  0.98507  0.001
H  H22  1  0.24844985  0.25007762  0.31665405  1  0.105394  0.000809  0.114631  0.109907  0.000113  0.985143  0.001
H  H23  1  0.74845638  0.74992252  0.18334516  1  0.105339  0.000809  0.114643  0.109915  0.000112  0.985152  0.001
H  H24  1  0.97326033  0.73415254  0.72232445  1  0.089167  0.001128  0.107525  0.103561  0.000435  1.028691  0.001
H  H25  1  0.47325481  0.26585077  0.77767717  1  0.089212  0.001128  0.107545  0.103612  0.000435  1.028687  0.001
H  H26  1  0.02673800  0.26584633  0.27767482  1  0.089146  0.001128  0.107506  0.103565  0.000435  1.02865  0.001
H  H27  1  0.52674352  0.73415518  0.22232406  1  0.089013  0.001128  0.1075  0.103553  0.000435  1.028765  0.001
H  H28  1  0.47124418  0.87507537  0.72509036  1  0.048498  0.000379  0.10118  0.103547  0.000214  1.014341  0.0
H  H29  1  0.97124352  0.12492371  0.77491056  1  0.04848  0.000379  0.101159  0.103517  0.000214  1.014305  0.0
H  H30  1  0.52875575  0.12492422  0.27491021  1  0.048486  0.000379  0.101143  0.103512  0.000214  1.014363  0.0
H  H31  1  0.02876123  0.87507942  0.22509098  1  0.048478  0.000379  0.101119  0.103468  0.000214  1.01435  0.0
H  H32  1  0.39645925  0.02736418  0.79352264  1  0.052524  6.8e-05  0.096474  0.100971  1.6e-05  1.032863  0.0
H  H33  1  0.89646412  0.97263488  0.70647704  1  0.052373  6.8e-05  0.096453  0.100941  1.6e-05  1.032915  0.0
H  H34  1  0.60354871  0.97263682  0.20647698  1  0.052512  6.8e-05  0.096453  0.100941  1.6e-05  1.032855  0.0
H  H35  1  0.10354223  0.02736895  0.29352383  1  0.052951  6.8e-05  0.096462  0.100964  1.6e-05  1.032851  0.0
H  H36  1  0.54008843  0.10157744  0.92074999  1  0.0631  0.000197  0.091468  0.128004  9.7e-05  0.98861  0.0
H  H37  1  0.04009171  0.89842437  0.57925065  1  0.063258  0.000197  0.091461  0.128005  9.7e-05  0.988646  0.0
H  H38  1  0.45992274  0.89842144  0.07925007  1  0.06299  0.000197  0.091482  0.128017  9.7e-05  0.988586  0.0
H  H39  1  0.95991143  0.10158088  0.42075085  1  0.063125  0.000197  0.091456  0.128001  9.7e-05  0.988539  0.0
H  H40  1  0.52600239  0.16116536  0.86969023  1  0.078655  9.1e-05  0.094004  0.141357  6.4e-05  1.008024  0.0
H  H41  1  0.02600974  0.83883432  0.63030926  1  0.078698  9.1e-05  0.094007  0.141354  6.4e-05  1.008072  0.0
H  H42  1  0.47400878  0.83883422  0.13030916  1  0.078594  9.1e-05  0.094047  0.141386  6.4e-05  1.008037  0.0
H  H43  1  0.97399341  0.16117022  0.36969173  1  0.078635  9.1e-05  0.094025  0.141421  6.4e-05  1.007982  0.0
H  H44  1  0.77475214  0.15268314  0.90207514  1  0.082285  9e-05  0.090683  0.129603  3.4e-05  0.9999  0.0
H  H45  1  0.27475740  0.84731872  0.59792491  1  0.082168  9.1e-05  0.090681  0.129595  3.5e-05  0.999894  0.0
H  H46  1  0.22525903  0.84731715  0.09792476  1  0.082354  9e-05  0.090672  0.12959  3.4e-05  0.999868  0.0
H  H47  1  0.72524575  0.15268440  0.40207506  1  0.082701  9.1e-05  0.090669  0.129592  3.4e-05  0.999908  0.0
H  H48  1  0.97190006  0.99825856  0.88073972  1  0.054487  8.4e-05  0.100645  0.103299  2.4e-05  0.994441  0.0
H  H49  1  0.47190871  0.00174476  0.61926268  1  0.054442  8.4e-05  0.100653  0.103292  2.4e-05  0.994478  0.0
H  H50  1  0.02810790  0.00173960  0.11925825  1  0.054459  8.4e-05  0.100669  0.103325  2.4e-05  0.994408  0.0
H  H51  1  0.52810246  0.99825837  0.38073886  1  0.054478  8.4e-05  0.100673  0.10333  2.4e-05  0.994416  0.0
H  H52  1  0.04632165  0.84458891  0.81255849  1  0.061445  0.000357  0.098954  0.098715  0.000199  1.004955  0.0
H  H53  1  0.54632285  0.15541432  0.68744474  1  0.061241  0.000357  0.098983  0.098704  0.0002  1.004955  0.0
H  H54  1  0.95367989  0.15541067  0.18743972  1  0.061391  0.000357  0.098961  0.098783  0.000199  1.004879  0.0
H  H55  1  0.45368671  0.84458881  0.31255759  1  0.06127  0.000357  0.098976  0.098756  0.0002  1.004979  0.0
H  H56  1  0.80614921  0.32703493  0.40601378  1  0.554758  -3.7e-05  0.304788  0.283875  -4.5e-05  1.006953  0.0
H  H57  1  0.30614508  0.67296382  0.09398760  1  0.554721  -3.7e-05  0.304825  0.28395  -4.5e-05  1.006807  0.0
H  H58  1  0.19386035  0.67296607  0.59398623  1  0.554752  -3.7e-05  0.304767  0.28375  -4.5e-05  1.007102  0.0
H  H59  1  0.69385004  0.32703365  0.90601340  1  0.554751  -3.7e-05  0.304779  0.283859  -4.5e-05  1.006946  0.0
H  H60  1  0.49888256  0.36815486  0.45888234  1  0.215307  6.2e-05  0.130839  0.092479  8.3e-05  1.050179  0.0
H  H61  1  0.99887595  0.63184535  0.04111904  1  0.215236  6.2e-05  0.130839  0.092459  8.3e-05  1.050171  0.0
H  H62  1  0.50112540  0.63184755  0.54111634  1  0.21529  6.2e-05  0.130819  0.092476  8.3e-05  1.050138  0.0
H  H63  1  0.00111595  0.36815283  0.95888247  1  0.215309  6.2e-05  0.130828  0.092466  8.3e-05  1.050166  0.0
H  H64  1  0.38035540  0.42181393  0.55496359  1  0.533522  0.00026  0.306001  0.264452  0.000224  1.012811  0.0
H  H65  1  0.88035165  0.57818300  0.94503808  1  0.533475  0.00026  0.305994  0.264398  0.000224  1.012824  0.0
H  H66  1  0.61964293  0.57818636  0.44503748  1  0.533455  0.00026  0.305992  0.264422  0.000224  1.012775  0.0
H  H67  1  0.11964187  0.42181376  0.05496202  1  0.533481  0.00026  0.306022  0.264473  0.000224  1.012758  0.0
H  H68  1  0.22286363  0.49500172  0.64819012  1  0.189992  0.000332  0.139247  0.106301  4e-05  1.033538  0.0
H  H69  1  0.72286023  0.50499588  0.85181115  1  0.190042  0.000332  0.139225  0.106227  4e-05  1.033599  0.0
H  H70  1  0.77712988  0.50499716  0.35181072  1  0.189999  0.000332  0.139207  0.10626  4e-05  1.033519  0.0
H  H71  1  0.27713328  0.49500087  0.14818816  1  0.190022  0.000332  0.139187  0.106227  4e-05  1.033616  0.0
C  C72  1  0.45189536  0.67874341  0.73426567  1  0.201066  0.000332  -0.077405  -0.248841  -0.000238  3.892647  -0.002
C  C73  1  0.95189101  0.32125778  0.76573441  1  0.201004  0.000331  -0.077432  -0.24897  -0.000239  3.892791  -0.002
C  C74  1  0.54810136  0.32125618  0.26573293  1  0.201036  0.000331  -0.077403  -0.248908  -0.000238  3.892585  -0.002
C  C75  1  0.04810250  0.67874181  0.23426655  1  0.201079  0.000332  -0.077429  -0.248949  -0.000238  3.892708  -0.002
C  C76  1  0.39619777  0.66024322  0.67384989  1  1.562283  -0.000676  0.204893  0.584536  -0.000454  4.18392  -0.001
C  C77  1  0.89619267  0.33975513  0.82614928  1  1.562651  -0.000676  0.20492  0.58459  -0.000454  4.183952  -0.001
C  C78  1  0.60379895  0.33975424  0.32614876  1  1.562629  -0.000676  0.204975  0.584762  -0.000454  4.18375  -0.001
C  C79  1  0.10380084  0.66024234  0.17385093  1  1.562343  -0.000676  0.204868  0.584474  -0.000454  4.184095  -0.001
C  C80  1  0.76221106  0.65336499  0.78902152  1  0.254904  0.000302  -0.076492  -0.244039  7.9e-05  3.880718  -0.002
C  C81  1  0.26220602  0.34663616  0.71097918  1  0.255309  0.000302  -0.076476  -0.243964  7.9e-05  3.880688  -0.002
C  C82  1  0.23778726  0.34663601  0.21097771  1  0.255058  0.000303  -0.076465  -0.243988  7.9e-05  3.880704  -0.002
C  C83  1  0.73778910  0.65336413  0.28902150  1  0.254897  0.000303  -0.076518  -0.244164  8e-05  3.880847  -0.002
C  C84  1  0.94951999  0.58380516  0.77756695  1  1.58775  0.001122  0.203054  0.608123  0.000791  4.169393  0.001
C  C85  1  0.44951499  0.41619603  0.72243430  1  1.587646  0.001123  0.202935  0.607992  0.000792  4.169564  0.001
C  C86  1  0.05047513  0.41619230  0.22243169  1  1.587888  0.001123  0.203115  0.608297  0.00079  4.169324  0.001
C  C87  1  0.55047691  0.58380497  0.27756611  1  1.587745  0.001122  0.203128  0.608366  0.000791  4.169206  0.001
C  C88  1  0.80162775  0.75122865  0.72487016  1  0.181659  0.000713  -0.076695  -0.152062  0.000211  3.881422  -0.001
C  C89  1  0.30162222  0.24877251  0.77513097  1  0.181655  0.000712  -0.076766  -0.152206  0.000211  3.881247  -0.001
C  C90  1  0.19837058  0.24877093  0.27512844  1  0.181695  0.000713  -0.076663  -0.152095  0.000211  3.881455  -0.001
C  C91  1  0.69837611  0.75123062  0.22487057  1  0.181791  0.000713  -0.076656  -0.152049  0.000211  3.881519  -0.001
C  C92  1  0.75960388  0.84635456  0.76509066  1  0.00209  0.005394  -0.024754  0.076652  0.003772  3.991676  0.004
C  C93  1  0.25960434  0.15364518  0.73491137  1  0.00205  0.005393  -0.024721  0.076653  0.003772  3.991745  0.004
C  C94  1  0.24039766  0.15364503  0.23490794  1  0.002098  0.005394  -0.024795  0.076644  0.003772  3.991844  0.004
C  C95  1  0.74040201  0.84635582  0.26509099  1  0.002171  0.005394  -0.024731  0.076563  0.003772  3.991934  0.004
C  C96  1  0.57925177  0.90024920  0.75999219  1  -0.089906  0.002173  -0.094893  -0.136128  0.001374  4.003925  0.001
C  C97  1  0.07925240  0.09975049  0.74000852  1  -0.089619  0.002173  -0.094874  -0.136092  0.001374  4.003887  0.001
C  C98  1  0.42075298  0.09975250  0.24000715  1  -0.090123  0.002173  -0.094849  -0.136148  0.001374  4.004034  0.001
C  C99  1  0.92075877  0.90025263  0.25999263  1  -0.090073  0.002174  -0.094768  -0.135949  0.001374  4.003766  0.001
C  C100  1  0.53748473  0.98686404  0.79857458  1  -0.040419  -3e-05  -0.094415  -0.143107  -0.000183  3.965741  0.0
C  C101  1  0.03748975  0.01313635  0.70142621  1  -0.040509  -2.9e-05  -0.094358  -0.143035  -0.000183  3.965774  0.0
C  C102  1  0.46252163  0.01313767  0.20142437  1  -0.040133  -2.9e-05  -0.094396  -0.14305  -0.000183  3.965769  0.0
C  C103  1  0.96251499  0.98686677  0.29857533  1  -0.040813  -2.9e-05  -0.094392  -0.143087  -0.000182  3.965737  0.0
C  C104  1  0.67513484  0.02286559  0.84325852  1  0.024844  0.002492  -0.007623  0.172931  0.001598  3.978637  0.002
C  C105  1  0.17514073  0.97713554  0.65674290  1  0.024862  0.002491  -0.007641  0.172896  0.001598  3.978685  0.002
C  C106  1  0.32487152  0.97713400  0.15674126  1  0.024724  0.002491  -0.007635  0.172988  0.001598  3.978559  0.002
C  C107  1  0.82486883  0.02286900  0.34325848  1  0.024806  0.002491  -0.007636  0.172978  0.001598  3.978382  0.002
C  C108  1  0.62662599  0.11450623  0.88591122  1  -0.151796  7.4e-05  -0.240879  -0.418433  5.8e-05  3.969864  0.0
C  C109  1  0.12663141  0.88549560  0.61408949  1  -0.151812  7.5e-05  -0.240882  -0.418437  5.8e-05  3.969989  0.0
C  C110  1  0.37338518  0.88549336  0.11408974  1  -0.151723  7.5e-05  -0.240927  -0.418495  5.8e-05  3.969771  0.0
C  C111  1  0.87337333  0.11450964  0.38591123  1  -0.152195  7.5e-05  -0.240914  -0.418564  5.8e-05  3.969707  0.0
C  C112  1  0.85910097  0.97034793  0.84720638  1  -0.079013  -0.000197  -0.09675  -0.151442  -0.000339  3.997699  0.0
C  C113  1  0.35910686  0.02965324  0.65279558  1  -0.07893  -0.000197  -0.096749  -0.151438  -0.000339  3.997688  0.0
C  C114  1  0.14090699  0.02965095  0.15279211  1  -0.078657  -0.000197  -0.09673  -0.151435  -0.000339  3.99765  0.0
C  C115  1  0.64089789  0.97035130  0.34720737  1  -0.078964  -0.000197  -0.096728  -0.151472  -0.000339  3.997382  0.0
C  C116  1  0.90053253  0.88349046  0.80889593  1  -0.067267  0.002285  -0.09578  -0.135955  0.001421  4.023128  0.001
C  C117  1  0.40053722  0.11651072  0.69110685  1  -0.067136  0.002285  -0.095851  -0.135943  0.001421  4.023234  0.001
C  C118  1  0.09947222  0.11650982  0.19110240  1  -0.067481  0.002285  -0.095783  -0.136046  0.001421  4.023098  0.001
C  C119  1  0.59947395  0.88349028  0.30889473  1  -0.066982  0.002285  -0.095916  -0.136028  0.001421  4.023258  0.001
C  C120  1  0.65304432  0.37987819  0.48046307  1  1.072966  -0.000147  0.178258  0.231455  -0.000218  3.966766  0.0
C  C121  1  0.15303758  0.62012123  0.01953869  1  1.073146  -0.000148  0.178242  0.231388  -0.000218  3.966573  0.0
C  C122  1  0.34695882  0.62012352  0.51953667  1  1.073149  -0.000147  0.178296  0.231494  -0.000218  3.966692  0.0
C  C123  1  0.84695594  0.37987694  0.98046242  1  1.072955  -0.000148  0.178209  0.231381  -0.000219  3.96678  0.0
C  C124  1  0.85613128  0.43061331  0.55619245  1  0.917608  0.001064  0.20898  0.29901  0.000764  4.067225  0.001
C  C125  1  0.35612768  0.56938362  0.94380920  1  0.918156  0.001064  0.208877  0.298935  0.000764  4.067408  0.001
C  C126  1  0.14386705  0.56938486  0.44380788  1  0.917958  0.001064  0.20895  0.299034  0.000764  4.067269  0.001
C  C127  1  0.64386583  0.43061384  0.05619062  1  0.918019  0.001064  0.208881  0.298883  0.000764  4.067247  0.001
C  C128  1  0.04518665  0.40122374  0.52603079  1  0.380742  0.002792  0.078299  -0.078272  0.001934  3.987053  0.002
C  C129  1  0.54518810  0.59877382  0.97396954  1  0.380586  0.002792  0.078322  -0.078441  0.001934  3.987136  0.002
C  C130  1  0.95481649  0.59877514  0.47396965  1  0.380548  0.002791  0.07827  -0.078381  0.001933  3.987089  0.002
C  C131  1  0.45481023  0.40122364  0.02602950  1  0.380524  0.002791  0.078313  -0.078371  0.001933  3.986941  0.002
C  C132  1  0.04090038  0.35597895  0.46818893  1  1.369963  0.000432  0.223662  0.443554  0.000242  4.200364  0.0
C  C133  1  0.54089522  0.64401974  0.03181301  1  1.369997  0.000432  0.223729  0.443714  0.000242  4.200174  0.0
C  C134  1  0.95910276  0.64402205  0.53181226  1  1.369909  0.000432  0.223654  0.443506  0.000242  4.200429  0.0
C  C135  1  0.45909668  0.35597772  0.96818798  1  1.369922  0.000432  0.223803  0.443822  0.000242  4.20021  0.0
C  C136  1  0.12662053  0.46804655  0.61185452  1  0.987059  -0.001187  0.160011  0.188597  -0.001609  3.906736  -0.001
C  C137  1  0.62661761  0.53195104  0.88814705  1  0.98712  -0.001188  0.160073  0.188662  -0.001609  3.906658  -0.001
C  C138  1  0.87337620  0.53195375  0.38814734  1  0.987149  -0.001187  0.160167  0.18872  -0.001608  3.906741  -0.001
C  C139  1  0.37337750  0.46804643  0.11185237  1  0.987094  -0.001188  0.160156  0.188725  -0.001609  3.906763  -0.001
N  N140  1  0.68610021  0.67077320  0.73824158  1  -0.973384  0.125069  -0.347582  -0.044297  0.081373  3.572731  0.107
N  N141  1  0.18609595  0.32922651  0.76175804  1  -0.973424  0.125065  -0.347535  -0.044149  0.081371  3.572497  0.107
N  N142  1  0.31389651  0.32922638  0.26175741  1  -0.973404  0.125069  -0.347535  -0.044185  0.081373  3.572494  0.107
N  N143  1  0.81389757  0.67077307  0.23824174  1  -0.973408  0.125067  -0.347539  -0.044144  0.081371  3.572616  0.107
N  N144  1  0.82893048  0.35173298  0.44893197  1  -1.279048  -0.000149  -0.371384  -0.327159  -0.000207  3.580222  0.0
N  N145  1  0.32892575  0.64826648  0.05106994  1  -1.279311  -0.00015  -0.371438  -0.327221  -0.000208  3.580098  0.0
N  N146  1  0.17107588  0.64826731  0.55106753  1  -1.279205  -0.000149  -0.371338  -0.327006  -0.000207  3.580294  0.0
N  N147  1  0.67106615  0.35173169  0.94893157  1  -1.279067  -0.00015  -0.371377  -0.327159  -0.000208  3.580271  0.0
N  N148  1  0.65484090  0.41817974  0.53405480  1  -1.257112  0.001268  -0.320535  -0.360243  0.000736  3.333302  0.001
N  N149  1  0.15483600  0.58181714  0.96594629  1  -1.257335  0.001267  -0.320471  -0.360122  0.000736  3.333266  0.001
N  N150  1  0.34516224  0.58181843  0.46594474  1  -1.257318  0.001269  -0.320501  -0.360256  0.000736  3.333285  0.001
N  N151  1  0.84515590  0.41818103  0.03405404  1  -1.257274  0.001267  -0.3205  -0.36016  0.000736  3.333274  0.001
N  N152  1  0.21317248  0.42546185  0.56261108  1  -1.278031  0.002045  -0.356211  -0.194392  0.001187  3.631378  0.002
N  N153  1  0.71316540  0.57453434  0.93739033  1  -1.278064  0.002044  -0.356271  -0.194287  0.001187  3.631432  0.002
N  N154  1  0.78683227  0.57453703  0.43738937  1  -1.278066  0.002045  -0.356303  -0.194417  0.001187  3.631447  0.002
N  N155  1  0.28682650  0.42546241  0.06260976  1  -1.278111  0.002044  -0.356308  -0.194474  0.001187  3.631294  0.002
N  N156  1  0.91177583  0.47293423  0.61009201  1  -1.153848  0.052815  -0.369959  -0.366205  0.035517  3.501145  0.045
N  N157  1  0.41177151  0.52706200  0.88990957  1  -1.154049  0.052819  -0.369933  -0.366187  0.03552  3.501066  0.045
N  N158  1  0.08821929  0.52706465  0.38990765  1  -1.153929  0.052814  -0.370014  -0.366213  0.035517  3.501067  0.045
N  N159  1  0.58822040  0.47293546  0.11009064  1  -1.153601  0.052817  -0.369968  -0.366112  0.035518  3.501087  0.045
O  O160  1  0.05124827  0.57255386  0.81746867  1  -1.171006  0.024165  -0.323492  -0.549362  0.015117  2.220863  0.02
O  O161  1  0.55124572  0.42744653  0.68253213  1  -1.170913  0.024162  -0.323472  -0.549363  0.015115  2.220892  0.02
O  O162  1  0.94874363  0.42744218  0.18253013  1  -1.17109  0.024163  -0.323602  -0.549537  0.015116  2.220801  0.02
O  O163  1  0.44874619  0.57255517  0.31746800  1  -1.170986  0.024169  -0.323536  -0.549478  0.015119  2.220816  0.02
O  O164  1  0.51547020  0.59990211  0.63959747  1  -1.103025  0.091554  -0.321439  -0.528481  0.058479  2.326908  0.083
O  O165  1  0.01546888  0.40009686  0.86040229  1  -1.103303  0.091569  -0.321473  -0.528545  0.058488  2.326922  0.083
O  O166  1  0.48452812  0.40009747  0.36040114  1  -1.103324  0.091563  -0.32148  -0.528622  0.058484  2.326951  0.083
O  O167  1  0.98453105  0.59990273  0.13959827  1  -1.103047  0.091559  -0.321416  -0.52845  0.058482  2.327023  0.083
O  O168  1  0.23850138  0.70168465  0.66057478  1  -1.165924  0.016364  -0.297185  -0.510869  0.009996  2.200559  0.013
O  O169  1  0.73849976  0.29831437  0.83942360  1  -1.165968  0.016364  -0.297201  -0.510895  0.009997  2.200672  0.013
O  O170  1  0.76149374  0.29831423  0.33942410  1  -1.165878  0.016366  -0.297233  -0.510982  0.009997  2.200517  0.013
O  O171  1  0.26150178  0.70168380  0.16057634  1  -1.165908  0.016368  -0.297192  -0.510863  0.009998  2.200573  0.013
O  O172  1  0.98707648  0.53791288  0.72699335  1  -1.140308  0.091085  -0.330041  -0.557161  0.057995  2.33704  0.083
O  O173  1  0.48707054  0.46208902  0.77300727  1  -1.140314  0.091076  -0.329951  -0.557045  0.05799  2.337025  0.083
O  O174  1  0.01291864  0.46208458  0.27300530  1  -1.140352  0.091083  -0.33005  -0.557212  0.057995  2.33692  0.083
O  O175  1  0.51292137  0.53791410  0.22699388  1  -1.140337  0.091081  -0.330081  -0.557246  0.057993  2.337001  0.083
O  O176  1  0.19310827  0.32401253  0.43692927  1  -1.144656  0.001495  -0.303555  -0.478986  0.000868  2.132598  0.001
O  O177  1  0.69310191  0.67598408  0.06307245  1  -1.144654  0.001495  -0.303572  -0.479028  0.000868  2.132566  0.001
O  O178  1  0.80690130  0.67598635  0.56307157  1  -1.144627  0.001495  -0.303521  -0.478919  0.000868  2.132702  0.001
O  O179  1  0.30689161  0.32401268  0.93692882  1  -1.144695  0.001495  -0.303581  -0.479068  0.000867  2.132646  0.001
