# generated using pymatgen
data_ErH11C9NO9
_symmetry_space_group_name_H-M   'P 1'
_cell_length_a   6.28093146
_cell_length_b   13.33349407
_cell_length_c   15.87172813
_cell_angle_alpha   90.00067241
_cell_angle_beta   97.90029681
_cell_angle_gamma   89.99943698
_symmetry_Int_Tables_number   1
_chemical_formula_structural   ErH11C9NO9
_chemical_formula_sum   'Er4 H44 C36 N4 O36'
_cell_volume   1316.59002178
_cell_formula_units_Z   4
loop_
 _symmetry_equiv_pos_site_id
 _symmetry_equiv_pos_as_xyz
  1  'x, y, z'
loop_
 _atom_site_type_symbol
 _atom_site_label
 _atom_site_symmetry_multiplicity
 _atom_site_fract_x
 _atom_site_fract_y
 _atom_site_fract_z
 _atom_site_occupancy
 _atom_site_pbe_bader_charge
 _atom_site_pbe_bader_spin_density
 _atom_site_pbe_cm5_charge
 _atom_site_pbe_ddec_charge
 _atom_site_pbe_ddec_spin_density
 _atom_site_pbe_ddec_sum_bond_order
 _atom_site_pbe_magmom
Er  Er0  1  0.94040471  0.43592930  0.75126347  1  2.177783  0  1.470104  2.059503  0  2.057211  0
Er  Er1  1  0.55960630  0.93592837  0.24873314  1  2.1778  0  1.470094  2.059561  0  2.057178  0
Er  Er2  1  0.05962393  0.56407358  0.24874062  1  2.177766  0  1.470067  2.059719  0  2.056916  0
Er  Er3  1  0.44039347  0.06407001  0.75126367  1  2.177556  0  1.470033  2.059438  0  2.057239  0
H  H4  1  0.01556953  0.79978104  0.80212192  1  0.084699  0  0.126106  0.104896  0  0.972415  0
H  H5  1  0.48438278  0.29979336  0.19789045  1  0.085105  0  0.126088  0.104989  0  0.972159  0
H  H6  1  0.98438030  0.20022409  0.19788279  1  0.084973  0  0.126134  0.104987  0  0.9723  0
H  H7  1  0.51556869  0.70020126  0.80211184  1  0.085356  0  0.126108  0.104972  0  0.972274  0
H  H8  1  0.15544474  0.94459923  0.03520379  1  0.151446  0  0.123001  0.104794  0  1.016011  0
H  H9  1  0.34454214  0.44460593  0.96481129  1  0.151499  0  0.123063  0.104768  0  1.016019  0
H  H10  1  0.84452278  0.05540514  0.96480066  1  0.151818  0  0.123021  0.10465  0  1.016144  0
H  H11  1  0.65544952  0.55539920  0.03519199  1  0.151493  0  0.123057  0.10481  0  1.01608  0
H  H12  1  0.10390002  0.62169522  0.03017845  1  0.151513  0  0.122673  0.134231  0  0.994242  0
H  H13  1  0.39609711  0.12170023  0.96982778  1  0.151612  0  0.122734  0.134318  0  0.994147  0
H  H14  1  0.89610612  0.37830991  0.96982439  1  0.151468  0  0.122682  0.13426  0  0.99424  0
H  H15  1  0.60387374  0.87830190  0.03016677  1  0.151511  0  0.122746  0.134325  0  0.994176  0
H  H16  1  0.52929252  0.38739197  0.48183427  1  0.047954  0  0.111578  0.131847  0  0.945325  0
H  H17  1  0.97080304  0.88738987  0.51815212  1  0.048607  0  0.111654  0.131981  0  0.945506  0
H  H18  1  0.47079403  0.61260116  0.51816929  1  0.048456  0  0.111636  0.131893  0  0.945641  0
H  H19  1  0.02919839  0.11261376  0.48183974  1  0.048192  0  0.111627  0.13188  0  0.945588  0
H  H20  1  0.32548961  0.43683450  0.53444947  1  0.094986  0  0.10918  0.129392  0  0.979499  0
H  H21  1  0.17453651  0.93686985  0.46551859  1  0.094779  0  0.109313  0.129551  0  0.979333  0
H  H22  1  0.67454246  0.56314138  0.46553529  1  0.094844  0  0.109192  0.129442  0  0.97945  0
H  H23  1  0.82546013  0.06313378  0.53447110  1  0.095255  0  0.109227  0.129462  0  0.979462  0
H  H24  1  0.38022592  0.51925673  0.72573546  1  0.642365  0  0.304071  0.401102  0  0.928653  0
H  H25  1  0.11979061  0.01925693  0.27426898  1  0.64245  0  0.304071  0.401139  0  0.928619  0
H  H26  1  0.61980435  0.48075589  0.27426684  1  0.642513  0  0.304053  0.401143  0  0.928584  0
H  H27  1  0.88022199  0.98072944  0.72573169  1  0.642323  0  0.304069  0.401118  0  0.92863  0
H  H28  1  0.18201127  0.58743637  0.68718231  1  0.629712  0  0.332565  0.42484  0  0.860044  0
H  H29  1  0.31799923  0.08743540  0.31282938  1  0.630054  0  0.332541  0.42479  0  0.860042  0
H  H30  1  0.81801251  0.41257475  0.31282529  1  0.630412  0  0.332524  0.424898  0  0.859998  0
H  H31  1  0.68199869  0.91254798  0.68719001  1  0.630499  0  0.332515  0.424793  0  0.859973  0
H  H32  1  0.51120887  0.42740411  0.80804821  1  0.6429  0  0.306586  0.397228  0  0.938964  0
H  H33  1  0.98881029  0.92741152  0.19195256  1  0.642297  0  0.306602  0.397283  0  0.938862  0
H  H34  1  0.48880860  0.57259577  0.19194833  1  0.642851  0  0.306595  0.397225  0  0.938923  0
H  H35  1  0.01118466  0.07258761  0.80804398  1  0.642311  0  0.306578  0.39724  0  0.938927  0
H  H36  1  0.60233784  0.53083768  0.84948680  1  0.623105  0  0.287809  0.33715  0  1.032659  0
H  H37  1  0.89765725  0.03084525  0.15051886  1  0.622863  0  0.287785  0.337119  0  1.032695  0
H  H38  1  0.39766667  0.46915994  0.15051784  1  0.623056  0  0.287781  0.337128  0  1.032678  0
H  H39  1  0.10233443  0.96915837  0.84948316  1  0.623148  0  0.287803  0.337086  0  1.032737  0
H  H40  1  0.21660237  0.35045309  0.64429507  1  0.642051  0  0.317303  0.406899  0  0.90213  0
H  H41  1  0.28344074  0.85045784  0.35572036  1  0.641994  0  0.317326  0.406874  0  0.902109  0
H  H42  1  0.78344873  0.64955354  0.35571469  1  0.642185  0  0.317372  0.406928  0  0.902026  0
H  H43  1  0.71659268  0.14953679  0.64428841  1  0.642171  0  0.317249  0.406831  0  0.902192  0
H  H44  1  0.07655083  0.25371064  0.64986744  1  0.654639  0  0.301078  0.416508  0  0.909269  0
H  H45  1  0.42347793  0.75371312  0.35013554  1  0.654581  0  0.301072  0.416515  0  0.909276  0
H  H46  1  0.92346986  0.74630049  0.35012865  1  0.654516  0  0.300929  0.416331  0  0.909491  0
H  H47  1  0.57654269  0.24627850  0.64986684  1  0.65473  0  0.301049  0.416507  0  0.909327  0
C  C48  1  0.01702739  0.60760898  0.85483578  1  1.561938  0  0.184423  0.556764  0  4.285818  0
C  C49  1  0.48296035  0.10761080  0.14516726  1  1.561898  0  0.184347  0.556692  0  4.285957  0
C  C50  1  0.98297390  0.39239315  0.14516930  1  1.562044  0  0.184401  0.556589  0  4.286247  0
C  C51  1  0.51701701  0.89238007  0.85481946  1  1.56244  0  0.184352  0.55643  0  4.285642  0
C  C52  1  0.05697769  0.69908567  0.90955404  1  -0.079273  0  -0.01122  -0.072839  0  3.966364  0
C  C53  1  0.44300205  0.19908991  0.09045448  1  -0.081215  0  -0.011256  -0.072992  0  3.966373  0
C  C54  1  0.94299628  0.30091946  0.09044951  1  -0.081313  0  -0.01124  -0.072761  0  3.96641  0
C  C55  1  0.55696239  0.80090472  0.90953782  1  -0.081917  0  -0.011265  -0.073084  0  3.966218  0
C  C56  1  0.04697937  0.79382053  0.87126994  1  0.570737  0  0.062619  0.083211  0  3.906477  0
C  C57  1  0.45298754  0.29382677  0.12873942  1  0.57021  0  0.062687  0.083182  0  3.905972  0
C  C58  1  0.95297693  0.20618385  0.12873199  1  0.570527  0  0.062593  0.083136  0  3.90617  0
C  C59  1  0.54697363  0.70616636  0.87125712  1  0.569994  0  0.062587  0.083145  0  3.90603  0
C  C60  1  0.12149130  0.87440292  0.00063649  1  0.456027  0  0.0633  0.095038  0  3.870519  0
C  C61  1  0.37849359  0.37440843  0.99937276  1  0.456685  0  0.063312  0.095258  0  3.870394  0
C  C62  1  0.87848106  0.12559921  0.99936697  1  0.456158  0  0.063252  0.09532  0  3.870704  0
C  C63  1  0.62148527  0.62559144  0.00062477  1  0.456339  0  0.063246  0.095111  0  3.870625  0
C  C64  1  0.12977440  0.78337081  0.04460208  1  0.043251  0  -0.014393  -0.105744  0  3.958975  0
C  C65  1  0.37021522  0.28337274  0.95540467  1  -0.003403  0  -0.014376  -0.105869  0  3.959025  0
C  C66  1  0.87020278  0.21662982  0.95540102  1  0.04254  0  -0.014384  -0.105913  0  3.958966  0
C  C67  1  0.62976041  0.71662864  0.04459330  1  0.04307  0  -0.014364  -0.105875  0  3.959003  0
C  C68  1  0.09839737  0.69408526  0.99796523  1  -0.030322  0  -0.048254  -0.054749  0  3.885148  0
C  C69  1  0.40159212  0.19409294  0.00204191  1  -0.028213  0  -0.048198  -0.054564  0  3.885247  0
C  C70  1  0.90158947  0.30591987  0.00203778  1  -0.028212  0  -0.048173  -0.054655  0  3.885011  0
C  C71  1  0.59837712  0.80590843  0.99795319  1  -0.027978  0  -0.048215  -0.054476  0  3.884875  0
C  C72  1  0.17277526  0.78158190  0.14009114  1  1.604817  0  0.241671  0.662084  0  4.144747  0
C  C73  1  0.32722082  0.28158569  0.85991595  1  1.650587  0  0.241696  0.662  0  4.144564  0
C  C74  1  0.82722440  0.21842097  0.85991574  1  1.604523  0  0.241606  0.662157  0  4.144452  0
C  C75  1  0.67277249  0.71841569  0.14008302  1  1.604498  0  0.241695  0.661962  0  4.144593  0
C  C76  1  0.63954904  0.44247416  0.60525940  1  1.535032  0  0.201286  0.640902  0  4.141927  0
C  C77  1  0.86044741  0.94249034  0.39473646  1  1.535382  0  0.201232  0.640839  0  4.142374  0
C  C78  1  0.36047635  0.55751821  0.39474829  1  1.534498  0  0.201351  0.640813  0  4.142151  0
C  C79  1  0.13953953  0.05751628  0.60525774  1  1.534694  0  0.201313  0.640931  0  4.141923  0
C  C80  1  0.49133673  0.45003610  0.52249254  1  -0.003292  0  -0.158594  -0.268799  0  3.92923  0
C  C81  1  0.00869215  0.95004993  0.47749786  1  -0.004073  0  -0.158892  -0.269291  0  3.929675  0
C  C82  1  0.50871604  0.54995403  0.47751165  1  -0.028753  0  -0.158553  -0.268812  0  3.929317  0
C  C83  1  0.99129642  0.04995444  0.52249454  1  -0.028949  0  -0.158636  -0.268861  0  3.929605  0
N  N84  1  0.07944565  0.87929198  0.91538435  1  -1.237959  0  -0.308889  -0.233227  0  3.430922  0
N  N85  1  0.42052467  0.37929775  0.08462539  1  -1.238306  0  -0.309032  -0.233468  0  3.431004  0
N  N86  1  0.92051385  0.12071089  0.08461776  1  -1.237912  0  -0.308861  -0.233381  0  3.430877  0
N  N87  1  0.57944290  0.62069687  0.91537465  1  -1.23849  0  -0.308923  -0.233344  0  3.431138  0
O  O88  1  0.04303344  0.52066270  0.88794930  1  -1.173901  0  -0.36475  -0.623435  0  2.236582  0
O  O89  1  0.45696225  0.02066643  0.11204705  1  -1.173876  0  -0.364687  -0.623401  0  2.236501  0
O  O90  1  0.95696304  0.47934243  0.11205488  1  -1.173957  0  -0.364752  -0.62348  0  2.236644  0
O  O91  1  0.54304735  0.97932969  0.88793392  1  -1.174303  0  -0.364823  -0.62332  0  2.236266  0
O  O92  1  0.95418758  0.61945897  0.77557663  1  -1.173538  0  -0.368292  -0.630341  0  2.202746  0
O  O93  1  0.54582218  0.11945432  0.22442441  1  -1.173488  0  -0.368326  -0.630362  0  2.202933  0
O  O94  1  0.04583791  0.38054090  0.22442225  1  -1.173571  0  -0.368264  -0.630253  0  2.202986  0
O  O95  1  0.45415196  0.88052830  0.77556340  1  -1.173033  0  -0.368163  -0.630082  0  2.202641  0
O  O96  1  0.22123096  0.86385757  0.17895261  1  -1.2179  0  -0.364679  -0.666634  0  2.339951  0
O  O97  1  0.27877498  0.36386553  0.82105898  1  -1.217727  0  -0.364724  -0.666538  0  2.340012  0
O  O98  1  0.77876877  0.13614530  0.82104860  1  -1.217717  0  -0.364637  -0.666551  0  2.339683  0
O  O99  1  0.72123281  0.63613959  0.17894016  1  -1.217784  0  -0.364606  -0.666419  0  2.339928  0
O  O100  1  0.15597637  0.69797471  0.17605892  1  -1.199123  0  -0.398895  -0.659691  0  2.358662  0
O  O101  1  0.34403078  0.19797040  0.82394483  1  -1.199004  0  -0.398905  -0.659671  0  2.358451  0
O  O102  1  0.84405229  0.30202742  0.82394391  1  -1.199095  0  -0.398887  -0.659763  0  2.358589  0
O  O103  1  0.65596097  0.80203998  0.17604964  1  -1.198904  0  -0.398961  -0.659728  0  2.358494  0
O  O104  1  0.78153922  0.50934016  0.62582385  1  -1.183976  0  -0.392084  -0.61471  0  2.176188  0
O  O105  1  0.71845141  0.00935329  0.37418072  1  -1.183974  0  -0.392007  -0.614676  0  2.176408  0
O  O106  1  0.21847005  0.49065972  0.37418672  1  -1.183758  0  -0.392162  -0.614897  0  2.176539  0
O  O107  1  0.28154031  0.99065333  0.62581689  1  -1.183882  0  -0.392078  -0.614794  0  2.176281  0
O  O108  1  0.62252869  0.36847071  0.65625364  1  -1.2028  0  -0.36567  -0.649855  0  2.235059  0
O  O109  1  0.87746418  0.86848458  0.34373941  1  -1.202781  0  -0.365602  -0.649637  0  2.235102  0
O  O110  1  0.37749031  0.63151716  0.34374929  1  -1.202574  0  -0.365741  -0.649761  0  2.23499  0
O  O111  1  0.12251149  0.13152204  0.65625604  1  -1.202706  0  -0.365678  -0.649758  0  2.234861  0
O  O112  1  0.23413468  0.51848286  0.69194271  1  -1.247379  0  -0.61195  -0.811645  0  2.052588  0
O  O113  1  0.26588352  0.01848207  0.30805741  1  -1.24798  0  -0.611955  -0.811676  0  2.052605  0
O  O114  1  0.76589721  0.48152751  0.30805905  1  -1.248353  0  -0.611901  -0.811803  0  2.052501  0
O  O115  1  0.73412262  0.98150130  0.69194606  1  -1.248243  0  -0.611917  -0.811635  0  2.052406  0
O  O116  1  0.60663684  0.48422087  0.79793313  1  -1.273054  0  -0.62347  -0.84599  0  2.23538  0
O  O117  1  0.89337975  0.98422889  0.20206930  1  -1.271981  0  -0.62345  -0.845987  0  2.235423  0
O  O118  1  0.39338379  0.51577901  0.20206862  1  -1.272762  0  -0.62343  -0.845942  0  2.235442  0
O  O119  1  0.10662480  0.01577099  0.79793156  1  -1.272246  0  -0.623426  -0.845895  0  2.235396  0
O  O120  1  0.06998890  0.32885674  0.64861784  1  -1.279736  0  -0.634263  -0.848777  0  2.037912  0
O  O121  1  0.43004822  0.82885921  0.35138949  1  -1.279679  0  -0.634253  -0.848779  0  2.037893  0
O  O122  1  0.93004944  0.67115514  0.35138176  1  -1.279815  0  -0.634155  -0.848605  0  2.038014  0
O  O123  1  0.56997403  0.17113467  0.64861110  1  -1.279901  0  -0.634156  -0.848712  0  2.037873  0
