# generated using pymatgen
data_ZnH7C5O7
_symmetry_space_group_name_H-M   'P 1'
_cell_length_a   6.71085555
_cell_length_b   7.58523433
_cell_length_c   16.72508618
_cell_angle_alpha   104.32181834
_cell_angle_beta   93.34310848
_cell_angle_gamma   91.90266141
_symmetry_Int_Tables_number   1
_chemical_formula_structural   ZnH7C5O7
_chemical_formula_sum   'Zn4 H28 C20 O28'
_cell_volume   822.50226144
_cell_formula_units_Z   4
loop_
 _symmetry_equiv_pos_site_id
 _symmetry_equiv_pos_as_xyz
  1  'x, y, z'
loop_
 _atom_site_type_symbol
 _atom_site_label
 _atom_site_symmetry_multiplicity
 _atom_site_fract_x
 _atom_site_fract_y
 _atom_site_fract_z
 _atom_site_occupancy
 _atom_site_hle17_bader_spin_density
 _atom_site_hle17_ddec_charge
 _atom_site_hle17_ddec_spin_density
 _atom_site_hle17_ddec_sum_bond_order
 _atom_site_hle17_magmom
 _atom_site_hse06_10hf_bader_spin_density
 _atom_site_hse06_10hf_ddec_charge
 _atom_site_hse06_10hf_ddec_spin_density
 _atom_site_hse06_10hf_ddec_sum_bond_order
 _atom_site_hse06_10hf_magmom
 _atom_site_hse06_bader_spin_density
 _atom_site_hse06_ddec_charge
 _atom_site_hse06_ddec_spin_density
 _atom_site_hse06_ddec_sum_bond_order
 _atom_site_hse06_magmom
 _atom_site_pbe_bader_spin_density
 _atom_site_pbe_cm5_charge
 _atom_site_pbe_ddec_charge
 _atom_site_pbe_ddec_spin_density
 _atom_site_pbe_ddec_sum_bond_order
 _atom_site_pbe_magmom
Zn  Zn0  1  0.21768228  0.57390207  0.18545995  1  0  1.222592  0  1.67327  0  0  1.07804  0  2.112366  0  0  1.122134  0  2.052938  0  0  0.673599  1.046878  0  2.153391  0
Zn  Zn1  1  0.78230809  0.42609232  0.81454063  1  0  1.222558  0  1.673341  0  0  1.077991  0  2.112435  0  0  1.122091  0  2.053001  0  0  0.673576  1.046822  0  2.153458  0
Zn  Zn2  1  0.26251302  0.97546711  0.31780074  1  0  1.195341  0  1.640569  0  0  1.035229  0  2.077404  0  0  1.08464  0  2.015272  0  0  0.681005  1.000232  0  2.120335  0
Zn  Zn3  1  0.73749281  0.02453526  0.68220040  1  0  1.195283  0  1.640546  0  0  1.035145  0  2.077378  0  0  1.084569  0  2.015232  0  0  0.680974  1.000141  0  2.120301  0
H  H4  1  0.36087898  0.56654887  0.49305955  1  0  0.096439  0  0.973811  0  0  0.102953  0  1.044917  0  0  0.106105  0  1.043141  0  0  0.105186  0.100656  0  1.046343  0
H  H5  1  0.63911143  0.43346864  0.50694225  1  0  0.096441  0  0.973724  0  0  0.102977  0  1.044814  0  0  0.106132  0  1.043039  0  0  0.105195  0.100682  0  1.046238  0
H  H6  1  0.34250516  0.11601447  0.05970302  1  0  0.114684  0  0.933382  0  0  0.125465  0  0.992527  0  0  0.128793  0  0.990889  0  0  0.114019  0.122976  0  0.993944  0
H  H7  1  0.65747959  0.88398538  0.94029682  1  0  0.11469  0  0.933394  0  0  0.125469  0  0.992572  0  0  0.128786  0  0.990949  0  0  0.114022  0.123009  0  0.993954  0
H  H8  1  0.56067539  0.75180512  0.28925090  1  0  0.425478  0  0.88215  0  0  0.389983  0  0.952181  0  0  0.40277  0  0.933886  0  0  0.288685  0.380948  0  0.965089  0
H  H9  1  0.43932318  0.24820011  0.71075158  1  0  0.425472  0  0.882179  0  0  0.389979  0  0.952195  0  0  0.402764  0  0.933904  0  0  0.288692  0.380952  0  0.965089  0
H  H10  1  0.53862957  0.84447053  0.21018742  1  0  0.426334  0  0.882563  0  0  0.392023  0  0.950691  0  0  0.404887  0  0.932483  0  0  0.286727  0.382982  0  0.963455  0
H  H11  1  0.46137110  0.15552227  0.78981022  1  0  0.426322  0  0.882574  0  0  0.392049  0  0.95065  0  0  0.404913  0  0.932441  0  0  0.286751  0.383009  0  0.963415  0
H  H12  1  0.45351267  0.61376916  0.07595481  1  0  0.417866  0  0.892805  0  0  0.384231  0  0.960107  0  0  0.395512  0  0.943908  0  0  0.288287  0.376286  0  0.971501  0
H  H13  1  0.54647590  0.38622110  0.92404350  1  0  0.417933  0  0.892685  0  0  0.384263  0  0.960066  0  0  0.395546  0  0.943862  0  0  0.288283  0.376314  0  0.971468  0
H  H14  1  0.28010879  0.48005562  0.02446486  1  0  0.427499  0  0.871631  0  0  0.396735  0  0.93342  0  0  0.407929  0  0.917369  0  0  0.294504  0.388848  0  0.944705  0
H  H15  1  0.71987677  0.51993345  0.97553685  1  0  0.427515  0  0.871562  0  0  0.396713  0  0.933402  0  0  0.407906  0  0.917352  0  0  0.294473  0.388826  0  0.944688  0
H  H16  1  0.48160717  0.42350266  0.25555860  1  0  0.417798  0  0.892565  0  0  0.385249  0  0.958439  0  0  0.396738  0  0.941864  0  0  0.286302  0.377127  0  0.970139  0
H  H17  1  0.51838980  0.57650117  0.74444251  1  0  0.417779  0  0.892606  0  0  0.385231  0  0.958487  0  0  0.396722  0  0.941909  0  0  0.28632  0.377106  0  0.97019  0
H  H18  1  0.35500384  0.26400268  0.19525376  1  0  0.423625  0  0.883552  0  0  0.39198  0  0.948073  0  0  0.403079  0  0.93206  0  0  0.287417  0.384142  0  0.959368  0
H  H19  1  0.64498835  0.73599590  0.80475028  1  0  0.423566  0  0.883621  0  0  0.391894  0  0.948194  0  0  0.402998  0  0.932172  0  0  0.287406  0.384057  0  0.959488  0
H  H20  1  0.89355990  0.92095773  0.35578911  1  0  0.436874  0  0.854545  0  0  0.404102  0  0.920223  0  0  0.414903  0  0.904467  0  0  0.299999  0.396409  0  0.931434  0
H  H21  1  0.10646008  0.07905421  0.64421811  1  0  0.436849  0  0.854582  0  0  0.404058  0  0.920293  0  0  0.414858  0  0.904538  0  0  0.299981  0.396359  0  0.931515  0
H  H22  1  0.88314050  0.03081533  0.28884995  1  0  0.433565  0  0.816036  0  0  0.410395  0  0.879246  0  0  0.41901  0  0.869723  0  0  0.316684  0.404227  0  0.886117  0
H  H23  1  0.11688244  0.96919653  0.71115613  1  0  0.433637  0  0.815908  0  0  0.410436  0  0.87911  0  0  0.419058  0  0.869576  0  0  0.316725  0.404255  0  0.886004  0
H  H24  1  0.51034048  0.27751328  0.37836934  1  0  0.440977  0  0.861149  0  0  0.402831  0  0.935235  0  0  0.41499  0  0.917849  0  0  0.293305  0.394251  0  0.947476  0
H  H25  1  0.48968381  0.72249944  0.62162429  1  0  0.440968  0  0.861107  0  0  0.402833  0  0.935185  0  0  0.41499  0  0.917803  0  0  0.293365  0.394254  0  0.947425  0
H  H26  1  0.56193438  0.11725653  0.42290550  1  0  0.444615  0  0.797661  0  0  0.425273  0  0.85363  0  0  0.433909  0  0.843695  0  0  0.331321  0.419067  0  0.86085  0
H  H27  1  0.43810856  0.88274622  0.57708209  1  0  0.444505  0  0.797652  0  0  0.425162  0  0.85365  0  0  0.433799  0  0.843709  0  0  0.331269  0.418953  0  0.860879  0
H  H28  1  0.86547932  0.38893659  0.17060717  1  0  0.439536  0  0.795099  0  0  0.421069  0  0.850219  0  0  0.429538  0  0.840563  0  0  0.327927  0.414971  0  0.85728  0
H  H29  1  0.13451846  0.61105762  0.82939115  1  0  0.439577  0  0.795063  0  0  0.4211  0  0.850198  0  0  0.42957  0  0.840541  0  0  0.327968  0.415002  0  0.857256  0
H  H30  1  0.85360131  0.51762948  0.11067218  1  0  0.438871  0  0.850953  0  0  0.406205  0  0.915535  0  0  0.416711  0  0.900258  0  0  0.302482  0.398807  0  0.926288  0
H  H31  1  0.14639508  0.48236614  0.88932686  1  0  0.438697  0  0.851188  0  0  0.40604  0  0.915745  0  0  0.41655  0  0.900462  0  0  0.302406  0.39864  0  0.9265  0
C  C32  1  0.06741651  0.57748399  0.43786505  1  0  -0.038369  0  3.704478  0  0  -0.024675  0  3.938891  0  0  -0.028097  0  3.956791  0  0  -0.004029  -0.022516  0  3.927022  0
C  C33  1  0.93258378  0.42250334  0.56213140  1  0  -0.038373  0  3.704294  0  0  -0.024486  0  3.938549  0  0  -0.027919  0  3.956439  0  0  -0.003988  -0.022342  0  3.926711  0
C  C34  1  0.86241013  0.53844717  0.44087857  1  0  -0.063158  0  3.728854  0  0  -0.05227  0  3.969087  0  0  -0.056555  0  3.987906  0  0  -0.00799  -0.049611  0  3.956617  0
C  C35  1  0.13759145  0.46155807  0.55912517  1  0  -0.063083  0  3.728429  0  0  -0.052351  0  3.968697  0  0  -0.056571  0  3.987429  0  0  -0.008003  -0.049684  0  3.956229  0
C  C36  1  0.20213457  0.53928300  0.49708070  1  0  -0.082166  0  3.72123  0  0  -0.11796  0  3.976053  0  0  -0.117832  0  3.994327  0  0  -0.079838  -0.11797  0  3.963856  0
C  C37  1  0.79786390  0.46072084  0.50292103  1  0  -0.082151  0  3.721349  0  0  -0.118031  0  3.976093  0  0  -0.117895  0  3.994403  0  0  -0.079853  -0.118042  0  3.963909  0
C  C38  1  0.14524348  0.65531716  0.37099454  1  0  0.695382  0  3.877823  0  0  0.637893  0  4.182679  0  0  0.674015  0  4.172279  0  0  0.221274  0.613178  0  4.189225  0
C  C39  1  0.85475170  0.34468258  0.62900550  1  0  0.695186  0  3.877568  0  0  0.637595  0  4.182527  0  0  0.673684  0  4.172188  0  0  0.221132  0.612885  0  4.189063  0
C  C40  1  0.71143596  0.57772603  0.37895303  1  0  0.683754  0  3.853065  0  0  0.622239  0  4.161269  0  0  0.656749  0  4.151803  0  0  0.223729  0.598828  0  4.167028  0
C  C41  1  0.28856940  0.42229137  0.62105026  1  0  0.683721  0  3.853004  0  0  0.622371  0  4.161021  0  0  0.656855  0  4.151559  0  0  0.223802  0.598955  0  4.166777  0
C  C42  1  0.06480968  0.98467021  0.07882947  1  0  -0.05069  0  3.718501  0  0  -0.040486  0  3.963337  0  0  -0.045185  0  3.981858  0  0  -0.004543  -0.037556  0  3.951178  0
C  C43  1  0.93518357  0.01532276  0.92117042  1  0  -0.050802  0  3.718689  0  0  -0.040646  0  3.963534  0  0  -0.045349  0  3.982059  0  0  -0.004607  -0.037714  0  3.951377  0
C  C44  1  0.87234890  0.91774391  0.04487770  1  0  -0.047672  0  3.705385  0  0  -0.039341  0  3.952197  0  0  -0.041897  0  3.969835  0  0  -0.001729  -0.037837  0  3.940533  0
C  C45  1  0.12764343  0.08225729  0.95512423  1  0  -0.047688  0  3.70549  0  0  -0.039298  0  3.952245  0  0  -0.041853  0  3.969885  0  0  -0.0017  -0.037786  0  3.940568  0
C  C46  1  0.19184981  0.06705760  0.03386828  1  0  -0.067828  0  3.672252  0  0  -0.103736  0  3.927944  0  0  -0.103043  0  3.944932  0  0  -0.071812  -0.104194  0  3.916833  0
C  C47  1  0.80813462  0.93293808  0.96612872  1  0  -0.067723  0  3.672137  0  0  -0.103644  0  3.92788  0  0  -0.102941  0  3.944874  0  0  -0.071775  -0.104123  0  3.916758  0
C  C48  1  0.12729266  0.96085205  0.16221816  1  0  0.670029  0  3.859185  0  0  0.612948  0  4.15228  0  0  0.648286  0  4.14387  0  0  0.219793  0.588853  0  4.157403  0
C  C49  1  0.87270503  0.03914080  0.83778001  1  0  0.670036  0  3.859471  0  0  0.613032  0  4.152418  0  0  0.648369  0  4.14401  0  0  0.219893  0.588936  0  4.157546  0
C  C50  1  0.73386650  0.83577309  0.09490778  1  0  0.688347  0  3.8724  0  0  0.627675  0  4.182374  0  0  0.66141  0  4.173384  0  0  0.223801  0.604797  0  4.187791  0
C  C51  1  0.26613455  0.16422520  0.90509163  1  0  0.688518  0  3.872398  0  0  0.627781  0  4.182468  0  0  0.661523  0  4.173468  0  0  0.223806  0.604891  0  4.187899  0
O  O52  1  0.23991961  0.81030780  0.39531126  1  0  -0.6496  0  2.004598  0  0  -0.581102  0  2.257386  0  0  -0.610046  0  2.242604  0  0  -0.324727  -0.560808  0  2.266954  0
O  O53  1  0.76008404  0.18968614  0.60468177  1  0  -0.649492  0  2.00417  0  0  -0.581003  0  2.257063  0  0  -0.60994  0  2.242304  0  0  -0.324643  -0.56071  0  2.266624  0
O  O54  1  0.11026539  0.56218805  0.29717557  1  0  -0.661331  0  2.073859  0  0  -0.602856  0  2.339668  0  0  -0.630454  0  2.324688  0  0  -0.316756  -0.583531  0  2.349367  0
O  O55  1  0.88972938  0.43780615  0.70282149  1  0  -0.661175  0  2.073906  0  0  -0.602681  0  2.339768  0  0  -0.630255  0  2.324782  0  0  -0.31668  -0.583355  0  2.349459  0
O  O56  1  0.56618993  0.45990964  0.35258870  1  0  -0.640756  0  2.017574  0  0  -0.566819  0  2.230359  0  0  -0.59446  0  2.219796  0  0  -0.305085  -0.547441  0  2.237121  0
O  O57  1  0.43380077  0.54011199  0.64741413  1  0  -0.640679  0  2.017702  0  0  -0.566874  0  2.230525  0  0  -0.594515  0  2.219971  0  0  -0.305063  -0.547504  0  2.237302  0
O  O58  1  0.73149802  0.72367573  0.35522108  1  0  -0.628678  0  1.994585  0  0  -0.564217  0  2.211388  0  0  -0.590124  0  2.199715  0  0  -0.304286  -0.546179  0  2.219042  0
O  O59  1  0.26850781  0.27634737  0.64478941  1  0  -0.628717  0  1.994425  0  0  -0.564247  0  2.211107  0  0  -0.590144  0  2.199439  0  0  -0.304396  -0.546213  0  2.218762  0
O  O60  1  0.23867798  0.08444700  0.21352801  1  0  -0.635138  0  2.044138  0  0  -0.552668  0  2.276271  0  0  -0.582287  0  2.263508  0  0  -0.297819  -0.532104  0  2.284503  0
O  O61  1  0.76130387  0.91555423  0.78647131  1  0  -0.635151  0  2.044149  0  0  -0.552695  0  2.27627  0  0  -0.582326  0  2.263525  0  0  -0.29789  -0.532136  0  2.284507  0
O  O62  1  0.06245965  0.82065586  0.18291705  1  0  -0.68034  0  2.131434  0  0  -0.616674  0  2.393561  0  0  -0.644627  0  2.381223  0  0  -0.309949  -0.597103  0  2.40144  0
O  O63  1  0.93753062  0.17933714  0.81708278  1  0  -0.680287  0  2.131592  0  0  -0.616629  0  2.393685  0  0  -0.644592  0  2.381369  0  0  -0.309937  -0.597045  0  2.401535  0
O  O64  1  0.66395852  0.94059064  0.15662567  1  0  -0.600748  0  1.938452  0  0  -0.551692  0  2.156227  0  0  -0.576138  0  2.145649  0  0  -0.31381  -0.534653  0  2.163094  0
O  O65  1  0.33603482  0.05940370  0.84337437  1  0  -0.600803  0  1.938474  0  0  -0.551756  0  2.156289  0  0  -0.576199  0  2.145703  0  0  -0.313798  -0.534716  0  2.163159  0
O  O66  1  0.69073815  0.66360659  0.06979405  1  0  -0.66732  0  2.043538  0  0  -0.589289  0  2.248593  0  0  -0.616141  0  2.236278  0  0  -0.30675  -0.570593  0  2.25674  0
O  O67  1  0.30925988  0.33639049  0.93020816  1  0  -0.667316  0  2.043578  0  0  -0.589273  0  2.248672  0  0  -0.616137  0  2.236363  0  0  -0.306716  -0.570573  0  2.256825  0
O  O68  1  0.45888063  0.78852814  0.24942627  1  0  -0.898504  0  2.028467  0  0  -0.822368  0  2.265235  0  0  -0.849306  0  2.224485  0  0  -0.564042  -0.803294  0  2.293295  0
O  O69  1  0.54111420  0.21146615  0.75057320  1  0  -0.898495  0  2.028636  0  0  -0.822371  0  2.265368  0  0  -0.849308  0  2.22462  0  0  -0.564061  -0.803294  0  2.293405  0
O  O70  1  0.30518362  0.58795483  0.07250276  1  0  -0.837308  0  1.914339  0  0  -0.773008  0  2.11975  0  0  -0.797326  0  2.085806  0  0  -0.584354  -0.755756  0  2.14308  0
O  O71  1  0.69480321  0.41203142  0.92749689  1  0  -0.837359  0  1.914135  0  0  -0.773024  0  2.119604  0  0  -0.797342  0  2.085657  0  0  -0.584317  -0.755782  0  2.142955  0
O  O72  1  0.42560509  0.38301844  0.19650515  1  0  -0.851989  0  1.887601  0  0  -0.796127  0  2.093769  0  0  -0.817832  0  2.056381  0  0  -0.590135  -0.780733  0  2.119614  0
O  O73  1  0.57438989  0.61697736  0.80349806  1  0  -0.851929  0  1.887677  0  0  -0.796031  0  2.093811  0  0  -0.817739  0  2.056415  0  0  -0.590142  -0.78065  0  2.119686  0
O  O74  1  0.95254854  0.03095405  0.34195968  1  0  -0.804768  0  1.830566  0  0  -0.746174  0  2.017135  0  0  -0.767453  0  1.988197  0  0  -0.559537  -0.731159  0  2.03734  0
O  O75  1  0.04746574  0.96906202  0.65804725  1  0  -0.804784  0  1.830394  0  0  -0.746147  0  2.016983  0  0  -0.767435  0  1.988038  0  0  -0.559573  -0.731114  0  2.03723  0
O  O76  1  0.45423697  0.16509998  0.39416628  1  0  -0.832245  0  1.874797  0  0  -0.767246  0  2.090864  0  0  -0.788826  0  2.056024  0  0  -0.562108  -0.752127  0  2.115178  0
O  O77  1  0.54580231  0.83489318  0.60581784  1  0  -0.83211  0  1.874849  0  0  -0.767095  0  2.090871  0  0  -0.788678  0  2.056039  0  0  -0.562043  -0.751972  0  2.115173  0
O  O78  1  0.94172071  0.43319669  0.13107914  1  0  -0.801122  0  1.849055  0  0  -0.743887  0  2.041731  0  0  -0.764574  0  2.013155  0  0  -0.556822  -0.729361  0  2.061602  0
O  O79  1  0.05827389  0.56679481  0.86891823  1  0  -0.801013  0  1.849231  0  0  -0.743758  0  2.041905  0  0  -0.764448  0  2.01333  0  0  -0.556781  -0.72923  0  2.061774  0
