# generated using pymatgen
data_ZnH24C20(NO)4
_symmetry_space_group_name_H-M   'P 1'
_cell_length_a   6.73513912
_cell_length_b   9.65568215
_cell_length_c   15.45290000
_cell_angle_alpha   96.58079209
_cell_angle_beta   92.32996732
_cell_angle_gamma   91.90697428
_symmetry_Int_Tables_number   1
_chemical_formula_structural   ZnH24C20(NO)4
_chemical_formula_sum   'Zn2 H48 C40 N8 O8'
_cell_volume   996.76317008
_cell_formula_units_Z   2
loop_
 _symmetry_equiv_pos_site_id
 _symmetry_equiv_pos_as_xyz
  1  'x, y, z'
loop_
 _atom_site_type_symbol
 _atom_site_label
 _atom_site_symmetry_multiplicity
 _atom_site_fract_x
 _atom_site_fract_y
 _atom_site_fract_z
 _atom_site_occupancy
 _atom_site_pbe_bader_charge
 _atom_site_pbe_bader_spin_density
 _atom_site_pbe_cm5_charge
 _atom_site_pbe_ddec_charge
 _atom_site_pbe_ddec_spin_density
 _atom_site_pbe_ddec_sum_bond_order
 _atom_site_pbe_magmom
Zn  Zn0  1  0.85937929  0.02128731  0.25061544  1  1.254607  0  0.681818  0.760172  0  2.410917  0
Zn  Zn1  1  0.14061074  0.97872052  0.74938908  1  1.254654  0  0.681778  0.760159  0  2.411063  0
H  H2  1  0.84644252  0.81435943  0.07095378  1  0.11587  0  0.117551  0.10594  0  1.03813  0
H  H3  1  0.15354625  0.18565256  0.92906073  1  0.115926  0  0.117517  0.10593  0  1.038089  0
H  H4  1  0.16274138  0.80627080  0.95886433  1  0.165368  0  0.125545  0.136744  0  1.023943  0
H  H5  1  0.83723722  0.19371824  0.04114253  1  0.164928  0  0.12548  0.136574  0  1.024124  0
H  H6  1  0.33461791  0.04867682  0.19830696  1  0.181444  0  0.141832  0.11845  0  1.008208  0
H  H7  1  0.66538555  0.95133204  0.80169529  1  0.181448  0  0.141832  0.118435  0  1.007944  0
H  H8  1  0.56083710  0.85366124  0.01771640  1  0.050977  0  0.11321  0.09058  0  1.013896  0
H  H9  1  0.43914619  0.14633197  0.98228243  1  0.051269  0  0.113204  0.090589  0  1.014008  0
H  H10  1  0.59560890  0.00783511  0.09301721  1  0.113249  0  0.11912  0.110918  0  1.014499  0
H  H11  1  0.40438633  0.99215914  0.90698191  1  0.113105  0  0.119131  0.111033  0  1.014334  0
H  H12  1  0.64639268  0.60620518  0.09752835  1  0.004282  0  0.083812  0.075608  0  1.013571  0
H  H13  1  0.35360735  0.39379534  0.90247065  1  0.004252  0  0.083812  0.07557  0  1.013619  0
H  H14  1  0.44114343  0.71392600  0.11929138  1  0.030787  0  0.087075  0.083024  0  1.047754  0
H  H15  1  0.55885838  0.28607973  0.88070868  1  0.030857  0  0.087072  0.082973  0  1.047846  0
H  H16  1  0.33012640  0.48559346  0.03611629  1  -0.030696  0  0.086607  0.051784  0  0.994301  0
H  H17  1  0.66987243  0.51441228  0.96388371  1  -0.030646  0  0.086605  0.051792  0  0.99432  0
H  H18  1  0.09998580  0.60436690  0.14105821  1  0.030734  0  0.082261  0.079428  0  1.018697  0
H  H19  1  0.90001155  0.39563883  0.85894177  1  0.030828  0  0.082287  0.079439  0  1.018716  0
H  H20  1  0.06966261  0.42023755  0.13711934  1  0.022239  0  0.083869  0.080919  0  1.00173  0
H  H21  1  0.93033622  0.57976819  0.86288131  1  0.022662  0  0.083858  0.080874  0  1.00178  0
H  H22  1  0.08956682  0.53468551  0.29141503  1  0.020483  0  0.091716  0.067554  0  0.991605  0
H  H23  1  0.91043647  0.46532023  0.70858569  1  0.020467  0  0.091726  0.067551  0  0.991601  0
H  H24  1  0.40221998  0.65722106  0.35272741  1  0.00352  0  0.08524  0.080307  0  0.986226  0
H  H25  1  0.59778605  0.34278050  0.64727177  1  0.003517  0  0.085205  0.08021  0  0.986256  0
H  H26  1  0.29860955  0.74231707  0.26577388  1  0.015025  0  0.088137  0.087413  0  1.014922  0
H  H27  1  0.70139665  0.25768762  0.73422683  1  0.015007  0  0.088135  0.08742  0  1.014831  0
H  H28  1  0.69742851  0.50044783  0.32382990  1  0.01988  0  0.089589  0.089514  0  0.995154  0
H  H29  1  0.30257301  0.49955269  0.67616978  1  0.019855  0  0.089579  0.089465  0  0.995191  0
H  H30  1  0.79819960  0.48079745  0.21939563  1  0.036992  0  0.092507  0.094763  0  1.019673  0
H  H31  1  0.20180198  0.51920411  0.78060283  1  0.037157  0  0.092507  0.094746  0  1.019696  0
H  H32  1  0.60118828  0.34347742  0.09095372  1  -0.010361  0  0.085423  0.080726  0  1.02155  0
H  H33  1  0.39880747  0.65652623  0.90904414  1  -0.010383  0  0.08541  0.080735  0  1.021631  0
H  H34  1  0.36380575  0.26687484  0.10725905  1  -0.011326  0  0.080551  0.069552  0  1.022471  0
H  H35  1  0.63618703  0.73312881  0.89274070  1  -0.011327  0  0.080576  0.069585  0  1.022486  0
H  H36  1  0.35969518  0.38890857  0.34623262  1  0.002487  0  0.084512  0.083383  0  1.012479  0
H  H37  1  0.64030651  0.61109508  0.65376728  1  0.002378  0  0.084544  0.08346  0  1.012488  0
H  H38  1  0.22078833  0.29536398  0.25794569  1  0.001096  0  0.08346  0.081786  0  1.009144  0
H  H39  1  0.77921050  0.70464175  0.74205302  1  0.001029  0  0.083448  0.081755  0  1.009201  0
H  H40  1  0.17197751  0.87862511  0.36548024  1  0.179325  0  0.140025  0.109919  0  1.022993  0
H  H41  1  0.82802367  0.12136915  0.63451834  1  0.17945  0  0.139994  0.109894  0  1.023008  0
H  H42  1  0.94701334  0.28186901  0.40477227  1  0.126036  0  0.124948  0.12437  0  0.985432  0
H  H43  1  0.05299830  0.71812629  0.59523433  1  0.126342  0  0.124927  0.124362  0  0.98543  0
H  H44  1  0.21544244  0.24788590  0.54292183  1  0.176814  0  0.12515  0.136381  0  1.023118  0
H  H45  1  0.78457622  0.75210210  0.45707596  1  0.176753  0  0.125192  0.136388  0  1.022986  0
H  H46  1  0.36407821  0.87381136  0.51556875  1  0.085942  0  0.11847  0.106522  0  0.971286  0
H  H47  1  0.63593309  0.12617768  0.48442768  1  0.086098  0  0.11844  0.106414  0  0.971169  0
H  H48  1  0.39190846  0.02993932  0.58647761  1  0.128068  0  0.120438  0.113666  0  0.979603  0
H  H49  1  0.60810724  0.97004868  0.41351948  1  0.127915  0  0.120475  0.113697  0  0.979573  0
C  C50  1  0.99393228  0.86313954  0.08004164  1  0.367281  0  -0.002159  -0.032069  0  4.006772  0
C  C51  1  0.00605547  0.13685367  0.91997022  1  0.367284  0  -0.002114  -0.032099  0  4.007026  0
C  C52  1  0.14883218  0.85601699  0.02491211  1  0.306495  0  0.004578  -0.104949  0  3.891998  0
C  C53  1  0.85114722  0.14398665  0.97508934  1  0.306711  0  0.004555  -0.104817  0  3.892447  0
C  C54  1  0.24004320  0.98782531  0.14837187  1  0.965873  0  0.150508  0.099717  0  3.88932  0
C  C55  1  0.75995580  0.01218355  0.85163548  1  0.965488  0  0.150484  0.099667  0  3.889094  0
C  C56  1  0.50211943  0.95629394  0.03822347  1  0.345342  0  -0.048797  -0.09512  0  3.872736  0
C  C57  1  0.49786392  0.04370032  0.96177931  1  0.321101  0  -0.048806  -0.09526  0  3.87252  0
C  C58  1  0.70231041  0.75612920  0.26032265  1  1.549802  0  0.200752  0.556156  0  4.150929  0
C  C59  1  0.29769243  0.24386819  0.73967488  1  1.549776  0  0.200814  0.556328  0  4.150856  0
C  C60  1  0.56269638  0.62876321  0.23262048  1  0.009047  0  -0.019424  0.04363  0  3.78414  0
C  C61  1  0.43730668  0.37123835  0.76737800  1  0.009075  0  -0.019448  0.043511  0  3.784132  0
C  C62  1  0.50920975  0.61724633  0.13398853  1  -0.026319  0  -0.166304  -0.219508  0  3.870914  0
C  C63  1  0.49079337  0.38275628  0.86601068  1  -0.026299  0  -0.166284  -0.219352  0  3.870891  0
C  C64  1  0.36556387  0.49189180  0.10671552  1  0.064372  0  -0.09458  0.040064  0  3.853657  0
C  C65  1  0.63443187  0.50811185  0.89328428  1  0.06438  0  -0.094577  0.039996  0  3.853687  0
C  C66  1  0.17403928  0.50981763  0.15681320  1  -0.068731  0  -0.167893  -0.211384  0  3.888946  0
C  C67  1  0.82596253  0.49018811  0.84318621  1  -0.069235  0  -0.16792  -0.21138  0  3.888866  0
C  C68  1  0.22565021  0.51982696  0.25510918  1  0.04166  0  -0.093788  0.03644  0  3.840197  0
C  C69  1  0.77435165  0.48017982  0.74489095  1  0.041632  0  -0.093709  0.03664  0  3.839931  0
C  C70  1  0.36805494  0.64632075  0.28173058  1  -0.021983  0  -0.15948  -0.207446  0  3.853253  0
C  C71  1  0.63195126  0.35368394  0.71826883  1  -0.021888  0  -0.159494  -0.207404  0  3.853111  0
C  C72  1  0.62320163  0.23695952  0.24910830  1  1.517415  0  0.197184  0.552953  0  4.141978  0
C  C73  1  0.37679972  0.76303787  0.75088533  1  1.517212  0  0.197282  0.553207  0  4.141924  0
C  C74  1  0.51617648  0.36602815  0.22596572  1  0.037996  0  -0.019496  0.040116  0  3.78806  0
C  C75  1  0.48382372  0.63397549  0.77403157  1  0.03799  0  -0.0195  0.040061  0  3.788185  0
C  C76  1  0.65900191  0.49386154  0.25354471  1  -0.02581  0  -0.159349  -0.225646  0  3.851224  0
C  C77  1  0.34100115  0.50614003  0.74645377  1  -0.025946  0  -0.159327  -0.225547  0  3.851352  0
C  C78  1  0.46496670  0.35811792  0.12729717  1  -0.00023  0  -0.16593  -0.216741  0  3.883916  0
C  C79  1  0.53502756  0.64188573  0.87270196  1  -0.000275  0  -0.165953  -0.216801  0  3.884104  0
C  C80  1  0.32425142  0.38579539  0.27596296  1  0.014854  0  -0.167884  -0.222426  0  3.892963  0
C  C81  1  0.67574884  0.61420931  0.72403505  1  0.014903  0  -0.167939  -0.222535  0  3.893029  0
C  C82  1  0.15182982  0.98545704  0.39261116  1  0.985249  0  0.150526  0.101426  0  3.898368  0
C  C83  1  0.84817433  0.01453721  0.60738682  1  0.985306  0  0.150599  0.101559  0  3.89826  0
C  C84  1  0.03793092  0.19484082  0.41633306  1  0.379938  0  0.003178  -0.026153  0  3.990745  0
C  C85  1  0.96206734  0.80515448  0.58366942  1  0.425511  0  0.00324  -0.026195  0  3.991281  0
C  C86  1  0.17254411  0.18073553  0.48351852  1  0.292979  0  0.006921  -0.099253  0  3.8918  0
C  C87  1  0.82748542  0.81926082  0.51648394  1  0.247123  0  0.006865  -0.099071  0  3.892075  0
C  C88  1  0.39735792  0.98624473  0.51793394  1  0.26859  0  -0.043528  -0.086559  0  3.851804  0
C  C89  1  0.60265184  0.01374327  0.48206239  1  0.290581  0  -0.043529  -0.086556  0  3.851753  0
N  N90  1  0.05173788  0.94654334  0.15631457  1  -1.244535  0  -0.353524  -0.288824  0  3.574754  0
N  N91  1  0.94825243  0.05346970  0.84369034  1  -1.244309  0  -0.353566  -0.288879  0  3.57485  0
N  N92  1  0.30366015  0.93571085  0.06933365  1  -1.244995  0  -0.243718  0.048132  0  3.774163  0
N  N93  1  0.69632205  0.06428967  0.93066957  1  -1.244874  0  -0.243558  0.048454  0  3.773588  0
N  N94  1  0.02652098  0.07216234  0.36008939  1  -1.247653  0  -0.360639  -0.29293  0  3.639318  0
N  N95  1  0.97348329  0.92783400  0.63991263  1  -1.247705  0  -0.360614  -0.293004  0  3.639363  0
N  N96  1  0.24283772  0.04744574  0.46741224  1  -1.226844  0  -0.236868  0.054408  0  3.764516  0
N  N97  1  0.75717198  0.95254122  0.53258402  1  -1.226789  0  -0.23699  0.054224  0  3.764538  0
O  O98  1  0.85193997  0.74841719  0.30997072  1  -1.198176  0  -0.324838  -0.560604  0  2.156142  0
O  O99  1  0.14806303  0.25158332  0.69002704  1  -1.198115  0  -0.324853  -0.560685  0  2.156124  0
O  O100  1  0.65082994  0.87044571  0.22941806  1  -1.18161  0  -0.343801  -0.570605  0  2.344894  0
O  O101  1  0.34916706  0.12955377  0.77058340  1  -1.181735  0  -0.343788  -0.570627  0  2.344956  0
O  O102  1  0.75155163  0.18472403  0.19441249  1  -1.182717  0  -0.345774  -0.573391  0  2.269765  0
O  O103  1  0.24844235  0.81527440  0.80557461  1  -1.182519  0  -0.345857  -0.57352  0  2.269896  0
O  O104  1  0.59099946  0.18636826  0.31864083  1  -1.189032  0  -0.32873  -0.558832  0  2.14614  0
O  O105  1  0.40900321  0.81362600  0.68134677  1  -1.189023  0  -0.32876  -0.558989  0  2.145969  0
