# generated using pymatgen
data_CaH8C8(O2F)4
_symmetry_space_group_name_H-M   'P 1'
_cell_length_a   3.69934286
_cell_length_b   6.65319344
_cell_length_c   22.61624083
_cell_angle_alpha   90.00032920
_cell_angle_beta   90.00017934
_cell_angle_gamma   93.16398820
_symmetry_Int_Tables_number   1
_chemical_formula_structural   CaH8C8(O2F)4
_chemical_formula_sum   'Ca2 H16 C16 O16 F8'
_cell_volume   555.79243914
_cell_formula_units_Z   2
loop_
 _symmetry_equiv_pos_site_id
 _symmetry_equiv_pos_as_xyz
  1  'x, y, z'
loop_
 _atom_site_type_symbol
 _atom_site_label
 _atom_site_symmetry_multiplicity
 _atom_site_fract_x
 _atom_site_fract_y
 _atom_site_fract_z
 _atom_site_occupancy
 _atom_site_hle17_bader_spin_density
 _atom_site_hle17_ddec_charge
 _atom_site_hle17_ddec_spin_density
 _atom_site_hle17_ddec_sum_bond_order
 _atom_site_hle17_magmom
 _atom_site_hse06_10hf_bader_spin_density
 _atom_site_hse06_10hf_ddec_charge
 _atom_site_hse06_10hf_ddec_spin_density
 _atom_site_hse06_10hf_ddec_sum_bond_order
 _atom_site_hse06_10hf_magmom
 _atom_site_hse06_bader_spin_density
 _atom_site_hse06_ddec_charge
 _atom_site_hse06_ddec_spin_density
 _atom_site_hse06_ddec_sum_bond_order
 _atom_site_hse06_magmom
 _atom_site_pbe_bader_spin_density
 _atom_site_pbe_cm5_charge
 _atom_site_pbe_ddec_charge
 _atom_site_pbe_ddec_spin_density
 _atom_site_pbe_ddec_sum_bond_order
 _atom_site_pbe_magmom
Ca  Ca0  1  0.90760079  0.58344862  0.25000028  1  0  1.566159  0  1.015553  0  0  1.44283  0  1.339896  0  0  1.484516  0  1.295895  0  0  0.815014  1.411213  0  1.371297  0
Ca  Ca1  1  0.09239940  0.41655018  0.74999991  1  0  1.566138  0  1.015583  0  0  1.442808  0  1.339923  0  0  1.484493  0  1.295919  0  0  0.815024  1.411215  0  1.371279  0
H  H2  1  0.97558506  0.15650412  0.28432526  1  0  0.41295  0  0.894415  0  0  0.384174  0  0.956816  0  0  0.39425  0  0.942043  0  0  0.302421  0.377052  0  0.967258  0
H  H3  1  0.02441586  0.84349537  0.78432470  1  0  0.412988  0  0.894355  0  0  0.384203  0  0.956775  0  0  0.394279  0  0.942  0  0  0.302431  0.377083  0  0.967215  0
H  H4  1  0.02442069  0.84349619  0.71567536  1  0  0.412999  0  0.894353  0  0  0.384193  0  0.956795  0  0  0.394268  0  0.942021  0  0  0.302436  0.377072  0  0.967235  0
H  H5  1  0.97558148  0.15650193  0.21567592  1  0  0.413007  0  0.894344  0  0  0.384197  0  0.95679  0  0  0.394273  0  0.942015  0  0  0.302453  0.377076  0  0.96723  0
H  H6  1  0.44257870  0.55176886  0.35454624  1  0  0.446769  0  0.81422  0  0  0.415631  0  0.890419  0  0  0.425581  0  0.87827  0  0  0.323089  0.408682  0  0.898634  0
H  H7  1  0.55742401  0.44823507  0.85454572  1  0  0.446767  0  0.814235  0  0  0.415623  0  0.890448  0  0  0.425574  0  0.878297  0  0  0.323081  0.408675  0  0.898663  0
H  H8  1  0.55742180  0.44823296  0.64545439  1  0  0.446624  0  0.814418  0  0  0.415583  0  0.890493  0  0  0.425532  0  0.878345  0  0  0.323067  0.408634  0  0.898709  0
H  H9  1  0.44257935  0.55176826  0.14545490  1  0  0.446685  0  0.814346  0  0  0.415644  0  0.890419  0  0  0.425594  0  0.878269  0  0  0.32309  0.408694  0  0.898636  0
H  H10  1  0.37273082  0.32601396  0.33440785  1  0  0.448088  0  0.842134  0  0  0.411585  0  0.914709  0  0  0.422976  0  0.897669  0  0  0.31093  0.40362  0  0.926492  0
H  H11  1  0.62727115  0.67398654  0.83440686  1  0  0.448067  0  0.842158  0  0  0.411568  0  0.914728  0  0  0.422959  0  0.897687  0  0  0.310946  0.403606  0  0.926507  0
H  H12  1  0.62726952  0.67398635  0.66559278  1  0  0.44808  0  0.842146  0  0  0.411569  0  0.914735  0  0  0.422961  0  0.897691  0  0  0.310945  0.403605  0  0.926516  0
H  H13  1  0.37272379  0.32601377  0.16559332  1  0  0.448091  0  0.842133  0  0  0.411565  0  0.914753  0  0  0.422957  0  0.897711  0  0  0.310942  0.403598  0  0.926539  0
H  H14  1  0.40355566  0.91821772  0.28467861  1  0  0.426403  0  0.879505  0  0  0.392584  0  0.951261  0  0  0.403937  0  0.934709  0  0  0.306125  0.384482  0  0.963082  0
H  H15  1  0.59644781  0.08178028  0.78467793  1  0  0.426462  0  0.879416  0  0  0.39263  0  0.951199  0  0  0.403985  0  0.934643  0  0  0.306134  0.384528  0  0.963021  0
H  H16  1  0.59645009  0.08178260  0.71532158  1  0  0.426465  0  0.879427  0  0  0.392647  0  0.951184  0  0  0.404  0  0.93463  0  0  0.306157  0.384545  0  0.963005  0
H  H17  1  0.40354952  0.91821702  0.21532225  1  0  0.426472  0  0.879409  0  0  0.392634  0  0.951191  0  0  0.403988  0  0.934636  0  0  0.306161  0.384533  0  0.96301  0
C  C18  1  0.05835842  0.92928041  0.37231378  1  0  0.711375  0  3.865716  0  0  0.654953  0  4.171899  0  0  0.689848  0  4.160416  0  0  0.225711  0.631462  0  4.178703  0
C  C19  1  0.94162722  0.07071184  0.87231282  1  0  0.711252  0  3.865726  0  0  0.654946  0  4.171691  0  0  0.689844  0  4.160208  0  0  0.225727  0.631457  0  4.178496  0
C  C20  1  0.94164794  0.07072593  0.62768684  1  0  0.711394  0  3.865447  0  0  0.654917  0  4.171692  0  0  0.68981  0  4.160218  0  0  0.225781  0.631426  0  4.178494  0
C  C21  1  0.05835839  0.92927644  0.12768781  1  0  0.711554  0  3.865324  0  0  0.655007  0  4.171663  0  0  0.689899  0  4.160189  0  0  0.225782  0.631518  0  4.178465  0
C  C22  1  0.03100957  0.96715450  0.43801040  1  0  -0.220455  0  3.759912  0  0  -0.229508  0  4.039152  0  0  -0.234691  0  4.053412  0  0  -0.03166  -0.22567  0  4.028641  0
C  C23  1  0.96898378  0.03284809  0.93801248  1  0  -0.220496  0  3.760012  0  0  -0.229561  0  4.0392  0  0  -0.234741  0  4.053466  0  0  -0.031714  -0.225722  0  4.028685  0
C  C24  1  0.96899093  0.03284732  0.56198890  1  0  -0.220671  0  3.760078  0  0  -0.229535  0  4.038891  0  0  -0.234718  0  4.053154  0  0  -0.031671  -0.225694  0  4.028376  0
C  C25  1  0.03100019  0.96715073  0.06198593  1  0  -0.22063  0  3.760248  0  0  -0.229546  0  4.039123  0  0  -0.234727  0  4.05339  0  0  -0.031671  -0.225708  0  4.028605  0
C  C26  1  0.91043930  0.14725854  0.46047830  1  0  0.203468  0  3.777393  0  0  0.160152  0  4.092002  0  0  0.171453  0  4.098506  0  0  0.087918  0.153716  0  4.086512  0
C  C27  1  0.08955962  0.85274150  0.96047469  1  0  0.203494  0  3.777239  0  0  0.160226  0  4.091748  0  0  0.171514  0  4.098266  0  0  0.087943  0.153786  0  4.08626  0
C  C28  1  0.08955563  0.85274178  0.53952277  1  0  0.203596  0  3.776847  0  0  0.160172  0  4.091737  0  0  0.171485  0  4.098229  0  0  0.087921  0.153734  0  4.086248  0
C  C29  1  0.91043562  0.14726183  0.03952328  1  0  0.203542  0  3.776979  0  0  0.160208  0  4.091811  0  0  0.171505  0  4.098317  0  0  0.087978  0.15377  0  4.086321  0
C  C30  1  0.87828881  0.17910818  0.52104409  1  0  0.202953  0  3.787138  0  0  0.163409  0  4.098054  0  0  0.173883  0  4.104717  0  0  0.089634  0.157086  0  4.092419  0
C  C31  1  0.12171317  0.82089806  0.02104667  1  0  0.202863  0  3.787258  0  0  0.163384  0  4.098077  0  0  0.173872  0  4.104738  0  0  0.089613  0.157062  0  4.092441  0
C  C32  1  0.12172311  0.82089965  0.47895300  1  0  0.203638  0  3.786022  0  0  0.163282  0  4.09828  0  0  0.173767  0  4.104932  0  0  0.089559  0.15696  0  4.092647  0
C  C33  1  0.87827606  0.17909925  0.97895263  1  0  0.203761  0  3.785841  0  0  0.163326  0  4.098159  0  0  0.173814  0  4.104816  0  0  0.089567  0.157003  0  4.092523  0
O  O34  1  0.90923436  0.76929035  0.35240560  1  0  -0.638671  0  1.960883  0  0  -0.589552  0  2.203306  0  0  -0.613857  0  2.192603  0  0  -0.313756  -0.572122  0  2.209623  0
O  O35  1  0.09077401  0.23071653  0.85240492  1  0  -0.638764  0  1.960501  0  0  -0.589696  0  2.202859  0  0  -0.614004  0  2.192154  0  0  -0.313867  -0.57227  0  2.209177  0
O  O36  1  0.09076869  0.23070996  0.64759193  1  0  -0.638592  0  1.961162  0  0  -0.589409  0  2.203432  0  0  -0.613713  0  2.192737  0  0  -0.313723  -0.571989  0  2.209754  0
O  O37  1  0.90922286  0.76927626  0.14759305  1  0  -0.638842  0  1.960869  0  0  -0.58963  0  2.203178  0  0  -0.613934  0  2.192477  0  0  -0.313821  -0.572208  0  2.20951  0
O  O38  1  0.23911114  0.06243931  0.34172534  1  0  -0.663096  0  2.02724  0  0  -0.596728  0  2.246421  0  0  -0.622375  0  2.233706  0  0  -0.304708  -0.578333  0  2.253939  0
O  O39  1  0.76089385  0.93756285  0.84172487  1  0  -0.662952  0  2.027541  0  0  -0.596615  0  2.24667  0  0  -0.622266  0  2.233965  0  0  -0.304629  -0.57822  0  2.254172  0
O  O40  1  0.76088543  0.93755047  0.65827617  1  0  -0.663135  0  2.026819  0  0  -0.596822  0  2.246106  0  0  -0.622466  0  2.233377  0  0  -0.304802  -0.578419  0  2.253604  0
O  O41  1  0.23910410  0.06244048  0.15827487  1  0  -0.663074  0  2.027102  0  0  -0.596686  0  2.24637  0  0  -0.622332  0  2.233662  0  0  -0.304683  -0.57829  0  2.25388  0
O  O42  1  0.86395270  0.22105702  0.25000040  1  0  -0.855114  0  1.851115  0  0  -0.795004  0  2.031229  0  0  -0.815833  0  2.00207  0  0  -0.628082  -0.780083  0  2.051559  0
O  O43  1  0.13605020  0.77894178  0.74999934  1  0  -0.855153  0  1.851075  0  0  -0.795029  0  2.03119  0  0  -0.815859  0  2.002028  0  0  -0.628075  -0.780115  0  2.051516  0
O  O44  1  0.40293531  0.46624076  0.31974904  1  0  -0.891988  0  1.856269  0  0  -0.834334  0  2.066374  0  0  -0.85588  0  2.037352  0  0  -0.604989  -0.818269  0  2.085762  0
O  O45  1  0.59707732  0.53376095  0.81974913  1  0  -0.891962  0  1.856307  0  0  -0.834303  0  2.066399  0  0  -0.855849  0  2.037378  0  0  -0.605  -0.818245  0  2.085779  0
O  O46  1  0.59707299  0.53375804  0.68025159  1  0  -0.891851  0  1.856308  0  0  -0.834261  0  2.066369  0  0  -0.855806  0  2.037349  0  0  -0.604989  -0.818201  0  2.085751  0
O  O47  1  0.40292558  0.46623786  0.18025238  1  0  -0.891916  0  1.856261  0  0  -0.834324  0  2.066317  0  0  -0.855871  0  2.037299  0  0  -0.605002  -0.818256  0  2.085702  0
O  O48  1  0.43197657  0.82769198  0.25000036  1  0  -0.939629  0  1.945098  0  0  -0.881187  0  2.161591  0  0  -0.904351  0  2.128345  0  0  -0.648346  -0.864226  0  2.184627  0
O  O49  1  0.56802378  0.17230834  0.74999938  1  0  -0.93968  0  1.945043  0  0  -0.881246  0  2.161511  0  0  -0.904405  0  2.128245  0  0  -0.648354  -0.864294  0  2.184543  0
F  F50  1  0.81280766  0.29369291  0.42315036  1  0  -0.162446  0  1.263908  0  0  -0.104733  0  1.432545  0  0  -0.11718  0  1.426673  0  0  -0.077463  -0.099426  0  1.439617  0
F  F51  1  0.18718854  0.70631390  0.92315008  1  0  -0.162443  0  1.264041  0  0  -0.104763  0  1.432678  0  0  -0.117203  0  1.426814  0  0  -0.077474  -0.099456  0  1.439751  0
F  F52  1  0.18720380  0.70631041  0.57685160  1  0  -0.162591  0  1.263914  0  0  -0.104746  0  1.432444  0  0  -0.117215  0  1.426589  0  0  -0.077498  -0.09944  0  1.439515  0
F  F53  1  0.81279558  0.29368642  0.07684921  1  0  -0.162567  0  1.26411  0  0  -0.104768  0  1.432634  0  0  -0.117208  0  1.426762  0  0  -0.077547  -0.099462  0  1.439707  0
F  F54  1  0.74457519  0.35336184  0.53975818  1  0  -0.161197  0  1.258318  0  0  -0.110966  0  1.42987  0  0  -0.120116  0  1.420084  0  0  -0.08256  -0.105743  0  1.43723  0
F  F55  1  0.25542958  0.64664177  0.03975700  1  0  -0.161109  0  1.258357  0  0  -0.11092  0  1.429888  0  0  -0.12009  0  1.420119  0  0  -0.082512  -0.105698  0  1.437247  0
F  F56  1  0.25542275  0.64664149  0.46024288  1  0  -0.161507  0  1.258492  0  0  -0.110867  0  1.43003  0  0  -0.120038  0  1.420262  0  0  -0.082482  -0.105644  0  1.43739  0
F  F57  1  0.74457076  0.35335854  0.96024363  1  0  -0.161576  0  1.258349  0  0  -0.110911  0  1.429904  0  0  -0.120088  0  1.420143  0  0  -0.082503  -0.105689  0  1.437265  0
