# generated using pymatgen
data_SrH30C18(N6O7)2
_symmetry_space_group_name_H-M   'P 1'
_cell_length_a   7.52362652
_cell_length_b   7.54155994
_cell_length_c   26.54160000
_cell_angle_alpha   83.75577073
_cell_angle_beta   83.74082748
_cell_angle_gamma   61.55024816
_symmetry_Int_Tables_number   1
_chemical_formula_structural   SrH30C18(N6O7)2
_chemical_formula_sum   'Sr2 H60 C36 N24 O28'
_cell_volume   1313.42110618
_cell_formula_units_Z   2
loop_
 _symmetry_equiv_pos_site_id
 _symmetry_equiv_pos_as_xyz
  1  'x, y, z'
loop_
 _atom_site_type_symbol
 _atom_site_label
 _atom_site_symmetry_multiplicity
 _atom_site_fract_x
 _atom_site_fract_y
 _atom_site_fract_z
 _atom_site_occupancy
 _atom_site_hle17_bader_spin_density
 _atom_site_hle17_ddec_charge
 _atom_site_hle17_ddec_spin_density
 _atom_site_hle17_ddec_sum_bond_order
 _atom_site_hle17_magmom
 _atom_site_hse06_10hf_bader_spin_density
 _atom_site_hse06_10hf_ddec_charge
 _atom_site_hse06_10hf_ddec_spin_density
 _atom_site_hse06_10hf_ddec_sum_bond_order
 _atom_site_hse06_10hf_magmom
 _atom_site_hse06_bader_spin_density
 _atom_site_hse06_ddec_charge
 _atom_site_hse06_ddec_spin_density
 _atom_site_hse06_ddec_sum_bond_order
 _atom_site_hse06_magmom
 _atom_site_pbe_bader_charge
 _atom_site_pbe_bader_spin_density
 _atom_site_pbe_cm5_charge
 _atom_site_pbe_ddec_charge
 _atom_site_pbe_ddec_spin_density
 _atom_site_pbe_ddec_sum_bond_order
 _atom_site_pbe_magmom
Sr  Sr0  1  0.24685462  0.75312837  0.74988444  1  0  1.652808  0  1.074294  0  0  1.52003  0  1.446298  0  0  1.554932  0  1.400028  0  1.700193  0  0.925477  1.494274  0  1.479322  0
Sr  Sr1  1  0.75314448  0.24687560  0.25011539  1  0  1.652825  0  1.074282  0  0  1.520021  0  1.446314  0  0  1.554927  0  1.400039  0  1.70021  0  0.925479  1.494265  0  1.479337  0
H  H2  1  0.87951083  0.89581120  0.86144523  1  0  0.310883  0  0.914051  0  0  0.287475  0  0.98385  0  0  0.297061  0  0.976325  0  0.534074  0  0.31411  0.280716  0  0.989131  0
H  H3  1  0.89529777  0.88028550  0.36147333  1  0  0.31099  0  0.914548  0  0  0.287585  0  0.984148  0  0  0.297224  0  0.976579  0  0.537434  0  0.314151  0.280828  0  0.989432  0
H  H4  1  0.12048916  0.10418522  0.13855518  1  0  0.310854  0  0.91408  0  0  0.287445  0  0.983887  0  0  0.297031  0  0.976362  0  0.534056  0  0.314096  0.280685  0  0.98917  0
H  H5  1  0.10470008  0.11971544  0.63852663  1  0  0.310993  0  0.914533  0  0  0.287591  0  0.984137  0  0  0.297225  0  0.976569  0  0.537443  0  0.314159  0.280835  0  0.989422  0
H  H6  1  0.59579825  0.97679024  0.82513418  1  0  0.114937  0  0.921628  0  0  0.127933  0  0.981073  0  0  0.130746  0  0.978714  0  0.130046  0  0.13089  0.125836  0  0.982943  0
H  H7  1  0.97711814  0.59727598  0.32513037  1  0  0.114127  0  0.922503  0  0  0.127524  0  0.981717  0  0  0.130302  0  0.979437  0  0.12589  0  0.13064  0.125463  0  0.983588  0
H  H8  1  0.40419889  0.02321222  0.17486576  1  0  0.114919  0  0.921626  0  0  0.127925  0  0.981065  0  0  0.130738  0  0.978705  0  0.130039  0  0.130876  0.125827  0  0.982936  0
H  H9  1  0.02288043  0.40272346  0.67486962  1  0  0.114123  0  0.922486  0  0  0.127542  0  0.981688  0  0  0.130317  0  0.979419  0  0.12588  0  0.130657  0.125483  0  0.98356  0
H  H10  1  0.46476573  0.97986122  0.88512766  1  0  0.101479  0  0.940948  0  0  0.109656  0  1.009145  0  0  0.110974  0  1.009075  0  0.105454  0  0.116403  0.108729  0  1.009271  0
H  H11  1  0.98125902  0.46613200  0.38510780  1  0  0.100797  0  0.941854  0  0  0.109547  0  1.009435  0  0  0.110905  0  1.009305  0  0.116198  0  0.11636  0.108593  0  1.009658  0
H  H12  1  0.53523283  0.02013821  0.11487270  1  0  0.101449  0  0.940974  0  0  0.109632  0  1.009165  0  0  0.110951  0  1.009093  0  0.105459  0  0.116391  0.108705  0  1.009291  0
H  H13  1  0.01873954  0.53386743  0.61489257  1  0  0.10077  0  0.941872  0  0  0.109524  0  1.009474  0  0  0.110901  0  1.009327  0  0.116278  0  0.116336  0.10857  0  1.009699  0
H  H14  1  0.85673672  0.50348556  0.88093744  1  0  0.270563  0  0.959132  0  0  0.239938  0  1.047907  0  0  0.247401  0  1.042144  0  0.496508  0  0.301413  0.234604  0  1.05209  0
H  H15  1  0.50320549  0.85664407  0.38088528  1  0  0.271017  0  0.958717  0  0  0.240611  0  1.047403  0  0  0.248103  0  1.041583  0  0.49773  0  0.30163  0.235279  0  1.051574  0
H  H16  1  0.14326443  0.49651690  0.11906162  1  0  0.270555  0  0.959131  0  0  0.239932  0  1.047907  0  0  0.247395  0  1.042144  0  0.496412  0  0.301417  0.234597  0  1.052093  0
H  H17  1  0.49679441  0.14335536  0.61911466  1  0  0.271074  0  0.958627  0  0  0.24062  0  1.047339  0  0  0.248112  0  1.041509  0  0.497728  0  0.301649  0.235286  0  1.051513  0
H  H18  1  0.59799570  0.37035119  0.83657139  1  0  0.112486  0  0.964571  0  0  0.123859  0  1.029605  0  0  0.127747  0  1.02582  0  0.146134  0  0.122352  0.121005  0  1.03247  0
H  H19  1  0.37021861  0.59846387  0.33629313  1  0  0.112769  0  0.964718  0  0  0.123821  0  1.030073  0  0  0.127773  0  1.026207  0  0.148639  0  0.122531  0.120948  0  1.032979  0
H  H20  1  0.40200625  0.62964674  0.16342816  1  0  0.112554  0  0.964512  0  0  0.123906  0  1.029584  0  0  0.127784  0  1.025808  0  0.146131  0  0.122363  0.121051  0  1.032451  0
H  H21  1  0.62977924  0.40153708  0.66370683  1  0  0.112768  0  0.964724  0  0  0.12382  0  1.030076  0  0  0.127771  0  1.026213  0  0.148897  0  0.122525  0.120948  0  1.032986  0
H  H22  1  0.77299332  0.23522642  0.88490997  1  0  0.087565  0  0.958727  0  0  0.096784  0  1.031939  0  0  0.098462  0  1.030693  0  0.064028  0  0.107267  0.095659  0  1.032831  0
H  H23  1  0.23444342  0.77216786  0.38480822  1  0  0.087639  0  0.958884  0  0  0.097185  0  1.031771  0  0  0.098787  0  1.030641  0  0.058559  0  0.107363  0.096109  0  1.032575  0
H  H24  1  0.22701130  0.76477150  0.11508949  1  0  0.087537  0  0.958749  0  0  0.096749  0  1.031974  0  0  0.098427  0  1.030728  0  0.064008  0  0.107256  0.095624  0  1.032865  0
H  H25  1  0.76555577  0.22783309  0.61519170  1  0  0.087646  0  0.958901  0  0  0.097191  0  1.031793  0  0  0.098793  0  1.030663  0  0.058567  0  0.107362  0.096118  0  1.032595  0
H  H26  1  0.07131806  0.98038262  0.90714766  1  0  0.109285  0  0.953193  0  0  0.124074  0  1.025571  0  0  0.124461  0  1.025525  0  0.127028  0  0.107909  0.123576  0  1.02585  0
H  H27  1  0.98080570  0.07113285  0.40728386  1  0  0.109458  0  0.953321  0  0  0.124542  0  1.025437  0  0  0.1249  0  1.025442  0  0.084855  0  0.107838  0.124053  0  1.02569  0
H  H28  1  0.92867988  0.01961530  0.09285239  1  0  0.109275  0  0.953225  0  0  0.124062  0  1.025614  0  0  0.124449  0  1.025567  0  0.127078  0  0.107899  0.123563  0  1.025894  0
H  H29  1  0.01919420  0.92886658  0.59271571  1  0  0.109456  0  0.953327  0  0  0.124556  0  1.02541  0  0  0.124916  0  1.02542  0  0.084842  0  0.10784  0.124065  0  1.025668  0
H  H30  1  0.17275069  0.72692073  0.88874882  1  0  0.118676  0  0.95326  0  0  0.133952  0  1.020245  0  0  0.13557  0  1.019348  0  0.086835  0  0.11657  0.132711  0  1.020938  0
H  H31  1  0.72685761  0.17213525  0.38881387  1  0  0.118952  0  0.953012  0  0  0.134286  0  1.02009  0  0  0.135898  0  1.01917  0  0.092686  0  0.11685  0.133011  0  1.020836  0
H  H32  1  0.82725064  0.27307568  0.11125155  1  0  0.118694  0  0.953248  0  0  0.133968  0  1.020236  0  0  0.135586  0  1.019338  0  0.086697  0  0.11657  0.132725  0  1.020933  0
H  H33  1  0.27314024  0.82786570  0.61118609  1  0  0.118972  0  0.953013  0  0  0.134299  0  1.020082  0  0  0.135912  0  1.019166  0  0.09271  0  0.116865  0.133024  0  1.02083  0
H  H34  1  0.25888073  0.77528871  0.94293376  1  0  0.116808  0  0.947703  0  0  0.134827  0  1.012273  0  0  0.137118  0  1.009995  0  0.123252  0  0.110611  0.133053  0  1.014054  0
H  H35  1  0.77489286  0.25831018  0.44302015  1  0  0.116921  0  0.94836  0  0  0.134978  0  1.012893  0  0  0.137304  0  1.010572  0  0.124856  0  0.110495  0.133175  0  1.014707  0
H  H36  1  0.74111712  0.22471223  0.05706695  1  0  0.11679  0  0.947703  0  0  0.134805  0  1.012285  0  0  0.137097  0  1.010006  0  0.123253  0  0.110617  0.13303  0  1.014069  0
H  H37  1  0.22510570  0.74168926  0.55697984  1  0  0.116939  0  0.948297  0  0  0.134936  0  1.012893  0  0  0.137264  0  1.010567  0  0.124864  0  0.110493  0.133135  0  1.014703  0
H  H38  1  0.41085598  0.71271743  0.02390795  1  0  0.357487  0  0.890707  0  0  0.337945  0  0.952947  0  0  0.347409  0  0.943922  0  0.526171  0  0.311056  0.331214  0  0.959483  0
H  H39  1  0.71266852  0.41207243  0.52383721  1  0  0.356809  0  0.888664  0  0  0.337213  0  0.951176  0  0  0.346726  0  0.942107  0  0.528876  0  0.310773  0.330445  0  0.957734  0
H  H40  1  0.58914267  0.28727898  0.97609212  1  0  0.357457  0  0.890754  0  0  0.337912  0  0.952996  0  0  0.347376  0  0.943973  0  0.526179  0  0.311047  0.331181  0  0.959532  0
H  H41  1  0.28733477  0.58792550  0.47616268  1  0  0.356782  0  0.888715  0  0  0.337203  0  0.951213  0  0  0.346715  0  0.942143  0  0.528883  0  0.310728  0.330433  0  0.957776  0
H  H42  1  0.55878317  0.66577613  0.07761286  1  0  0.330433  0  0.93016  0  0  0.305863  0  0.999576  0  0  0.315672  0  0.991277  0  0.520841  0  0.30564  0.298918  0  1.005476  0
H  H43  1  0.66585652  0.55916224  0.57762993  1  0  0.330666  0  0.93001  0  0  0.306407  0  0.998983  0  0  0.316172  0  0.990758  0  0.520075  0  0.305889  0.29946  0  1.004877  0
H  H44  1  0.44121539  0.33422331  0.92238713  1  0  0.330479  0  0.930076  0  0  0.305888  0  0.99952  0  0  0.315697  0  0.99122  0  0.52085  0  0.305661  0.298945  0  1.005416  0
H  H45  1  0.33415015  0.44083418  0.42236990  1  0  0.330657  0  0.929978  0  0  0.306396  0  0.998952  0  0  0.316161  0  0.990729  0  0.519995  0  0.3059  0.29945  0  1.004845  0
H  H46  1  0.74922607  0.51487177  0.73518843  1  0  0.420505  0  0.879875  0  0  0.389955  0  0.943052  0  0  0.399809  0  0.928694  0  0.637358  0  0.298552  0.382953  0  0.953262  0
H  H47  1  0.51538946  0.74832391  0.23533482  1  0  0.420526  0  0.8795  0  0  0.38996  0  0.942721  0  0  0.399827  0  0.928339  0  0.641985  0  0.298669  0.382963  0  0.952928  0
H  H48  1  0.25077508  0.48513069  0.26481101  1  0  0.42052  0  0.879847  0  0  0.38997  0  0.943021  0  0  0.399825  0  0.928661  0  0.637341  0  0.29858  0.382968  0  0.953231  0
H  H49  1  0.48460831  0.25168006  0.76466618  1  0  0.420511  0  0.879497  0  0  0.389939  0  0.942733  0  0  0.399804  0  0.928353  0  0.641998  0  0.298645  0.382941  0  0.95294  0
H  H50  1  0.66148643  0.67552710  0.68725836  1  0  0.42161  0  0.87182  0  0  0.388732  0  0.939367  0  0  0.399368  0  0.923539  0  0.636391  0  0.301964  0.381183  0  0.950588  0
H  H51  1  0.67635403  0.66025833  0.18744370  1  0  0.421412  0  0.871539  0  0  0.388658  0  0.939153  0  0  0.399263  0  0.923359  0  0.634828  0  0.301811  0.381167  0  0.95031  0
H  H52  1  0.33851339  0.32447535  0.31274036  1  0  0.421604  0  0.871825  0  0  0.388723  0  0.939363  0  0  0.399364  0  0.923536  0  0.636423  0  0.301981  0.381184  0  0.950568  0
H  H53  1  0.32364168  0.33974715  0.81255694  1  0  0.421403  0  0.871536  0  0  0.388645  0  0.939165  0  0  0.399246  0  0.923377  0  0.634692  0  0.301814  0.381157  0  0.950317  0
H  H54  1  0.18991206  0.16737009  0.74142523  1  0  0.412038  0  0.897679  0  0  0.377753  0  0.968474  0  0  0.389198  0  0.951536  0  0.646399  0  0.290537  0.369637  0  0.980453  0
H  H55  1  0.16830741  0.18988710  0.24155339  1  0  0.412678  0  0.896693  0  0  0.378438  0  0.967071  0  0  0.389859  0  0.950208  0  0.647003  0  0.291037  0.370346  0  0.979012  0
H  H56  1  0.81009247  0.83263086  0.25857377  1  0  0.412178  0  0.897521  0  0  0.377851  0  0.968364  0  0  0.389305  0  0.951428  0  0.646379  0  0.290583  0.369734  0  0.980344  0
H  H57  1  0.83169303  0.81011687  0.75844715  1  0  0.41268  0  0.896676  0  0  0.378434  0  0.967063  0  0  0.389855  0  0.9502  0  0.647129  0  0.291038  0.370342  0  0.979003  0
H  H58  1  0.42884427  0.06254861  0.72309713  1  0  0.416158  0  0.893756  0  0  0.382168  0  0.963701  0  0  0.392824  0  0.948025  0  0.652757  0  0.28991  0.374629  0  0.974782  0
H  H59  1  0.06305273  0.42826914  0.22321160  1  0  0.416205  0  0.893491  0  0  0.382211  0  0.963448  0  0  0.392894  0  0.94771  0  0.654836  0  0.290002  0.374669  0  0.974545  0
H  H60  1  0.57115964  0.93745083  0.27690232  1  0  0.416141  0  0.893769  0  0  0.382152  0  0.963715  0  0  0.39281  0  0.948036  0  0.652789  0  0.289908  0.374614  0  0.974795  0
H  H61  1  0.93694771  0.57173483  0.77678781  1  0  0.416182  0  0.893536  0  0  0.382181  0  0.963507  0  0  0.392864  0  0.947769  0  0.654895  0  0.289971  0.374639  0  0.974604  0
C  C62  1  0.80097886  0.81289314  0.93477777  1  0  0.550999  0  3.808913  0  0  0.487257  0  4.101721  0  0  0.518309  0  4.106777  0  1.580376  0  0.359471  0.466469  0  4.09764  0
C  C63  1  0.81283172  0.80149937  0.43483893  1  0  0.553038  0  3.806789  0  0  0.488844  0  4.099694  0  0  0.519982  0  4.104688  0  1.584507  0  0.359745  0.468058  0  4.095643  0
C  C64  1  0.19902104  0.18710629  0.06522218  1  0  0.550994  0  3.808946  0  0  0.487226  0  4.10176  0  0  0.518275  0  4.106817  0  1.580325  0  0.359454  0.466437  0  4.097679  0
C  C65  1  0.18716747  0.19850157  0.56516061  1  0  0.553018  0  3.806817  0  0  0.488803  0  4.099763  0  0  0.51993  0  4.10476  0  1.584496  0  0.359711  0.468018  0  4.095713  0
C  C66  1  0.60166120  0.89032514  0.86142534  1  0  -0.088611  0  3.651515  0  0  -0.149022  0  3.907403  0  0  -0.146939  0  3.912769  0  0.298704  0  -0.049815  -0.150416  0  3.903766  0
C  C67  1  0.89084977  0.60258823  0.36146940  1  0  -0.086311  0  3.650082  0  0  -0.14777  0  3.906003  0  0  -0.145645  0  3.911304  0  0.268418  0  -0.048865  -0.149321  0  3.902734  0
C  C68  1  0.39833870  0.10967430  0.13857460  1  0  -0.088542  0  3.651413  0  0  -0.14895  0  3.907278  0  0  -0.146862  0  3.912649  0  0.298402  0  -0.049796  -0.150343  0  3.90364  0
C  C69  1  0.10914879  0.39741120  0.63853059  1  0  -0.086238  0  3.650028  0  0  -0.147768  0  3.906034  0  0  -0.145667  0  3.91133  0  0.268265  0  -0.048858  -0.149324  0  3.902775  0
C  C70  1  0.58798324  0.70442487  0.84911065  1  0  0.583947  0  3.792635  0  0  0.541243  0  4.07712  0  0  0.570573  0  4.075551  0  1.433776  0  0.254789  0.52141  0  4.077507  0
C  C71  1  0.70485878  0.58816126  0.34924244  1  0  0.58447  0  3.791066  0  0  0.54131  0  4.076319  0  0  0.570652  0  4.074714  0  1.437236  0  0.254285  0.521523  0  4.076725  0
C  C72  1  0.41201524  0.29557758  0.15088925  1  0  0.583899  0  3.792701  0  0  0.541185  0  4.07721  0  0  0.570493  0  4.075672  0  1.433792  0  0.254772  0.52135  0  4.077597  0
C  C73  1  0.29513916  0.41183666  0.65075837  1  0  0.584432  0  3.791025  0  0  0.541308  0  4.076236  0  0  0.57065  0  4.074638  0  1.437404  0  0.254309  0.521521  0  4.076648  0
C  C74  1  0.74449628  0.33614418  0.85037345  1  0  -0.128365  0  3.675831  0  0  -0.187666  0  3.932655  0  0  -0.187453  0  3.938636  0  0.268783  0  -0.069228  -0.187775  0  3.92871  0
C  C75  1  0.33575185  0.74438544  0.35029933  1  0  -0.128136  0  3.677224  0  0  -0.187401  0  3.933436  0  0  -0.187161  0  3.939344  0  0.267975  0  -0.069024  -0.187556  0  3.929548  0
C  C76  1  0.25550763  0.66385525  0.14962562  1  0  -0.1284  0  3.675756  0  0  -0.187688  0  3.93259  0  0  -0.18746  0  3.938561  0  0.26871  0  -0.069219  -0.187796  0  3.928645  0
C  C77  1  0.66424805  0.25561400  0.64970099  1  0  -0.128162  0  3.677273  0  0  -0.187435  0  3.933523  0  0  -0.187192  0  3.939432  0  0.267698  0  -0.069018  -0.187572  0  3.929588  0
C  C78  1  0.90736735  0.22381603  0.80885376  1  0  0.699588  0  3.815539  0  0  0.646291  0  4.123062  0  0  0.678805  0  4.115959  0  1.559981  0  0.22549  0.624229  0  4.127178  0
C  C79  1  0.22335398  0.90746491  0.30890760  1  0  0.69835  0  3.815979  0  0  0.645403  0  4.122905  0  0  0.677924  0  4.115801  0  1.563055  0  0.225377  0.623328  0  4.127034  0
C  C80  1  0.09263513  0.77618643  0.19114525  1  0  0.699584  0  3.815558  0  0  0.646237  0  4.123154  0  0  0.678752  0  4.11605  0  1.559988  0  0.225482  0.624175  0  4.12727  0
C  C81  1  0.77664521  0.09253603  0.69109232  1  0  0.69838  0  3.815901  0  0  0.645374  0  4.122901  0  0  0.677894  0  4.1158  0  1.562995  0  0.225368  0.623301  0  4.127032  0
C  C82  1  0.12745800  0.82177512  0.92095208  1  0  -0.165659  0  3.620111  0  0  -0.2734  0  3.878937  0  0  -0.268614  0  3.885974  0  0.169791  0  -0.14194  -0.27632  0  3.874189  0
C  C83  1  0.82174846  0.12712540  0.42103891  1  0  -0.165817  0  3.621801  0  0  -0.274181  0  3.880993  0  0  -0.269477  0  3.888169  0  0.205524  0  -0.141758  -0.276984  0  3.876124  0
C  C84  1  0.87254127  0.17822281  0.07904831  1  0  -0.165626  0  3.620101  0  0  -0.273366  0  3.878916  0  0  -0.268579  0  3.885953  0  0.16984  0  -0.141924  -0.276286  0  3.874168  0
C  C85  1  0.17824939  0.87287555  0.57896068  1  0  -0.165835  0  3.621754  0  0  -0.274137  0  3.880917  0  0  -0.269441  0  3.888092  0  0.205582  0  -0.141771  -0.276941  0  3.876049  0
C  C86  1  0.00084130  0.75323869  0.00652749  1  0  0.500508  0  3.835761  0  0  0.447521  0  4.128156  0  0  0.478141  0  4.130331  0  1.325816  0  0.239806  0.427004  0  4.12627  0
C  C87  1  0.75288301  0.00095213  0.50661531  1  0  0.499897  0  3.8351  0  0  0.446934  0  4.127661  0  0  0.477535  0  4.12988  0  1.32496  0  0.238825  0.426418  0  4.125758  0
C  C88  1  0.99915735  0.24675772  0.99347221  1  0  0.50048  0  3.835764  0  0  0.447426  0  4.128255  0  0  0.478046  0  4.13043  0  1.325815  0  0.239657  0.426908  0  4.126371  0
C  C89  1  0.24711618  0.99904882  0.49338499  1  0  0.499946  0  3.835048  0  0  0.446965  0  4.127628  0  0  0.477566  0  4.129848  0  1.32442  0  0.238839  0.42645  0  4.125723  0
C  C90  1  0.84565811  0.71823674  0.03730982  1  0  -0.175943  0  3.736948  0  0  -0.18174  0  4.022674  0  0  -0.20305  0  4.044738  0  0.460064  0  0.065253  -0.168255  0  4.008102  0
C  C91  1  0.71823772  0.84581402  0.53739012  1  0  -0.175926  0  3.73596  0  0  -0.181153  0  4.021171  0  0  -0.202467  0  4.043212  0  0.456472  0  0.065403  -0.167682  0  4.006674  0
C  C92  1  0.15433911  0.28176269  0.96269058  1  0  -0.176153  0  3.73698  0  0  -0.181924  0  4.022732  0  0  -0.203233  0  4.044797  0  0.460078  0  0.065211  -0.168438  0  4.008159  0
C  C93  1  0.28176423  0.15418390  0.46260980  1  0  -0.175854  0  3.73582  0  0  -0.18104  0  4.021012  0  0  -0.202353  0  4.043053  0  0.456947  0  0.065442  -0.167569  0  4.006512  0
C  C94  1  0.67509485  0.73611403  0.01227267  1  0  0.506326  0  3.848597  0  0  0.464725  0  4.130302  0  0  0.492661  0  4.136901  0  1.154451  0  0.251957  0.446254  0  4.125227  0
C  C95  1  0.73620155  0.67562987  0.51231710  1  0  0.507026  0  3.845455  0  0  0.464953  0  4.12797  0  0  0.492948  0  4.134486  0  1.155792  0  0.251674  0.446448  0  4.122952  0
C  C96  1  0.32490300  0.26388691  0.98772767  1  0  0.506397  0  3.848576  0  0  0.46478  0  4.130269  0  0  0.492713  0  4.13687  0  1.154462  0  0.251942  0.446309  0  4.125195  0
C  C97  1  0.26380040  0.32436805  0.48768245  1  0  0.50691  0  3.845432  0  0  0.464795  0  4.128002  0  0  0.492789  0  4.13452  0  1.15555  0  0.251607  0.446293  0  4.122976  0
N  N98  1  0.65620452  0.78505631  0.96240150  1  0  -0.548736  0  3.010562  0  0  -0.517984  0  3.305383  0  0  -0.542251  0  3.31154  0  -1.250353  0  -0.352109  -0.501617  0  3.30073  0
N  N99  1  0.78511421  0.65693194  0.46244617  1  0  -0.549987  0  3.01027  0  0  -0.519045  0  3.305567  0  0  -0.543335  0  3.31164  0  -1.252809  0  -0.352425  -0.50267  0  3.300944  0
N  N100  1  0.34379333  0.21494463  0.03759884  1  0  -0.548733  0  3.010658  0  0  -0.517942  0  3.305452  0  0  -0.542201  0  3.311605  0  -1.250347  0  -0.352078  -0.501575  0  3.3008  0
N  N101  1  0.21488703  0.34306750  0.53755373  1  0  -0.549991  0  3.010197  0  0  -0.51903  0  3.305509  0  0  -0.543321  0  3.31159  0  -1.252775  0  -0.352437  -0.502656  0  3.300884  0
N  N102  1  0.78067314  0.85896545  0.88483633  1  0  -0.383946  0  3.30931  0  0  -0.320119  0  3.556321  0  0  -0.341835  0  3.564583  0  -1.25059  0  -0.394406  -0.305195  0  3.550303  0
N  N103  1  0.85880024  0.78140499  0.38488362  1  0  -0.386052  0  3.309604  0  0  -0.3213  0  3.5561  0  0  -0.343176  0  3.564419  0  -1.231774  0  -0.395274  -0.306309  0  3.550089  0
N  N104  1  0.21932471  0.14103550  0.11516363  1  0  -0.383946  0  3.309258  0  0  -0.320112  0  3.55627  0  0  -0.34183  0  3.564535  0  -1.250264  0  -0.394401  -0.30519  0  3.550252  0
N  N105  1  0.14119966  0.21859445  0.61511594  1  0  -0.386025  0  3.309487  0  0  -0.32127  0  3.55603  0  0  -0.343116  0  3.564321  0  -1.231872  0  -0.395259  -0.306281  0  3.550024  0
N  N106  1  0.73637469  0.52176183  0.86224972  1  0  -0.388753  0  3.410301  0  0  -0.331461  0  3.661698  0  0  -0.352736  0  3.672442  0  -1.254593  0  -0.41987  -0.316906  0  3.654163  0
N  N107  1  0.52164956  0.73629086  0.36228291  1  0  -0.389682  0  3.411666  0  0  -0.332633  0  3.663121  0  0  -0.353903  0  3.673777  0  -1.255063  0  -0.420391  -0.318083  0  3.65559  0
N  N108  1  0.26362449  0.47823911  0.13774983  1  0  -0.388683  0  3.410335  0  0  -0.331397  0  3.661736  0  0  -0.352661  0  3.672477  0  -1.254473  0  -0.419866  -0.316843  0  3.654203  0
N  N109  1  0.47834900  0.26370858  0.63771746  1  0  -0.389732  0  3.411647  0  0  -0.332618  0  3.663132  0  0  -0.353889  0  3.673794  0  -1.255043  0  -0.420399  -0.318067  0  3.655609  0
N  N110  1  0.97272541  0.79462442  0.95437932  1  0  -0.251031  0  3.412885  0  0  -0.159499  0  3.648527  0  0  -0.184278  0  3.66799  0  -1.175094  0  -0.249296  -0.142886  0  3.634877  0
N  N111  1  0.79444572  0.97282909  0.45446038  1  0  -0.252236  0  3.412904  0  0  -0.160636  0  3.648899  0  0  -0.185464  0  3.668404  0  -1.17439  0  -0.249415  -0.143985  0  3.635196  0
N  N112  1  0.02727449  0.20537501  0.04562100  1  0  -0.251092  0  3.412817  0  0  -0.159536  0  3.648481  0  0  -0.184316  0  3.667942  0  -1.175031  0  -0.249305  -0.142921  0  3.634827  0
N  N113  1  0.20555213  0.02717185  0.54553995  1  0  -0.252292  0  3.412956  0  0  -0.160682  0  3.648955  0  0  -0.185508  0  3.668461  0  -1.174254  0  -0.249423  -0.144031  0  3.635253  0
N  N114  1  0.87992659  0.66867029  0.08692697  1  0  0.029659  0  3.08743  0  0  0.044509  0  3.370233  0  0  0.064578  0  3.369993  0  -0.34758  0  -0.160165  0.031855  0  3.370245  0
N  N115  1  0.66878121  0.87980793  0.58702404  1  0  0.028843  0  3.088463  0  0  0.043747  0  3.371112  0  0  0.063857  0  3.370817  0  -0.348258  0  -0.160434  0.030993  0  3.371147  0
N  N116  1  0.12007135  0.33132764  0.91307346  1  0  0.029758  0  3.08742  0  0  0.044583  0  3.370173  0  0  0.06465  0  3.369938  0  -0.347623  0  -0.160135  0.031938  0  3.370188  0
N  N117  1  0.33122207  0.12018999  0.41297585  1  0  0.02888  0  3.088331  0  0  0.043746  0  3.37103  0  0  0.063856  0  3.370734  0  -0.348213  0  -0.16044  0.030994  0  3.371063  0
N  N118  1  0.53519030  0.70056499  0.03955887  1  0  -0.602192  0  3.081419  0  0  -0.561213  0  3.317393  0  0  -0.583114  0  3.311207  0  -1.307091  0  -0.54362  -0.54643  0  3.321546  0
N  N119  1  0.70069208  0.53585329  0.53956648  1  0  -0.601249  0  3.079788  0  0  -0.56026  0  3.31596  0  0  -0.582224  0  3.309755  0  -1.309792  0  -0.542446  -0.545426  0  3.320163  0
N  N120  1  0.46480960  0.29943445  0.96044145  1  0  -0.602206  0  3.081294  0  0  -0.561226  0  3.317292  0  0  -0.583128  0  3.311109  0  -1.307075  0  -0.543626  -0.54644  0  3.32144  0
N  N121  1  0.29931121  0.46414463  0.46043341  1  0  -0.60115  0  3.079775  0  0  -0.56016  0  3.315909  0  0  -0.582123  0  3.309708  0  -1.309713  0  -0.542369  -0.545323  0  3.320108  0
O  O122  1  0.43615087  0.73365362  0.82738883  1  0  -0.631921  0  1.977459  0  0  -0.579959  0  2.217776  0  0  -0.603655  0  2.210124  0  -1.194039  0  -0.343977  -0.563109  0  2.22243  0
O  O123  1  0.73451718  0.43624433  0.32764559  1  0  -0.632401  0  1.973885  0  0  -0.580321  0  2.21419  0  0  -0.603931  0  2.206373  0  -1.194509  0  -0.343419  -0.563494  0  2.218863  0
O  O124  1  0.56384902  0.26634582  0.17261112  1  0  -0.631925  0  1.977468  0  0  -0.579938  0  2.217764  0  0  -0.603627  0  2.21012  0  -1.19404  0  -0.343967  -0.563087  0  2.222419  0
O  O125  1  0.26548138  0.56375511  0.67235515  1  0  -0.632383  0  1.973762  0  0  -0.580327  0  2.214058  0  0  -0.603936  0  2.206241  0  -1.194501  0  -0.343451  -0.563499  0  2.218729  0
O  O126  1  0.95702221  0.32730150  0.77409563  1  0  -0.670769  0  2.003794  0  0  -0.593325  0  2.214668  0  0  -0.620513  0  2.204305  0  -1.214005  0  -0.305413  -0.574366  0  2.22141  0
O  O127  1  0.32729790  0.95668527  0.27414760  1  0  -0.669918  0  2.004797  0  0  -0.59266  0  2.215393  0  0  -0.619816  0  2.205072  0  -1.213092  0  -0.305159  -0.573719  0  2.22212  0
O  O128  1  0.04297965  0.67269944  0.22590346  1  0  -0.670804  0  2.003872  0  0  -0.593314  0  2.214731  0  0  -0.620509  0  2.204387  0  -1.213896  0  -0.305384  -0.574352  0  2.221466  0
O  O129  1  0.67270396  0.04331567  0.72585262  1  0  -0.669932  0  2.004798  0  0  -0.592625  0  2.215395  0  0  -0.619781  0  2.205076  0  -1.21307  0  -0.305154  -0.573687  0  2.222123  0
O  O130  1  0.97837418  0.03419340  0.81117341  1  0  -0.663612  0  1.981191  0  0  -0.604507  0  2.224107  0  0  -0.630416  0  2.215955  0  -1.163536  0  -0.335139  -0.586339  0  2.229209  0
O  O131  1  0.03317121  0.97914033  0.31131357  1  0  -0.663016  0  1.983194  0  0  -0.604113  0  2.226394  0  0  -0.630074  0  2.218234  0  -1.165745  0  -0.335748  -0.585933  0  2.231514  0
O  O132  1  0.02163036  0.96580755  0.18882559  1  0  -0.663608  0  1.981187  0  0  -0.604469  0  2.224085  0  0  -0.630377  0  2.215931  0  -1.163571  0  -0.335156  -0.586302  0  2.229186  0
O  O133  1  0.96682931  0.02086062  0.68868556  1  0  -0.66304  0  1.983181  0  0  -0.604095  0  2.226377  0  0  -0.630053  0  2.218218  0  -1.165678  0  -0.335748  -0.585919  0  2.231499  0
O  O134  1  0.15020020  0.74706952  0.02398106  1  0  -0.529874  0  2.005813  0  0  -0.488144  0  2.238609  0  0  -0.508211  0  2.232399  0  -1.158574  0  -0.284348  -0.474411  0  2.242617  0
O  O135  1  0.74629650  0.15020764  0.52405784  1  0  -0.529263  0  2.002812  0  0  -0.487786  0  2.235798  0  0  -0.507779  0  2.229512  0  -1.15883  0  -0.283884  -0.474123  0  2.239912  0
O  O136  1  0.84980193  0.25292236  0.97601867  1  0  -0.529751  0  2.005861  0  0  -0.487993  0  2.238663  0  0  -0.508064  0  2.232467  0  -1.158632  0  -0.284208  -0.474259  0  2.24267  0
O  O137  1  0.25370340  0.84979179  0.47594210  1  0  -0.52931  0  2.002819  0  0  -0.487829  0  2.235815  0  0  -0.50782  0  2.229528  0  -1.15884  0  -0.283885  -0.474162  0  2.239928  0
O  O138  1  0.74686513  0.64012465  0.11665207  1  0  -0.405773  0  1.903871  0  0  -0.349316  0  2.131016  0  0  -0.367758  0  2.125481  0  -0.607163  0  -0.163148  -0.337204  0  2.134898  0
O  O139  1  0.64049176  0.74680807  0.61671219  1  0  -0.405149  0  1.905076  0  0  -0.349073  0  2.132691  0  0  -0.367543  0  2.127137  0  -0.606087  0  -0.162851  -0.336811  0  2.136574  0
O  O140  1  0.25313343  0.35987478  0.88334830  1  0  -0.40579  0  1.903989  0  0  -0.349273  0  2.131096  0  0  -0.367705  0  2.125543  0  -0.607115  0  -0.163128  -0.337184  0  2.134998  0
O  O141  1  0.35951224  0.25318835  0.38328772  1  0  -0.405172  0  1.905015  0  0  -0.34909  0  2.132633  0  0  -0.367554  0  2.127082  0  -0.606084  0  -0.162857  -0.336835  0  2.136516  0
O  O142  1  0.62654435  0.60787480  0.71747980  1  0  -0.867251  0  1.841405  0  0  -0.810781  0  2.020568  0  0  -0.830204  0  1.989931  0  -1.285056  0  -0.620863  -0.796887  0  2.042114  0
O  O143  1  0.60835285  0.62570826  0.21767397  1  0  -0.866594  0  1.84045  0  0  -0.810308  0  2.019751  0  0  -0.82968  0  1.989153  0  -1.288277  0  -0.620542  -0.796479  0  2.041151  0
O  O144  1  0.37345403  0.39213068  0.28252001  1  0  -0.867249  0  1.841394  0  0  -0.810759  0  2.020589  0  0  -0.830194  0  1.989926  0  -1.285071  0  -0.620904  -0.796869  0  2.042124  0
O  O145  1  0.39164286  0.37429722  0.78232705  1  0  -0.866538  0  1.840402  0  0  -0.810276  0  2.019743  0  0  -0.829649  0  1.989153  0  -1.288132  0  -0.620511  -0.796446  0  2.041139  0
O  O146  1  0.30088912  0.05637944  0.72240193  1  0  -0.896561  0  1.860734  0  0  -0.845043  0  2.058101  0  0  -0.864078  0  2.025267  0  -1.327629  0  -0.652088  -0.831365  0  2.08112  0
O  O147  1  0.05721627  0.30047574  0.22247964  1  0  -0.896626  0  1.86121  0  0  -0.844861  0  2.059171  0  0  -0.863908  0  2.026256  0  -1.329733  0  -0.65172  -0.831175  0  2.082115  0
O  O148  1  0.69911541  0.94362151  0.27759708  1  0  -0.896673  0  1.860567  0  0  -0.845122  0  2.058014  0  0  -0.864174  0  2.02513  0  -1.327615  0  -0.652135  -0.831445  0  2.081035  0
O  O149  1  0.94278283  0.69952823  0.77752094  1  0  -0.896602  0  1.861191  0  0  -0.844823  0  2.059145  0  0  -0.863872  0  2.026232  0  -1.329884  0  -0.651686  -0.831144  0  2.082102  0
