# generated using pymatgen
data_LaH10C6N9O7
_symmetry_space_group_name_H-M   'P 1'
_cell_length_a   8.86779013
_cell_length_b   8.76194309
_cell_length_c   11.68947426
_cell_angle_alpha   65.93638830
_cell_angle_beta   84.96122132
_cell_angle_gamma   72.41463395
_symmetry_Int_Tables_number   1
_chemical_formula_structural   LaH10C6N9O7
_chemical_formula_sum   'La2 H20 C12 N18 O14'
_cell_volume   789.91840205
_cell_formula_units_Z   2
loop_
 _symmetry_equiv_pos_site_id
 _symmetry_equiv_pos_as_xyz
  1  'x, y, z'
loop_
 _atom_site_type_symbol
 _atom_site_label
 _atom_site_symmetry_multiplicity
 _atom_site_fract_x
 _atom_site_fract_y
 _atom_site_fract_z
 _atom_site_occupancy
 _atom_site_hle17_bader_spin_density
 _atom_site_hle17_ddec_charge
 _atom_site_hle17_ddec_spin_density
 _atom_site_hle17_ddec_sum_bond_order
 _atom_site_hle17_magmom
 _atom_site_hse06_10hf_bader_spin_density
 _atom_site_hse06_10hf_ddec_charge
 _atom_site_hse06_10hf_ddec_spin_density
 _atom_site_hse06_10hf_ddec_sum_bond_order
 _atom_site_hse06_10hf_magmom
 _atom_site_hse06_bader_spin_density
 _atom_site_hse06_ddec_charge
 _atom_site_hse06_ddec_spin_density
 _atom_site_hse06_ddec_sum_bond_order
 _atom_site_hse06_magmom
 _atom_site_pbe_bader_spin_density
 _atom_site_pbe_cm5_charge
 _atom_site_pbe_ddec_charge
 _atom_site_pbe_ddec_spin_density
 _atom_site_pbe_ddec_sum_bond_order
 _atom_site_pbe_magmom
La  La0  1  0.62665242  0.27550147  0.66153571  1  0  2.011389  0  1.77561  0  0  1.878977  0  2.277796  0  0  1.974738  0  2.191149  0  0  1.391579  1.807651  0  2.337901  0
La  La1  1  0.37334647  0.72449958  0.33846398  1  0  2.011466  0  1.775516  0  0  1.879043  0  2.27771  0  0  1.974799  0  2.191074  0  0  1.391597  1.807718  0  2.337807  0
H  H2  1  0.81119798  0.58902781  0.60681398  1  0  0.401325  0  0.910924  0  0  0.360585  0  0.991884  0  0  0.372039  0  0.975128  0  0  0.29691  0.352395  0  1.003846  0
H  H3  1  0.18880763  0.41096961  0.39318373  1  0  0.4013  0  0.910962  0  0  0.360551  0  0.991937  0  0  0.372007  0  0.975179  0  0  0.29688  0.352363  0  1.003895  0
H  H4  1  0.73802594  0.62527851  0.47705805  1  0  0.44268  0  0.819362  0  0  0.421361  0  0.878561  0  0  0.431126  0  0.864374  0  0  0.321467  0.414314  0  0.88676  0
H  H5  1  0.26198564  0.37471789  0.52293784  1  0  0.442668  0  0.819398  0  0  0.421339  0  0.878607  0  0  0.431103  0  0.864422  0  0  0.321435  0.414287  0  0.886831  0
H  H6  1  0.54924466  0.53971542  0.78881556  1  0  0.424563  0  0.823734  0  0  0.409455  0  0.875356  0  0  0.418384  0  0.865577  0  0  0.325338  0.402942  0  0.882585  0
H  H7  1  0.45075365  0.46028015  0.21119264  1  0  0.424629  0  0.823655  0  0  0.409467  0  0.875352  0  0  0.418411  0  0.865546  0  0  0.325359  0.402953  0  0.88258  0
H  H8  1  0.70595606  0.39098939  0.85542740  1  0  0.390997  0  0.927387  0  0  0.349161  0  1.00938  0  0  0.361062  0  0.992183  0  0  0.297024  0.340659  0  1.021659  0
H  H9  1  0.29404990  0.60901070  0.14456950  1  0  0.39098  0  0.927415  0  0  0.34914  0  1.009414  0  0  0.361042  0  0.992217  0  0  0.297024  0.340638  0  1.021694  0
H  H10  1  0.75501587  0.38891878  0.20609406  1  0  0.128792  0  0.899705  0  0  0.141569  0  0.956741  0  0  0.144729  0  0.953647  0  0  0.131134  0.139196  0  0.959227  0
H  H11  1  0.24498189  0.61108613  0.79390712  1  0  0.128747  0  0.899731  0  0  0.141536  0  0.956759  0  0  0.144698  0  0.953661  0  0  0.131126  0.139167  0  0.959246  0
H  H12  1  0.83113403  0.53599439  0.23569006  1  0  0.13668  0  0.941395  0  0  0.139617  0  1.015445  0  0  0.142942  0  1.012578  0  0  0.128036  0.13715  0  1.01765  0
H  H13  1  0.16886867  0.46400539  0.76431401  1  0  0.136672  0  0.941387  0  0  0.139606  0  1.015445  0  0  0.142931  0  1.012579  0  0  0.128047  0.137144  0  1.01765  0
H  H14  1  0.67813397  0.00483932  0.99679710  1  0  0.141056  0  0.942775  0  0  0.148785  0  1.009527  0  0  0.152093  0  1.007343  0  0  0.132739  0.146389  0  1.011217  0
H  H15  1  0.32186370  0.99516965  0.00319861  1  0  0.141023  0  0.942826  0  0  0.14882  0  1.009544  0  0  0.152135  0  1.007346  0  0  0.132708  0.146418  0  1.01124  0
H  H16  1  0.67792465  0.12842545  0.08595766  1  0  0.129117  0  0.901479  0  0  0.140868  0  0.961434  0  0  0.144199  0  0.957862  0  0  0.128902  0.138459  0  0.964128  0
H  H17  1  0.32207388  0.87157686  0.91404339  1  0  0.129108  0  0.901547  0  0  0.140894  0  0.96151  0  0  0.144227  0  0.957937  0  0  0.128889  0.138478  0  0.964205  0
H  H18  1  0.60703268  0.01008388  0.55979222  1  0  0.405298  0  0.905299  0  0  0.365872  0  0.985237  0  0  0.37759  0  0.967939  0  0  0.303146  0.357491  0  0.997583  0
H  H19  1  0.39296856  0.98991318  0.44021361  1  0  0.405307  0  0.905326  0  0  0.365853  0  0.985275  0  0  0.377572  0  0.967974  0  0  0.30312  0.357473  0  0.997619  0
H  H20  1  0.49113002  0.19288409  0.46447376  1  0  0.429671  0  0.829066  0  0  0.405257  0  0.895808  0  0  0.415567  0  0.883551  0  0  0.320011  0.397741  0  0.904781  0
H  H21  1  0.50888493  0.80711241  0.53552357  1  0  0.429652  0  0.829125  0  0  0.405252  0  0.89585  0  0  0.415553  0  0.88361  0  0  0.320005  0.397732  0  0.904837  0
C  C22  1  0.75022108  0.35955371  0.40016592  1  0  0.697993  0  3.831088  0  0  0.656452  0  4.128791  0  0  0.691175  0  4.122435  0  0  0.216439  0.632514  0  4.132273  0
C  C23  1  0.24978047  0.64044609  0.59983566  1  0  0.698188  0  3.830742  0  0  0.656606  0  4.128516  0  0  0.691328  0  4.122156  0  0  0.216468  0.632671  0  4.132011  0
C  C24  1  0.60459358  0.89639707  0.18430677  1  0  0.686846  0  3.855312  0  0  0.646793  0  4.153747  0  0  0.679432  0  4.150195  0  0  0.206167  0.62457  0  4.155024  0
C  C25  1  0.39540302  0.10360399  0.81568880  1  0  0.686956  0  3.855204  0  0  0.646962  0  4.153592  0  0  0.679603  0  4.150038  0  0  0.206247  0.624745  0  4.15486  0
C  C26  1  0.82610737  0.40059065  0.27268410  1  0  -0.159305  0  3.608843  0  0  -0.220442  0  3.855863  0  0  -0.220333  0  3.859649  0  0  -0.038962  -0.220415  0  3.853562  0
C  C27  1  0.17389268  0.59941039  0.72731807  1  0  -0.159279  0  3.608804  0  0  -0.220405  0  3.85582  0  0  -0.220299  0  3.859609  0  0  -0.038967  -0.2204  0  3.853547  0
C  C28  1  0.70672977  0.99562135  0.08938293  1  0  -0.165727  0  3.624095  0  0  -0.229023  0  3.873348  0  0  -0.228836  0  3.877102  0  0  -0.044515  -0.229124  0  3.870954  0
C  C29  1  0.29326831  0.00438237  0.91061346  1  0  -0.165692  0  3.624154  0  0  -0.229163  0  3.873529  0  0  -0.228978  0  3.877285  0  0  -0.044494  -0.229257  0  3.871124  0
C  C30  1  0.02265990  0.13061642  0.26236841  1  0  0.490081  0  3.82355  0  0  0.440601  0  4.116055  0  0  0.465492  0  4.12414  0  0  0.350263  0.423874  0  4.110267  0
C  C31  1  0.97733758  0.86938184  0.73763562  1  0  0.489999  0  3.823537  0  0  0.440533  0  4.116056  0  0  0.465423  0  4.12414  0  0  0.350282  0.423795  0  4.110278  0
C  C32  1  0.96956093  0.95119766  0.18384646  1  0  0.49567  0  3.840634  0  0  0.444414  0  4.136891  0  0  0.469848  0  4.145734  0  0  0.346824  0.427287  0  4.130527  0
C  C33  1  0.03043610  0.04880201  0.81615292  1  0  0.495485  0  3.840824  0  0  0.444306  0  4.136985  0  0  0.469736  0  4.145837  0  0  0.346774  0.427196  0  4.130591  0
N  N34  1  0.98230266  0.28201184  0.28194551  1  0  -0.017932  0  3.475973  0  0  0.060421  0  3.706007  0  0  0.045999  0  3.728041  0  0  -0.120422  0.069793  0  3.691181  0
N  N35  1  0.01769518  0.71798516  0.71805717  1  0  -0.017877  0  3.475924  0  0  0.060469  0  3.705961  0  0  0.046048  0  3.727994  0  0  -0.12039  0.069857  0  3.691127  0
N  N36  1  0.95491807  0.77341756  0.09501567  1  0  -0.075206  0  2.86844  0  0  -0.092964  0  3.163483  0  0  -0.087645  0  3.170183  0  0  -0.075449  -0.096461  0  3.159128  0
N  N37  1  0.04508033  0.22658886  0.90497818  1  0  -0.075255  0  2.868547  0  0  -0.093008  0  3.163587  0  0  -0.087687  0  3.170284  0  0  -0.075474  -0.096509  0  3.159232  0
N  N38  1  0.09652568  0.72590593  0.14172799  1  0  -0.079581  0  3.13632  0  0  -0.058249  0  3.441723  0  0  -0.057336  0  3.452272  0  0  -0.083418  -0.058529  0  3.43432  0
N  N39  1  0.90347385  0.27410052  0.85826662  1  0  -0.079509  0  3.136333  0  0  -0.05818  0  3.441731  0  0  -0.057266  0  3.452277  0  0  -0.083402  -0.058462  0  3.434335  0
N  N40  1  0.22475424  0.15446425  0.33857627  1  0  -0.06941  0  3.1047  0  0  -0.054243  0  3.400805  0  0  -0.050962  0  3.409989  0  0  -0.080667  -0.056131  0  3.394576  0
N  N41  1  0.77524408  0.84552739  0.66143138  1  0  -0.069362  0  3.104781  0  0  -0.054205  0  3.400891  0  0  -0.050925  0  3.410074  0  0  -0.080627  -0.056097  0  3.394667  0
N  N42  1  0.11261696  0.82941058  0.19799807  1  0  -0.459004  0  3.014185  0  0  -0.422493  0  3.304802  0  0  -0.4483  0  3.322681  0  0  -0.304424  -0.404412  0  3.291821  0
N  N43  1  0.88738079  0.17059046  0.80199999  1  0  -0.458977  0  3.014181  0  0  -0.422487  0  3.30477  0  0  -0.448294  0  3.322652  0  0  -0.304402  -0.404414  0  3.291786  0
N  N44  1  0.87344020  0.91395938  0.11939366  1  0  -0.035967  0  3.501522  0  0  0.044605  0  3.739035  0  0  0.029337  0  3.761048  0  0  -0.124879  0.054469  0  3.724358  0
N  N45  1  0.12655868  0.08604169  0.88060516  1  0  -0.035924  0  3.501465  0  0  0.044653  0  3.739013  0  0  0.029386  0  3.76103  0  0  -0.12486  0.054525  0  3.724308  0
N  N46  1  0.10987435  0.29173604  0.33086212  1  0  -0.108997  0  2.982765  0  0  -0.103229  0  3.267079  0  0  -0.102951  0  3.275347  0  0  -0.071189  -0.10331  0  3.261762  0
N  N47  1  0.89012165  0.70825953  0.66914196  1  0  -0.109093  0  2.982827  0  0  -0.103312  0  3.26713  0  0  -0.103032  0  3.275396  0  0  -0.071214  -0.103395  0  3.261816  0
N  N48  1  0.91833035  0.08703651  0.21571606  1  0  -0.585104  0  3.062139  0  0  -0.570443  0  3.363531  0  0  -0.593864  0  3.367647  0  0  -0.373496  -0.554186  0  3.360199  0
N  N49  1  0.08166560  0.91296305  0.78428599  1  0  -0.58492  0  3.062209  0  0  -0.570308  0  3.363587  0  0  -0.593725  0  3.367706  0  0  -0.373463  -0.554056  0  3.360254  0
N  N50  1  0.17797933  0.05202866  0.29756141  1  0  -0.396032  0  3.028841  0  0  -0.362538  0  3.317044  0  0  -0.384857  0  3.332232  0  0  -0.26841  -0.347063  0  3.306151  0
N  N51  1  0.82201707  0.94796559  0.70244389  1  0  -0.396042  0  3.028859  0  0  -0.362562  0  3.317075  0  0  -0.384882  0  3.332266  0  0  -0.268467  -0.347076  0  3.306177  0
O  O52  1  0.66692046  0.75837683  0.27917411  1  0  -0.659885  0  1.962842  0  0  -0.615283  0  2.193827  0  0  -0.644616  0  2.187357  0  0  -0.348173  -0.59437  0  2.197326  0
O  O53  1  0.33307760  0.24162693  0.72082055  1  0  -0.659974  0  1.96273  0  0  -0.615364  0  2.193677  0  0  -0.644699  0  2.187207  0  0  -0.348239  -0.59446  0  2.197191  0
O  O54  1  0.73502878  0.55951776  0.56759977  1  0  -0.870526  0  1.858696  0  0  -0.821531  0  2.054732  0  0  -0.845404  0  2.023641  0  0  -0.59913  -0.804158  0  2.074412  0
O  O55  1  0.26497943  0.44047849  0.43239640  1  0  -0.870489  0  1.858703  0  0  -0.821488  0  2.054722  0  0  -0.845359  0  2.023626  0  0  -0.599069  -0.804116  0  2.074417  0
O  O56  1  0.60205734  0.43711952  0.40410312  1  0  -0.764103  0  2.052382  0  0  -0.707735  0  2.310264  0  0  -0.7466  0  2.304993  0  0  -0.40419  -0.679451  0  2.312479  0
O  O57  1  0.39794234  0.56288278  0.59590042  1  0  -0.76418  0  2.052292  0  0  -0.707799  0  2.310203  0  0  -0.746663  0  2.30493  0  0  -0.404216  -0.679511  0  2.312422  0
O  O58  1  0.45554505  0.95864754  0.16028312  1  0  -0.659674  0  1.959738  0  0  -0.619748  0  2.199191  0  0  -0.651977  0  2.193872  0  0  -0.384105  -0.59653  0  2.201732  0
O  O59  1  0.54445118  0.04135089  0.83971154  1  0  -0.659665  0  1.959728  0  0  -0.619747  0  2.199129  0  0  -0.651973  0  2.193809  0  0  -0.384111  -0.596534  0  2.201676  0
O  O60  1  0.59369719  0.41348172  0.82937201  1  0  -0.832136  0  1.834317  0  0  -0.786518  0  2.012185  0  0  -0.809001  0  1.984091  0  0  -0.606881  -0.770253  0  2.031984  0
O  O61  1  0.40630552  0.58651414  0.17063151  1  0  -0.832197  0  1.834293  0  0  -0.786506  0  2.012218  0  0  -0.809008  0  1.984084  0  0  -0.606908  -0.770246  0  2.032019  0
O  O62  1  0.83407777  0.25342049  0.49727835  1  0  -0.618959  0  1.978714  0  0  -0.585003  0  2.213451  0  0  -0.614049  0  2.207416  0  0  -0.349614  -0.564353  0  2.216885  0
O  O63  1  0.16592195  0.74657398  0.50272323  1  0  -0.619079  0  1.978633  0  0  -0.585114  0  2.213401  0  0  -0.614159  0  2.207362  0  0  -0.349628  -0.564459  0  2.216838  0
O  O64  1  0.52487278  0.12003221  0.55192132  1  0  -0.854641  0  1.939908  0  0  -0.805372  0  2.138788  0  0  -0.829048  0  2.109811  0  0  -0.618061  -0.788165  0  2.158926  0
O  O65  1  0.47512987  0.87996375  0.44807790  1  0  -0.854635  0  1.939914  0  0  -0.805362  0  2.13879  0  0  -0.829026  0  2.109852  0  0  -0.618025  -0.788152  0  2.158929  0
