# generated using pymatgen
data_AgH11C14(NO)2
_symmetry_space_group_name_H-M   'P 1'
_cell_length_a   7.85902110
_cell_length_b   9.52893945
_cell_length_c   17.10290000
_cell_angle_alpha   90.00000000
_cell_angle_beta   96.58954565
_cell_angle_gamma   90.00000000
_symmetry_Int_Tables_number   1
_chemical_formula_structural   AgH11C14(NO)2
_chemical_formula_sum   'Ag4 H44 C56 N8 O8'
_cell_volume   1272.34295441
_cell_formula_units_Z   4
loop_
 _symmetry_equiv_pos_site_id
 _symmetry_equiv_pos_as_xyz
  1  'x, y, z'
loop_
 _atom_site_type_symbol
 _atom_site_label
 _atom_site_symmetry_multiplicity
 _atom_site_fract_x
 _atom_site_fract_y
 _atom_site_fract_z
 _atom_site_occupancy
 _atom_site_hle17_bader_spin_density
 _atom_site_hle17_ddec_charge
 _atom_site_hle17_ddec_spin_density
 _atom_site_hle17_ddec_sum_bond_order
 _atom_site_hle17_magmom
 _atom_site_hse06_10hf_bader_spin_density
 _atom_site_hse06_10hf_ddec_charge
 _atom_site_hse06_10hf_ddec_spin_density
 _atom_site_hse06_10hf_ddec_sum_bond_order
 _atom_site_hse06_10hf_magmom
 _atom_site_hse06_bader_spin_density
 _atom_site_hse06_ddec_charge
 _atom_site_hse06_ddec_spin_density
 _atom_site_hse06_ddec_sum_bond_order
 _atom_site_hse06_magmom
 _atom_site_pbe_bader_charge
 _atom_site_pbe_bader_spin_density
 _atom_site_pbe_cm5_charge
 _atom_site_pbe_ddec_charge
 _atom_site_pbe_ddec_spin_density
 _atom_site_pbe_ddec_sum_bond_order
 _atom_site_pbe_magmom
Ag  Ag0  1  0.28933527  0.09599075  0.15215387  1  0  0.546484  0  1.319966  0  0  0.409529  0  1.735966  0  0  0.444136  0  1.689207  0  0.563964  0  0.4364  0.385403  0  1.768158  0
Ag  Ag1  1  0.21067100  0.09599179  0.34784613  1  0  0.546505  0  1.319931  0  0  0.409563  0  1.735888  0  0  0.444166  0  1.689145  0  0.563377  0  0.436415  0.385438  0  1.768083  0
Ag  Ag2  1  0.71066573  0.90400826  0.84784670  1  0  0.546509  0  1.319969  0  0  0.409569  0  1.735943  0  0  0.444169  0  1.689196  0  0.563972  0  0.436408  0.385443  0  1.768138  0
Ag  Ag3  1  0.78933000  0.90400931  0.65215445  1  0  0.546507  0  1.319952  0  0  0.409583  0  1.735898  0  0  0.444184  0  1.689153  0  0.563379  0  0.436415  0.385459  0  1.768092  0
H  H4  1  0.78556932  0.93260851  0.01984170  1  0  0.091902  0  0.958476  0  0  0.099402  0  1.029428  0  0  0.103501  0  1.025802  0  0.076822  0  0.09655  0.096424  0  1.032063  0
H  H5  1  0.71443281  0.93260851  0.48016096  1  0  0.091945  0  0.95841  0  0  0.099407  0  1.029409  0  0  0.103509  0  1.025778  0  0.076889  0  0.09654  0.096441  0  1.032031  0
H  H6  1  0.21442783  0.06739260  0.98015868  1  0  0.09194  0  0.958395  0  0  0.09942  0  1.029371  0  0  0.103517  0  1.025748  0  0.077561  0  0.096562  0.096447  0  1.032001  0
H  H7  1  0.28556562  0.06738525  0.51983832  1  0  0.091901  0  0.958471  0  0  0.09939  0  1.029442  0  0  0.103491  0  1.025813  0  0.076873  0  0.096548  0.096439  0  1.032049  0
H  H8  1  0.48605743  0.84730521  0.99241708  1  0  0.086103  0  0.982621  0  0  0.093887  0  1.048378  0  0  0.0962  0  1.048762  0  0.081157  0  0.094582  0.092158  0  1.048605  0
H  H9  1  0.01394499  0.84730730  0.50758623  1  0  0.086099  0  0.982468  0  0  0.093861  0  1.048255  0  0  0.096175  0  1.048638  0  0.081055  0  0.094564  0.092129  0  1.048491  0
H  H10  1  0.51394229  0.15269485  0.00758343  1  0  0.08609  0  0.98267  0  0  0.093854  0  1.048447  0  0  0.096169  0  1.04883  0  0.081145  0  0.094552  0.092128  0  1.048666  0
H  H11  1  0.98605216  0.15268856  0.49241356  1  0  0.086129  0  0.982449  0  0  0.0939  0  1.048227  0  0  0.096214  0  1.048608  0  0.081092  0  0.094576  0.092168  0  1.048463  0
H  H12  1  0.32689722  0.77160738  0.10379400  1  0  0.102838  0  0.954308  0  0  0.113886  0  1.010522  0  0  0.116939  0  1.009047  0  0.105764  0  0.100962  0.111796  0  1.011542  0
H  H13  1  0.17311417  0.77160948  0.39621329  1  0  0.102849  0  0.954232  0  0  0.11392  0  1.010419  0  0  0.116977  0  1.008938  0  0.105956  0  0.100902  0.111831  0  1.011439  0
H  H14  1  0.67310250  0.22839163  0.89620651  1  0  0.102834  0  0.954376  0  0  0.113876  0  1.010597  0  0  0.116928  0  1.009124  0  0.105762  0  0.100974  0.111787  0  1.011616  0
H  H15  1  0.82688683  0.22839058  0.60378670  1  0  0.102845  0  0.954256  0  0  0.11389  0  1.010471  0  0  0.116948  0  1.008991  0  0.105952  0  0.100891  0.111801  0  1.011491  0
H  H16  1  0.47158086  0.77487007  0.24004433  1  0  0.094676  0  0.948675  0  0  0.107338  0  1.00613  0  0  0.110464  0  1.00451  0  0.057366  0  0.100969  0.105125  0  1.007358  0
H  H17  1  0.02843565  0.77487217  0.25996324  1  0  0.094653  0  0.94874  0  0  0.107339  0  1.006168  0  0  0.110467  0  1.004546  0  0.057556  0  0.100982  0.105126  0  1.007396  0
H  H18  1  0.52842142  0.22512789  0.75995632  1  0  0.094668  0  0.94873  0  0  0.107333  0  1.006175  0  0  0.11046  0  1.004556  0  0.057469  0  0.100967  0.105121  0  1.007403  0
H  H19  1  0.97156663  0.22512789  0.74003624  1  0  0.09465  0  0.948749  0  0  0.107327  0  1.00619  0  0  0.110454  0  1.004568  0  0.057573  0  0.100992  0.105114  0  1.007418  0
H  H20  1  0.29287563  0.42708530  0.08829938  1  0  0.095966  0  0.990241  0  0  0.105094  0  1.053005  0  0  0.106112  0  1.054819  0  0.115943  0  0.108606  0.104317  0  1.051824  0
H  H21  1  0.20712551  0.42708950  0.41170211  1  0  0.09597  0  0.990176  0  0  0.105107  0  1.05293  0  0  0.106119  0  1.05475  0  0.116034  0  0.108594  0.10433  0  1.051747  0
H  H22  1  0.70712152  0.57291161  0.91170100  1  0  0.096028  0  0.990225  0  0  0.105112  0  1.053026  0  0  0.106157  0  1.054812  0  0.116024  0  0.108591  0.104335  0  1.051845  0
H  H23  1  0.79287677  0.57291161  0.58829795  1  0  0.095964  0  0.990263  0  0  0.105093  0  1.053022  0  0  0.106112  0  1.054834  0  0.116011  0  0.108589  0.104317  0  1.051838  0
H  H24  1  0.59837183  0.57333558  0.08617445  1  0  0.113015  0  0.987074  0  0  0.124131  0  1.047126  0  0  0.125055  0  1.049268  0  0.143722  0  0.117348  0.123093  0  1.046406  0
H  H25  1  0.90162775  0.57333558  0.41382690  1  0  0.11297  0  0.987084  0  0  0.124086  0  1.047143  0  0  0.125009  0  1.049286  0  0.143687  0  0.117339  0.123048  0  1.046422  0
H  H26  1  0.40162533  0.42666448  0.91382534  1  0  0.112983  0  0.987091  0  0  0.124099  0  1.047147  0  0  0.125022  0  1.04929  0  0.143711  0  0.117334  0.123061  0  1.046426  0
H  H27  1  0.09837325  0.42666448  0.58617368  1  0  0.112985  0  0.987095  0  0  0.1241  0  1.047149  0  0  0.125025  0  1.049291  0  0.143682  0  0.117335  0.123063  0  1.046427  0
H  H28  1  0.70481465  0.17122682  0.18476986  1  0  0.108503  0  0.985271  0  0  0.112737  0  1.057053  0  0  0.115499  0  1.054165  0  0.205738  0  0.131981  0.11053  0  1.059623  0
H  H29  1  0.79519005  0.17122682  0.31523117  1  0  0.108437  0  0.985196  0  0  0.112672  0  1.057009  0  0  0.115436  0  1.054119  0  0.206266  0  0.13196  0.110479  0  1.059562  0
H  H30  1  0.29518635  0.82877429  0.81523072  1  0  0.108479  0  0.985257  0  0  0.112719  0  1.05704  0  0  0.115479  0  1.054155  0  0.20621  0  0.131972  0.11051  0  1.059613  0
H  H31  1  0.20481095  0.82877324  0.68476999  1  0  0.108474  0  0.985318  0  0  0.112718  0  1.057107  0  0  0.11548  0  1.054219  0  0.205767  0  0.131974  0.110536  0  1.059646  0
H  H32  1  0.95207028  0.31973443  0.17322809  1  0  0.108889  0  0.942203  0  0  0.122032  0  1.007109  0  0  0.123949  0  1.005304  0  0.143041  0  0.11868  0.120549  0  1.00846  0
H  H33  1  0.54793186  0.31973128  0.32677281  1  0  0.108863  0  0.942187  0  0  0.122015  0  1.007105  0  0  0.123929  0  1.005289  0  0.143031  0  0.118672  0.120532  0  1.008456  0
H  H34  1  0.04792944  0.68026878  0.82676950  1  0  0.108928  0  0.942167  0  0  0.122056  0  1.007089  0  0  0.123969  0  1.005288  0  0.142969  0  0.118688  0.120573  0  1.008441  0
H  H35  1  0.45207042  0.68026773  0.67322959  1  0  0.108927  0  0.942168  0  0  0.122067  0  1.007101  0  0  0.123972  0  1.005287  0  0.143007  0  0.118689  0.120584  0  1.008453  0
H  H36  1  0.90811543  0.49908807  0.19329302  1  0  0.08473  0  0.90807  0  0  0.101451  0  0.965601  0  0  0.102272  0  0.965247  0  0.067351  0  0.110935  0.10072  0  0.96596  0
H  H37  1  0.59188286  0.49908492  0.30670651  1  0  0.084716  0  0.908073  0  0  0.101452  0  0.965598  0  0  0.102265  0  0.965243  0  0.067363  0  0.110944  0.100722  0  0.965956  0
H  H38  1  0.09188300  0.50091409  0.80670509  1  0  0.084736  0  0.908039  0  0  0.10147  0  0.965555  0  0  0.102289  0  0.965201  0  0.067314  0  0.110928  0.100742  0  0.965911  0
H  H39  1  0.40811685  0.50091304  0.69329458  1  0  0.084733  0  0.908011  0  0  0.101485  0  0.965532  0  0  0.102291  0  0.965174  0  0.067323  0  0.11093  0.100756  0  0.965888  0
H  H40  1  0.91935007  0.25128295  0.02025232  1  0  0.105377  0  0.932455  0  0  0.118994  0  0.987611  0  0  0.12169  0  0.986578  0  0.090087  0  0.106781  0.116981  0  0.988664  0
H  H41  1  0.58065078  0.25128085  0.47974793  1  0  0.105401  0  0.932377  0  0  0.119007  0  0.987551  0  0  0.121704  0  0.986516  0  0.090073  0  0.106792  0.116993  0  0.988606  0
H  H42  1  0.08064964  0.74871816  0.97974527  1  0  0.105413  0  0.932326  0  0  0.119042  0  0.987473  0  0  0.12174  0  0.986436  0  0.090072  0  0.106792  0.117025  0  0.988531  0
H  H43  1  0.41935150  0.74871816  0.52025388  1  0  0.105463  0  0.932292  0  0  0.119048  0  0.987481  0  0  0.121745  0  0.986448  0  0.090083  0  0.106809  0.117034  0  0.988536  0
H  H44  1  0.98804266  0.67657477  0.10603553  1  0  0.096886  0  0.976013  0  0  0.103146  0  1.044647  0  0  0.105905  0  1.043911  0  0.084461  0  0.097652  0.101198  0  1.04506  0
H  H45  1  0.51195820  0.67657372  0.39396472  1  0  0.09684  0  0.976021  0  0  0.103091  0  1.044685  0  0  0.105887  0  1.043913  0  0.084461  0  0.097629  0.101152  0  1.045089  0
H  H46  1  0.01195578  0.32342634  0.89396258  1  0  0.096826  0  0.976011  0  0  0.103077  0  1.044665  0  0  0.10587  0  1.043896  0  0.084516  0  0.097626  0.101146  0  1.045061  0
H  H47  1  0.48804408  0.32342529  0.60603826  1  0  0.096854  0  0.975956  0  0  0.103086  0  1.044634  0  0  0.105856  0  1.043888  0  0.084513  0  0.097631  0.101154  0  1.045031  0
C  C48  1  0.79554614  0.90725311  0.14563135  1  0  -0.091842  0  3.71163  0  0  -0.072948  0  3.942525  0  0  -0.079115  0  3.963603  0  -0.0956  0  -0.015862  -0.068943  0  3.928224  0
C  C49  1  0.70446240  0.90724787  0.35437048  1  0  -0.091817  0  3.711681  0  0  -0.072882  0  3.942511  0  0  -0.079047  0  3.963594  0  -0.095393  0  -0.015792  -0.068881  0  3.928209  0
C  C50  1  0.20445230  0.09275534  0.85436851  1  0  -0.091993  0  3.711825  0  0  -0.073019  0  3.942605  0  0  -0.079188  0  3.963688  0  -0.095542  0  -0.015891  -0.069013  0  3.928304  0
C  C51  1  0.29553731  0.09275114  0.64562828  1  0  -0.091699  0  3.711659  0  0  -0.072785  0  3.942442  0  0  -0.07895  0  3.963524  0  -0.095174  0  -0.015747  -0.068785  0  3.928147  0
C  C52  1  0.71590583  0.89807476  0.06815881  1  0  -0.087329  0  3.750215  0  0  -0.108509  0  3.99862  0  0  -0.109871  0  4.019305  0  -0.032271  0  -0.090743  -0.107149  0  3.985305  0
C  C53  1  0.78409759  0.89807161  0.43184450  1  0  -0.087418  0  3.750184  0  0  -0.10858  0  3.998587  0  0  -0.109942  0  4.019268  0  -0.03234  0  -0.090725  -0.10723  0  3.985268  0
C  C54  1  0.28409260  0.10192950  0.93184164  1  0  -0.08729  0  3.75024  0  0  -0.10848  0  3.998621  0  0  -0.10984  0  4.019308  0  -0.032996  0  -0.090717  -0.107124  0  3.985304  0
C  C55  1  0.21589957  0.10192320  0.56815529  1  0  -0.087384  0  3.750172  0  0  -0.108579  0  3.998606  0  0  -0.109943  0  4.01929  0  -0.032526  0  -0.090732  -0.107243  0  3.985279  0
C  C56  1  0.54757705  0.85043042  0.05276841  1  0  -0.079831  0  3.786593  0  0  -0.092048  0  4.036361  0  0  -0.094212  0  4.057229  0  -0.060751  0  -0.097454  -0.091254  0  4.023641  0
C  C57  1  0.95243277  0.85043252  0.44723407  1  0  -0.079798  0  3.786278  0  0  -0.092013  0  4.03609  0  0  -0.094171  0  4.056947  0  -0.060579  0  -0.097453  -0.09122  0  4.023368  0
C  C58  1  0.45242395  0.14957173  0.94723217  1  0  -0.079846  0  3.7867  0  0  -0.092065  0  4.036494  0  0  -0.094216  0  4.05733  0  -0.060735  0  -0.097428  -0.091269  0  4.023775  0
C  C59  1  0.04756438  0.14956229  0.55276572  1  0  -0.079816  0  3.786245  0  0  -0.092037  0  4.03605  0  0  -0.0942  0  4.056921  0  -0.060953  0  -0.097465  -0.091245  0  4.023333  0
C  C60  1  0.45864264  0.80859576  0.11499720  1  0  -0.08403  0  3.801763  0  0  -0.093462  0  4.049853  0  0  -0.093174  0  4.066785  0  -0.012658  0  -0.100353  -0.093829  0  4.039471  0
C  C61  1  0.04136874  0.80859576  0.38500659  1  0  -0.084066  0  3.801663  0  0  -0.093512  0  4.049763  0  0  -0.093228  0  4.066702  0  -0.013304  0  -0.100335  -0.093879  0  4.039379  0
C  C62  1  0.54135835  0.19140430  0.88500280  1  0  -0.083963  0  3.801884  0  0  -0.09339  0  4.049958  0  0  -0.093099  0  4.066892  0  -0.012661  0  -0.100345  -0.093756  0  4.039573  0
C  C63  1  0.95862969  0.19140220  0.61499386  1  0  -0.084113  0  3.801712  0  0  -0.093542  0  4.049824  0  0  -0.09326  0  4.066764  0  -0.012994  0  -0.100336  -0.09391  0  4.03944  0
C  C64  1  0.54005185  0.81162757  0.19192979  1  0  -0.120804  0  3.76153  0  0  -0.142419  0  4.015195  0  0  -0.145072  0  4.034031  0  -0.107165  0  -0.096362  -0.1403  0  4.002939  0
C  C65  1  0.95996309  0.81163072  0.30807588  1  0  -0.120651  0  3.761502  0  0  -0.142286  0  4.015129  0  0  -0.144943  0  4.033969  0  -0.107134  0  -0.096286  -0.140165  0  4.002872  0
C  C66  1  0.45994915  0.18837144  0.80806962  1  0  -0.120839  0  3.761654  0  0  -0.142475  0  4.015325  0  0  -0.14513  0  4.034163  0  -0.107241  0  -0.096384  -0.140355  0  4.003067  0
C  C67  1  0.04003790  0.18836829  0.69192411  1  0  -0.120583  0  3.761622  0  0  -0.142232  0  4.015229  0  0  -0.144885  0  4.034068  0  -0.10728  0  -0.096313  -0.140112  0  4.002971  0
C  C68  1  0.70818338  0.86170030  0.20889666  1  0  0.039883  0  3.752486  0  0  0.046879  0  3.987428  0  0  0.047768  0  4.010862  0  -0.011648  0  -0.00814  0.046144  0  3.971131  0
C  C69  1  0.79183541  0.86170450  0.29110512  1  0  0.039689  0  3.752592  0  0  0.046698  0  3.987537  0  0  0.047586  0  4.010971  0  0.032043  0  -0.00827  0.045963  0  3.971241  0
C  C70  1  0.29181506  0.13830081  0.79110203  1  0  0.039931  0  3.752609  0  0  0.046904  0  3.9875  0  0  0.04779  0  4.010938  0  -0.011711  0  -0.008159  0.046169  0  3.971202  0
C  C71  1  0.20816687  0.13829766  0.70889435  1  0  0.039559  0  3.752823  0  0  0.046629  0  3.987669  0  0  0.047517  0  4.011104  0  0.032184  0  -0.008277  0.045894  0  3.971372  0
C  C72  1  0.96465498  0.98214497  0.16005136  1  0  0.627855  0  3.961187  0  0  0.578606  0  4.246748  0  0  0.612734  0  4.241921  0  1.568098  0  0.18967  0.555229  0  4.24951  0
C  C73  1  0.53535100  0.98214497  0.33995150  1  0  0.628078  0  3.961031  0  0  0.578793  0  4.246639  0  0  0.612918  0  4.241809  0  1.568265  0  0.189739  0.555428  0  4.249384  0
C  C74  1  0.03533962  0.01785928  0.83995122  1  0  0.628058  0  3.961201  0  0  0.578795  0  4.246739  0  0  0.612924  0  4.241906  0  1.567914  0  0.189686  0.555417  0  4.249505  0
C  C75  1  0.46464999  0.01785613  0.66004557  1  0  0.628005  0  3.961244  0  0  0.578764  0  4.246788  0  0  0.612891  0  4.241958  0  1.568065  0  0.189703  0.555397  0  4.249538  0
C  C76  1  0.42297000  0.39553300  0.10851806  1  0  -0.023425  0  3.778486  0  0  -0.051292  0  4.030825  0  0  -0.049942  0  4.053567  0  0.397862  0  -0.011214  -0.051978  0  4.0151  0
C  C77  1  0.07703114  0.39553615  0.39148285  1  0  -0.023541  0  3.778514  0  0  -0.051422  0  4.03087  0  0  -0.050065  0  4.053613  0  0.397704  0  -0.011249  -0.052106  0  4.015142  0
C  C78  1  0.57702716  0.60446496  0.89148232  1  0  -0.023605  0  3.778625  0  0  -0.051438  0  4.03098  0  0  -0.050112  0  4.053707  0  0.397831  0  -0.011257  -0.052125  0  4.015256  0
C  C79  1  0.92296986  0.60446706  0.60851715  1  0  -0.023505  0  3.778605  0  0  -0.051374  0  4.030949  0  0  -0.050024  0  4.053688  0  0.397809  0  -0.01122  -0.05206  0  4.015222  0
C  C80  1  0.57279255  0.46907319  0.10690724  1  0  -0.071746  0  3.69728  0  0  -0.110182  0  3.946795  0  0  -0.109444  0  3.968456  0  0.282788  0  -0.005879  -0.110265  0  3.931989  0
C  C81  1  0.92720702  0.46907319  0.39309353  1  0  -0.07163  0  3.697276  0  0  -0.110059  0  3.946783  0  0  -0.109322  0  3.968443  0  0.282885  0  -0.005856  -0.110144  0  3.931977  0
C  C82  1  0.42720332  0.53092582  0.89309307  1  0  -0.071592  0  3.697296  0  0  -0.110024  0  3.946784  0  0  -0.109287  0  3.96845  0  0.28287  0  -0.00581  -0.110108  0  3.931978  0
C  C83  1  0.07279654  0.53092582  0.60690660  1  0  -0.071629  0  3.697278  0  0  -0.110058  0  3.946772  0  0  -0.10932  0  3.968432  0  0.282917  0  -0.005805  -0.110142  0  3.931964  0
C  C84  1  0.63025561  0.25851460  0.15861100  1  0  0.158465  0  3.624326  0  0  0.097886  0  3.884824  0  0  0.111454  0  3.899175  0  0.947621  0  0.137622  0.088564  0  3.875909  0
C  C85  1  0.86974652  0.25851670  0.34138932  1  0  0.15856  0  3.624265  0  0  0.097969  0  3.884781  0  0  0.111535  0  3.899133  0  0.947671  0  0.13765  0.088639  0  3.875856  0
C  C86  1  0.36974282  0.74148440  0.84138886  1  0  0.158509  0  3.62432  0  0  0.097905  0  3.884836  0  0  0.111473  0  3.899189  0  0.947629  0  0.137633  0.088586  0  3.875921  0
C  C87  1  0.13025447  0.74148440  0.65861126  1  0  0.158485  0  3.624356  0  0  0.09788  0  3.884872  0  0  0.111445  0  3.899229  0  0.947643  0  0.137631  0.088542  0  3.875938  0
C  C88  1  0.88581779  0.41473870  0.14938996  1  0  -0.047025  0  3.6331  0  0  -0.113667  0  3.878517  0  0  -0.109121  0  3.887986  0  0.275538  0  -0.046526  -0.116556  0  3.871965  0
C  C89  1  0.61418179  0.41473765  0.35060963  1  0  -0.046969  0  3.632994  0  0  -0.113676  0  3.87846  0  0  -0.109097  0  3.887888  0  0.275513  0  -0.046561  -0.116566  0  3.871908  0
C  C90  1  0.11418065  0.58526240  0.85060756  1  0  -0.047101  0  3.633127  0  0  -0.113772  0  3.878609  0  0  -0.109216  0  3.888063  0  0.275535  0  -0.046557  -0.116662  0  3.872057  0
C  C91  1  0.38581921  0.58526240  0.64939211  1  0  -0.047053  0  3.632972  0  0  -0.113797  0  3.878523  0  0  -0.109185  0  3.887913  0  0.275512  0  -0.046547  -0.116687  0  3.87197  0
C  C92  1  0.94678535  0.45867749  0.07248282  1  0  0.058487  0  3.768235  0  0  0.078524  0  4.007027  0  0  0.078019  0  4.030817  0  -0.07036  0  -0.01396  0.078801  0  3.99081  0
C  C93  1  0.55321807  0.45867959  0.42751698  1  0  0.058396  0  3.768186  0  0  0.078498  0  4.006919  0  0  0.077982  0  4.030714  0  -0.070316  0  -0.013948  0.078776  0  3.990702  0
C  C94  1  0.05321437  0.54132047  0.92751477  1  0  0.058383  0  3.768203  0  0  0.078448  0  4.006978  0  0  0.077938  0  4.030778  0  -0.070316  0  -0.013983  0.078725  0  3.990764  0
C  C95  1  0.44678549  0.54132152  0.57248490  1  0  0.058323  0  3.768323  0  0  0.078426  0  4.007073  0  0  0.077903  0  4.030854  0  -0.070321  0  -0.014023  0.078703  0  3.990859  0
C  C96  1  0.95397496  0.36077152  0.01178809  1  0  -0.10855  0  3.734178  0  0  -0.129716  0  3.985277  0  0  -0.131703  0  4.005536  0  -0.017756  0  -0.089076  -0.128229  0  3.971452  0
C  C97  1  0.54602590  0.36077152  0.48821041  1  0  -0.108551  0  3.73413  0  0  -0.129725  0  3.985217  0  0  -0.131712  0  4.00547  0  -0.017511  0  -0.089112  -0.128238  0  3.971393  0
C  C98  1  0.04602348  0.63922853  0.98820768  1  0  -0.108539  0  3.734127  0  0  -0.129722  0  3.985218  0  0  -0.131708  0  4.005467  0  -0.017523  0  -0.089144  -0.128233  0  3.971391  0
C  C99  1  0.45397766  0.63922853  0.51179147  1  0  -0.108624  0  3.734154  0  0  -0.129775  0  3.98525  0  0  -0.131764  0  4.005515  0  -0.017532  0  -0.089132  -0.128288  0  3.971424  0
C  C100  1  0.99339804  0.59811588  0.05993866  1  0  -0.118598  0  3.756359  0  0  -0.135725  0  4.002742  0  0  -0.138527  0  4.024472  0  -0.072366  0  -0.08984  -0.133547  0  3.987904  0
C  C101  1  0.50660154  0.59811693  0.44006094  1  0  -0.118452  0  3.756252  0  0  -0.135586  0  4.002603  0  0  -0.138423  0  4.024319  0  -0.072463  0  -0.089818  -0.133417  0  3.987761  0
C  C102  1  0.00659784  0.40188418  0.94005873  1  0  -0.118511  0  3.756291  0  0  -0.135634  0  4.002674  0  0  -0.138468  0  4.02439  0  -0.072338  0  -0.089863  -0.133471  0  3.98783  0
C  C103  1  0.49340074  0.40188418  0.55994088  1  0  -0.118527  0  3.756211  0  0  -0.135644  0  4.0026  0  0  -0.138458  0  4.024328  0  -0.072498  0  -0.089842  -0.133481  0  3.987756  0
N  N104  1  0.46052554  0.26452681  0.14104413  1  0  -0.355024  0  3.388049  0  0  -0.266632  0  3.684707  0  0  -0.289031  0  3.700969  0  -1.199703  0  -0.380356  -0.2508  0  3.672715  0
N  N105  1  0.03947688  0.26452996  0.35895684  1  0  -0.354984  0  3.38809  0  0  -0.266583  0  3.684742  0  0  -0.288982  0  3.701002  0  -1.199658  0  -0.380317  -0.250751  0  3.672748  0
N  N106  1  0.53947289  0.73547114  0.85895689  1  0  -0.354943  0  3.388007  0  0  -0.266547  0  3.684657  0  0  -0.288945  0  3.700926  0  -1.199623  0  -0.380338  -0.250714  0  3.672662  0
N  N107  1  0.96052540  0.73547219  0.64104439  1  0  -0.355001  0  3.388077  0  0  -0.266612  0  3.684752  0  0  -0.28901  0  3.701013  0  -1.199683  0  -0.380367  -0.25078  0  3.672763  0
N  N108  1  0.70222982  0.38118513  0.13892260  1  0  -0.056223  0  3.561278  0  0  0.039742  0  3.777367  0  0  0.024657  0  3.8039  0  -1.236115  0  -0.241406  0.049617  0  3.759098  0
N  N109  1  0.79776975  0.38118618  0.36107817  1  0  -0.056291  0  3.561305  0  0  0.039688  0  3.777393  0  0  0.024597  0  3.803918  0  -1.236223  0  -0.241412  0.049563  0  3.759126  0
N  N110  1  0.29776733  0.61881388  0.86107661  1  0  -0.056319  0  3.561422  0  0  0.03967  0  3.77751  0  0  0.024583  0  3.804041  0  -1.236269  0  -0.241436  0.049546  0  3.759239  0
N  N111  1  0.20223124  0.61881493  0.63892241  1  0  -0.056225  0  3.561249  0  0  0.039782  0  3.777337  0  0  0.024681  0  3.803859  0  -1.236235  0  -0.241418  0.049656  0  3.759072  0
O  O112  1  0.97263105  0.08916942  0.20383302  1  0  -0.650208  0  2.030415  0  0  -0.591676  0  2.284587  0  0  -0.619499  0  2.274964  0  -1.175211  0  -0.322503  -0.571797  0  2.290227  0
O  O113  1  0.52738390  0.08916522  0.29616856  1  0  -0.650256  0  2.030385  0  0  -0.59174  0  2.284617  0  0  -0.619564  0  2.274994  0  -1.175723  0  -0.322588  -0.571868  0  2.290257  0
O  O114  1  0.02736995  0.91083484  0.79616931  1  0  -0.650327  0  2.030311  0  0  -0.5918  0  2.28449  0  0  -0.619614  0  2.274838  0  -1.175414  0  -0.322591  -0.571921  0  2.290138  0
O  O115  1  0.47262094  0.91083484  0.70382930  1  0  -0.650285  0  2.030379  0  0  -0.591789  0  2.284601  0  0  -0.619607  0  2.274957  0  -1.175658  0  -0.32262  -0.57192  0  2.290244  0
O  O116  1  0.08957869  0.93659321  0.12486586  1  0  -0.625372  0  2.031542  0  0  -0.544933  0  2.285314  0  0  -0.577593  0  2.275867  0  -1.137757  0  -0.33897  -0.521949  0  2.290894  0
O  O117  1  0.41042757  0.93659006  0.37513591  1  0  -0.625518  0  2.031668  0  0  -0.545063  0  2.285452  0  0  -0.577727  0  2.276014  0  -1.137264  0  -0.338979  -0.522086  0  2.291031  0
O  O118  1  0.91042103  0.06340999  0.87513699  1  0  -0.625425  0  2.031766  0  0  -0.544997  0  2.285554  0  0  -0.577657  0  2.27611  0  -1.137355  0  -0.338878  -0.522021  0  2.291156  0
O  O119  1  0.58957343  0.06341209  0.62486233  1  0  -0.625462  0  2.031814  0  0  -0.545025  0  2.285569  0  0  -0.577688  0  2.276128  0  -1.13719  0  -0.33891  -0.522043  0  2.291145  0
