# generated using pymatgen
data_CdH15C19(NO3)2
_symmetry_space_group_name_H-M   'P 1'
_cell_length_a   7.51722824
_cell_length_b   10.49064858
_cell_length_c   12.46593832
_cell_angle_alpha   101.85846029
_cell_angle_beta   99.35722404
_cell_angle_gamma   111.58759922
_symmetry_Int_Tables_number   1
_chemical_formula_structural   CdH15C19(NO3)2
_chemical_formula_sum   'Cd2 H30 C38 N4 O12'
_cell_volume   863.41626096
_cell_formula_units_Z   2
loop_
 _symmetry_equiv_pos_site_id
 _symmetry_equiv_pos_as_xyz
  1  'x, y, z'
loop_
 _atom_site_type_symbol
 _atom_site_label
 _atom_site_symmetry_multiplicity
 _atom_site_fract_x
 _atom_site_fract_y
 _atom_site_fract_z
 _atom_site_occupancy
 _atom_site_hle17_bader_spin_density
 _atom_site_hle17_ddec_charge
 _atom_site_hle17_ddec_spin_density
 _atom_site_hle17_ddec_sum_bond_order
 _atom_site_hle17_magmom
 _atom_site_hse06_10hf_bader_spin_density
 _atom_site_hse06_10hf_ddec_charge
 _atom_site_hse06_10hf_ddec_spin_density
 _atom_site_hse06_10hf_ddec_sum_bond_order
 _atom_site_hse06_10hf_magmom
 _atom_site_hse06_bader_spin_density
 _atom_site_hse06_ddec_charge
 _atom_site_hse06_ddec_spin_density
 _atom_site_hse06_ddec_sum_bond_order
 _atom_site_hse06_magmom
 _atom_site_pbe_bader_spin_density
 _atom_site_pbe_cm5_charge
 _atom_site_pbe_ddec_charge
 _atom_site_pbe_ddec_spin_density
 _atom_site_pbe_ddec_sum_bond_order
 _atom_site_pbe_magmom
Cd  Cd0  1  0.58892214  0.13143254  0.34204873  1  0  1.101249  0  1.68177  0  0  0.906946  0  2.126779  0  0  0.964949  0  2.075397  0  0  0.766516  0.863645  0  2.162904  0
Cd  Cd1  1  0.41107827  0.86857407  0.65795244  1  0  1.101173  0  1.682052  0  0  0.906919  0  2.127046  0  0  0.964915  0  2.075671  0  0  0.766529  0.863624  0  2.16316  0
H  H2  1  0.00033969  0.07925842  0.32968046  1  0  0.08418  0  0.945158  0  0  0.093472  0  1.008172  0  0  0.096269  0  1.005421  0  0  0.114885  0.091372  0  1.010344  0
H  H3  1  0.99970178  0.92078639  0.67032548  1  0  0.084445  0  0.945326  0  0  0.09372  0  1.008332  0  0  0.096505  0  1.005573  0  0  0.114992  0.091626  0  1.010494  0
H  H4  1  0.28930834  0.28580626  0.05103887  1  0  0.116956  0  0.946748  0  0  0.125395  0  1.012179  0  0  0.128982  0  1.010126  0  0  0.105743  0.122779  0  1.013861  0
H  H5  1  0.71071560  0.71421270  0.94895838  1  0  0.11694  0  0.946835  0  0  0.125385  0  1.012244  0  0  0.128979  0  1.010197  0  0  0.105747  0.122767  0  1.013927  0
H  H6  1  0.29836540  0.69888358  0.04442549  1  0  0.112081  0  0.978867  0  0  0.120145  0  1.047258  0  0  0.123932  0  1.044362  0  0  0.105274  0.117459  0  1.049418  0
H  H7  1  0.70165436  0.30112402  0.95558186  1  0  0.112014  0  0.978864  0  0  0.120094  0  1.047245  0  0  0.123882  0  1.044352  0  0  0.105259  0.117366  0  1.049453  0
H  H8  1  0.53382348  0.63725251  0.35788198  1  0  0.105583  0  0.957038  0  0  0.115169  0  1.021145  0  0  0.118782  0  1.018602  0  0  0.106432  0.112441  0  1.023221  0
H  H9  1  0.46617072  0.36273547  0.64212598  1  0  0.105678  0  0.956974  0  0  0.115205  0  1.021175  0  0  0.118838  0  1.018599  0  0  0.106402  0.112474  0  1.023256  0
H  H10  1  0.74513515  0.07341339  0.93948318  1  0  0.126151  0  0.994538  0  0  0.132315  0  1.0597  0  0  0.136849  0  1.056744  0  0  0.108574  0.128983  0  1.062068  0
H  H11  1  0.25476578  0.92648569  0.06050114  1  0  0.126357  0  0.994396  0  0  0.132332  0  1.059726  0  0  0.136871  0  1.056757  0  0  0.108625  0.129003  0  1.0621  0
H  H12  1  0.61413384  0.15185291  0.09765475  1  0  0.08296  0  0.956631  0  0  0.09119  0  1.021987  0  0  0.094128  0  1.019298  0  0  0.114248  0.088916  0  1.024193  0
H  H13  1  0.38580098  0.84808659  0.90234129  1  0  0.083147  0  0.956696  0  0  0.091323  0  1.022073  0  0  0.094259  0  1.019382  0  0  0.114274  0.089035  0  1.024313  0
H  H14  1  0.28567843  0.59922542  0.85883595  1  0  0.072578  0  0.962589  0  0  0.081139  0  1.036547  0  0  0.081571  0  1.036216  0  0  0.105882  0.080775  0  1.036989  0
H  H15  1  0.71437080  0.40081574  0.14117002  1  0  0.072599  0  0.962171  0  0  0.081107  0  1.036259  0  0  0.081538  0  1.035928  0  0  0.105849  0.080738  0  1.036705  0
H  H16  1  0.05432429  0.55684332  0.89487146  1  0  0.062972  0  0.943033  0  0  0.07495  0  1.010237  0  0  0.074556  0  1.011453  0  0  0.102887  0.075187  0  1.009585  0
H  H17  1  0.94569249  0.44318049  0.10512366  1  0  0.063093  0  0.943261  0  0  0.075131  0  1.010392  0  0  0.074733  0  1.011623  0  0  0.102999  0.075358  0  1.009738  0
H  H18  1  0.88292472  0.10055196  0.54157073  1  0  0.087848  0  0.937538  0  0  0.099471  0  0.996169  0  0  0.101787  0  0.993816  0  0  0.119794  0.097654  0  0.998142  0
H  H19  1  0.11708481  0.89945401  0.45843445  1  0  0.087822  0  0.937646  0  0  0.099442  0  0.996291  0  0  0.101758  0  0.993939  0  0  0.119783  0.097624  0  0.998265  0
H  H20  1  0.08315362  0.23273420  0.74160771  1  0  0.118171  0  0.94818  0  0  0.125107  0  1.012184  0  0  0.128517  0  1.011295  0  0  0.111406  0.122349  0  1.013595  0
H  H21  1  0.91688005  0.76729680  0.25839220  1  0  0.118175  0  0.94809  0  0  0.125153  0  1.012038  0  0  0.128555  0  1.01116  0  0  0.111369  0.122449  0  1.013394  0
H  H22  1  0.14359985  0.99230870  0.18315425  1  0  0.121605  0  0.966362  0  0  0.130811  0  1.028171  0  0  0.134383  0  1.026516  0  0  0.111883  0.127997  0  1.030049  0
H  H23  1  0.85646515  0.00773441  0.81685532  1  0  0.121666  0  0.966667  0  0  0.130723  0  1.028556  0  0  0.134369  0  1.026766  0  0  0.111801  0.12791  0  1.030435  0
H  H24  1  0.96079932  0.59308754  0.69801207  1  0  0.115494  0  0.946756  0  0  0.123601  0  1.008419  0  0  0.126508  0  1.008742  0  0  0.108947  0.121322  0  1.008731  0
H  H25  1  0.03921147  0.40692980  0.30199717  1  0  0.115567  0  0.94678  0  0  0.123649  0  1.008503  0  0  0.126523  0  1.008863  0  0  0.108936  0.121369  0  1.008818  0
H  H26  1  0.75975955  0.44634454  0.50315541  1  0  0.089337  0  0.941568  0  0  0.097178  0  1.004955  0  0  0.099986  0  1.00253  0  0  0.117556  0.095091  0  1.006798  0
H  H27  1  0.24024684  0.55366927  0.49685508  1  0  0.089364  0  0.941575  0  0  0.097222  0  1.004946  0  0  0.100031  0  1.00252  0  0  0.11757  0.095132  0  1.006796  0
H  H28  1  0.36974428  0.14111548  0.51308467  1  0  0.424119  0  0.881584  0  0  0.391383  0  0.949037  0  0  0.402902  0  0.932339  0  0  0.282299  0.383069  0  0.961067  0
H  H29  1  0.63027853  0.85892448  0.48692803  1  0  0.424134  0  0.881519  0  0  0.391431  0  0.948949  0  0  0.402956  0  0.932234  0  0  0.282307  0.383115  0  0.96098  0
H  H30  1  0.36359445  0.23843907  0.42662246  1  0  0.407939  0  0.907233  0  0  0.375903  0  0.973758  0  0  0.387777  0  0.956634  0  0  0.278436  0.367399  0  0.985954  0
H  H31  1  0.63639889  0.76155290  0.57338785  1  0  0.407904  0  0.907269  0  0  0.375908  0  0.973753  0  0  0.387787  0  0.95662  0  0  0.278457  0.367409  0  0.985954  0
C  C32  1  0.94572189  0.07533448  0.24199342  1  0  0.134807  0  3.704629  0  0  0.103834  0  3.957326  0  0  0.110538  0  3.975678  0  0  0.044964  0.099418  0  3.945034  0
C  C33  1  0.05426093  0.92465732  0.75798929  1  0  0.134413  0  3.704593  0  0  0.103346  0  3.957264  0  0  0.110066  0  3.975616  0  0  0.04464  0.098937  0  3.944962  0
C  C34  1  0.32594537  0.39702439  0.09473163  1  0  -0.171941  0  3.682378  0  0  -0.209283  0  3.941016  0  0  -0.209952  0  3.956361  0  0  -0.094562  -0.208757  0  3.930855  0
C  C35  1  0.67407760  0.60298694  0.90526958  1  0  -0.171921  0  3.682409  0  0  -0.209195  0  3.941053  0  0  -0.209889  0  3.956437  0  0  -0.09457  -0.208664  0  3.930893  0
C  C36  1  0.42506047  0.68383631  0.20567244  1  0  -0.036288  0  3.780875  0  0  -0.009813  0  4.015088  0  0  -0.015995  0  4.03623  0  0  -0.019052  -0.005821  0  4.000752  0
C  C37  1  0.57494845  0.31617398  0.79432955  1  0  -0.03684  0  3.781147  0  0  -0.010206  0  4.015151  0  0  -0.016329  0  4.036217  0  0  -0.019101  -0.00621  0  4.000804  0
C  C38  1  0.33166631  0.62820568  0.08882036  1  0  -0.197109  0  3.705616  0  0  -0.232098  0  3.958055  0  0  -0.233357  0  3.9741  0  0  -0.103144  -0.231212  0  3.947308  0
C  C39  1  0.66835431  0.37181791  0.91118313  1  0  -0.196927  0  3.705882  0  0  -0.231958  0  3.958252  0  0  -0.233231  0  3.974277  0  0  -0.103082  -0.231036  0  3.94753  0
C  C40  1  0.95843456  0.02443324  0.04592069  1  0  0.093026  0  3.746639  0  0  0.104622  0  3.978023  0  0  0.108103  0  3.999743  0  0  0.013911  0.102341  0  3.963336  0
C  C41  1  0.04151914  0.97552029  0.95407290  1  0  0.093505  0  3.745418  0  0  0.104588  0  3.977118  0  0  0.108063  0  3.998854  0  0  0.013999  0.102312  0  3.962423  0
C  C42  1  0.44511617  0.35690661  0.28053377  1  0  0.639341  0  3.926987  0  0  0.588435  0  4.220118  0  0  0.6223  0  4.213889  0  0  0.204635  0.565661  0  4.22283  0
C  C43  1  0.55484871  0.64307874  0.71944821  1  0  0.639374  0  3.927201  0  0  0.588582  0  4.220182  0  0  0.622446  0  4.213944  0  0  0.204627  0.565809  0  4.222897  0
C  C44  1  0.46561961  0.59619855  0.26692344  1  0  -0.103478  0  3.73019  0  0  -0.143892  0  3.983708  0  0  -0.14308  0  4.002922  0  0  -0.08937  -0.143748  0  3.97063  0
C  C45  1  0.53436575  0.40381636  0.73307873  1  0  -0.103363  0  3.729966  0  0  -0.143774  0  3.98347  0  0  -0.142995  0  4.002661  0  0  -0.089385  -0.14363  0  3.970396  0
C  C46  1  0.41306582  0.45215070  0.21149511  1  0  -0.038879  0  3.773986  0  0  -0.011973  0  4.009746  0  0  -0.017698  0  4.030371  0  0  -0.018512  -0.008332  0  3.995674  0
C  C47  1  0.58692785  0.54786431  0.78849748  1  0  -0.039042  0  3.774016  0  0  -0.012257  0  4.00988  0  0  -0.017985  0  4.030511  0  0  -0.018531  -0.008613  0  3.995813  0
C  C48  1  0.80712614  0.07120788  0.02402721  1  0  -0.161519  0  3.683565  0  0  -0.17966  0  3.929893  0  0  -0.187048  0  3.949776  0  0  -0.083328  -0.174743  0  3.916766  0
C  C49  1  0.19279333  0.92869069  0.97597011  1  0  -0.161754  0  3.682911  0  0  -0.179685  0  3.929386  0  0  -0.187069  0  3.949257  0  0  -0.08344  -0.174764  0  3.916254  0
C  C50  1  0.03894330  0.42424212  0.73643950  1  0  0.132753  0  3.704167  0  0  0.144637  0  3.943703  0  0  0.149428  0  3.964987  0  0  0.015211  0.141561  0  3.929212  0
C  C51  1  0.96108650  0.57578094  0.26356641  1  0  0.13282  0  3.704431  0  0  0.144983  0  3.943665  0  0  0.149778  0  3.964947  0  0  0.015322  0.141897  0  3.929187  0
C  C52  1  0.47362360  0.83677256  0.26367690  1  0  0.641257  0  3.909156  0  0  0.590245  0  4.196071  0  0  0.624389  0  4.190827  0  0  0.198162  0.567058  0  4.198555  0
C  C53  1  0.52637920  0.16322480  0.73632422  1  0  0.641368  0  3.909424  0  0  0.590354  0  4.196278  0  0  0.624481  0  4.191023  0  0  0.198096  0.567167  0  4.198768  0
C  C54  1  0.28328325  0.48504390  0.03335293  1  0  0.266217  0  3.816855  0  0  0.258818  0  4.083439  0  0  0.268564  0  4.098334  0  0  0.080551  0.251993  0  4.073458  0
C  C55  1  0.71674836  0.51498609  0.96666182  1  0  0.266288  0  3.817626  0  0  0.258842  0  4.084246  0  0  0.268546  0  4.099157  0  0  0.080497  0.252003  0  4.074269  0
C  C56  1  0.73316630  0.11665428  0.11227602  1  0  0.120639  0  3.724523  0  0  0.091569  0  3.975889  0  0  0.097941  0  3.994899  0  0  0.038864  0.087294  0  3.963223  0
C  C57  1  0.26678536  0.88327792  0.88772183  1  0  0.120209  0  3.724658  0  0  0.091283  0  3.975792  0  0  0.097656  0  3.994799  0  0  0.038733  0.086966  0  3.963226  0
C  C58  1  0.14759517  0.51029081  0.85701582  1  0  0.034407  0  3.653713  0  0  -0.025827  0  3.909781  0  0  -0.018987  0  3.915047  0  0  -0.059358  -0.03043  0  3.906159  0
C  C59  1  0.85245062  0.48973448  0.14298896  1  0  0.034538  0  3.653084  0  0  -0.025801  0  3.909194  0  0  -0.019003  0  3.91445  0  0  -0.059406  -0.030396  0  3.905556  0
C  C60  1  0.90630616  0.21077946  0.57897406  1  0  0.14138  0  3.695274  0  0  0.111383  0  3.943342  0  0  0.119169  0  3.961934  0  0  0.047644  0.106356  0  3.930509  0
C  C61  1  0.09370880  0.78922925  0.42102661  1  0  0.141526  0  3.695186  0  0  0.111504  0  3.94329  0  0  0.119293  0  3.961876  0  0  0.0477  0.106472  0  3.930473  0
C  C62  1  0.01756292  0.28461135  0.69055246  1  0  -0.143125  0  3.676485  0  0  -0.164827  0  3.928165  0  0  -0.172082  0  3.948251  0  0  -0.078636  -0.160089  0  3.914918  0
C  C63  1  0.98246069  0.71541271  0.30944661  1  0  -0.143269  0  3.676774  0  0  -0.165055  0  3.928408  0  0  -0.172308  0  3.948499  0  0  -0.078721  -0.160367  0  3.915143  0
C  C64  1  0.02707040  0.02682299  0.15845148  1  0  -0.14171  0  3.656737  0  0  -0.160481  0  3.901723  0  0  -0.167165  0  3.921975  0  0  -0.076636  -0.156314  0  3.888934  0
C  C65  1  0.97288263  0.97314552  0.84151782  1  0  -0.141879  0  3.656839  0  0  -0.160253  0  3.901755  0  0  -0.166972  0  3.921982  0  0  -0.076402  -0.156088  0  3.888959  0
C  C66  1  0.95071373  0.48511140  0.66654273  1  0  -0.159082  0  3.697024  0  0  -0.176575  0  3.948295  0  0  -0.185494  0  3.97078  0  0  -0.08266  -0.170729  0  3.933499  0
C  C67  1  0.04929852  0.51490019  0.33345906  1  0  -0.159403  0  3.69717  0  0  -0.176999  0  3.948446  0  0  -0.185896  0  3.970932  0  0  -0.082749  -0.17115  0  3.933649  0
C  C68  1  0.83974741  0.40415467  0.55669761  1  0  0.12787  0  3.725401  0  0  0.094901  0  3.981496  0  0  0.102444  0  4.00025  0  0  0.043837  0.089909  0  3.968796  0
C  C69  1  0.16026398  0.59585240  0.44330879  1  0  0.128107  0  3.725065  0  0  0.09511  0  3.981219  0  0  0.10266  0  3.999957  0  0  0.043972  0.090114  0  3.968513  0
N  N70  1  0.81688794  0.26844390  0.51311924  1  0  -0.362476  0  3.286035  0  0  -0.281002  0  3.554938  0  0  -0.303151  0  3.574432  0  0  -0.339193  -0.26559  0  3.540815  0
N  N71  1  0.18312607  0.73156311  0.48689142  1  0  -0.362549  0  3.285737  0  0  -0.281071  0  3.554678  0  0  -0.303221  0  3.574168  0  0  -0.339221  -0.265654  0  3.540549  0
N  N72  1  0.80071259  0.11972400  0.22009021  1  0  -0.346146  0  3.255555  0  0  -0.271184  0  3.520156  0  0  -0.290359  0  3.538868  0  0  -0.331192  -0.257906  0  3.507086  0
N  N73  1  0.19930234  0.88026469  0.77991277  1  0  -0.345797  0  3.254813  0  0  -0.270875  0  3.519368  0  0  -0.290056  0  3.538082  0  0  -0.330977  -0.257585  0  3.506279  0
O  O74  1  0.59640213  0.89901485  0.36204861  1  0  -0.666059  0  1.983126  0  0  -0.597898  0  2.21702  0  0  -0.626752  0  2.206998  0  0  -0.327523  -0.57698  0  2.222874  0
O  O75  1  0.40359034  0.10099220  0.63795347  1  0  -0.666101  0  1.983157  0  0  -0.597932  0  2.21703  0  0  -0.626788  0  2.207024  0  0  -0.327491  -0.577018  0  2.222885  0
O  O76  1  0.42020690  0.38032552  0.37932629  1  0  -0.61266  0  1.950539  0  0  -0.557829  0  2.167666  0  0  -0.58226  0  2.158322  0  0  -0.314964  -0.539889  0  2.173074  0
O  O77  1  0.57973737  0.61963341  0.62065301  1  0  -0.612639  0  1.950505  0  0  -0.557827  0  2.167555  0  0  -0.582263  0  2.158211  0  0  -0.314927  -0.539879  0  2.172969  0
O  O78  1  0.19171363  0.42128696  0.91994004  1  0  -0.277304  0  2.321283  0  0  -0.205349  0  2.552835  0  0  -0.223704  0  2.557148  0  0  -0.175963  -0.192392  0  2.549827  0
O  O79  1  0.80828874  0.57872348  0.08005169  1  0  -0.277471  0  2.32159  0  0  -0.205495  0  2.553218  0  0  -0.223747  0  2.557473  0  0  -0.175992  -0.192524  0  2.550206  0
O  O80  1  0.49501695  0.25883759  0.23333525  1  0  -0.660412  0  2.017854  0  0  -0.591025  0  2.274378  0  0  -0.620909  0  2.264397  0  0  -0.337308  -0.569008  0  2.280347  0
O  O81  1  0.50495057  0.74114439  0.76663586  1  0  -0.660481  0  2.018316  0  0  -0.591115  0  2.274792  0  0  -0.620995  0  2.2648  0  0  -0.337366  -0.569093  0  2.28076  0
O  O82  1  0.33682343  0.13869494  0.43174930  1  0  -0.850574  0  1.859815  0  0  -0.787798  0  2.052049  0  0  -0.811853  0  2.017435  0  0  -0.593862  -0.770983  0  2.076921  0
O  O83  1  0.66318811  0.86129828  0.56826150  1  0  -0.850575  0  1.859772  0  0  -0.787895  0  2.05183  0  0  -0.811954  0  2.017217  0  0  -0.593903  -0.771109  0  2.076697  0
O  O84  1  0.39343121  0.90279091  0.21175814  1  0  -0.632253  0  1.999569  0  0  -0.566038  0  2.239953  0  0  -0.59486  0  2.231749  0  0  -0.32327  -0.545015  0  2.245226  0
O  O85  1  0.60655948  0.09722105  0.78824717  1  0  -0.632121  0  1.999974  0  0  -0.56601  0  2.240436  0  0  -0.594837  0  2.232238  0  0  -0.323228  -0.544985  0  2.245702  0
