# generated using pymatgen
data_ZnH28C29NO4
_symmetry_space_group_name_H-M   'P 1'
_cell_length_a   11.82047770
_cell_length_b   14.34392445
_cell_length_c   14.80916554
_cell_angle_alpha   89.99286144
_cell_angle_beta   87.91870614
_cell_angle_gamma   90.00125198
_symmetry_Int_Tables_number   1
_chemical_formula_structural   ZnH28C29NO4
_chemical_formula_sum   'Zn2 H56 C58 N2 O8'
_cell_volume   2509.26774704
_cell_formula_units_Z   2
loop_
 _symmetry_equiv_pos_site_id
 _symmetry_equiv_pos_as_xyz
  1  'x, y, z'
loop_
 _atom_site_type_symbol
 _atom_site_label
 _atom_site_symmetry_multiplicity
 _atom_site_fract_x
 _atom_site_fract_y
 _atom_site_fract_z
 _atom_site_occupancy
 _atom_site_pbe_bader_charge
 _atom_site_pbe_bader_spin_density
 _atom_site_pbe_cm5_charge
 _atom_site_pbe_ddec_charge
 _atom_site_pbe_ddec_spin_density
 _atom_site_pbe_ddec_sum_bond_order
 _atom_site_pbe_magmom
Zn  Zn0  1  0.49992585  0.39425092  0.50000746  1  1.339952  0  0.698736  0.896738  0  2.341626  0
Zn  Zn1  1  0.49985969  0.61467944  0.49996457  1  1.284297  0  0.685443  0.884347  0  2.197659  0
H  H2  1  0.23124093  0.60502828  0.83865647  1  0.025139  0  0.082382  0.107933  0  1.006653  0
H  H3  1  0.30412891  0.61837712  0.73247927  1  0.023102  0  0.083169  0.11582  0  1.054761  0
H  H4  1  0.15986268  0.58457864  0.73634137  1  0.039963  0  0.084387  0.111836  0  1.001921  0
H  H5  1  0.28277914  0.44689955  0.70238107  1  0.054342  0  0.091307  0.094524  0  1.002353  0
H  H6  1  0.20687635  0.43473194  0.80556496  1  0.0054  0  0.090048  0.088852  0  1.038901  0
H  H7  1  0.76862368  0.60503599  0.16152662  1  0.026512  0  0.082354  0.108081  0  1.006508  0
H  H8  1  0.69586781  0.61818966  0.26777966  1  0.02433  0  0.083314  0.115906  0  1.054548  0
H  H9  1  0.84014859  0.58442995  0.26375097  1  0.039942  0  0.084291  0.111741  0  1.001815  0
H  H10  1  0.71724329  0.44667745  0.29757897  1  0.054688  0  0.091397  0.094644  0  1.002364  0
H  H11  1  0.79310943  0.43468850  0.19434918  1  0.004097  0  0.090025  0.088781  0  1.038938  0
H  H12  1  0.76226564  0.53878463  0.80247253  1  -0.004168  0  0.091498  0.127064  0  1.004135  0
H  H13  1  0.73891958  0.45597373  0.71550124  1  0.050655  0  0.091558  0.132136  0  1.000627  0
H  H14  1  0.67529825  0.56724666  0.71189635  1  0.089592  0  0.0921  0.139279  0  1.01878  0
H  H15  1  0.32470325  0.56724906  0.28805777  1  0.043619  0  0.092147  0.139392  0  1.018722  0
H  H16  1  0.23774004  0.53879571  0.19747442  1  -0.004577  0  0.091526  0.127166  0  1.004195  0
H  H17  1  0.26105774  0.45598039  0.28446163  1  0.051153  0  0.091534  0.132243  0  1.000709  0
H  H18  1  0.72713183  0.22557316  0.87136444  1  0.014086  0  0.080421  0.103582  0  1.012559  0
H  H19  1  0.69166797  0.30067439  0.78158731  1  0.044168  0  0.085662  0.116447  0  1.016127  0
H  H20  1  0.83044995  0.25330726  0.78495269  1  0.012056  0  0.083967  0.110303  0  1.004109  0
H  H21  1  0.83357770  0.41847003  0.83547735  1  0.05073  0  0.091694  0.086151  0  1.021282  0
H  H22  1  0.86822143  0.34505467  0.92375726  1  0.011882  0  0.087894  0.080195  0  1.014987  0
H  H23  1  0.27277876  0.22557192  0.12860522  1  0.013638  0  0.080403  0.103532  0  1.012593  0
H  H24  1  0.30828548  0.30064925  0.21838323  1  0.044988  0  0.085647  0.116419  0  1.016125  0
H  H25  1  0.16949539  0.25332193  0.21503059  1  0.011985  0  0.084029  0.110476  0  1.004451  0
H  H26  1  0.16643507  0.41849624  0.16452854  1  0.050813  0  0.091894  0.086494  0  1.020992  0
H  H27  1  0.13172810  0.34513098  0.07625091  1  0.011275  0  0.087739  0.080082  0  1.015118  0
H  H28  1  0.80895413  0.27259807  0.03388832  1  0.003967  0  0.090332  0.123122  0  1.007435  0
H  H29  1  0.87563425  0.36906598  0.08368161  1  0.047082  0  0.090509  0.121766  0  1.001939  0
H  H30  1  0.76373086  0.30969615  0.14269876  1  0.03635  0  0.091684  0.126548  0  1.011445  0
H  H31  1  0.19090926  0.27274159  0.96612469  1  0.004114  0  0.090368  0.122981  0  1.007855  0
H  H32  1  0.12432761  0.36925225  0.91627876  1  0.045879  0  0.090552  0.121858  0  1.001444  0
H  H33  1  0.23620439  0.30979128  0.85730634  1  0.037181  0  0.091624  0.126466  0  1.01126  0
H  H34  1  0.31168644  0.29855831  0.58529177  1  0.101202  0  0.103468  0.160612  0  0.999187  0
H  H35  1  0.30466025  0.20363907  0.66306838  1  0.04554  0  0.096392  0.141058  0  0.995439  0
H  H36  1  0.40037707  0.29866359  0.67789206  1  0.093846  0  0.10181  0.156229  0  1.024665  0
H  H37  1  0.67998019  0.70974236  0.40771352  1  0.112355  0  0.103747  0.163208  0  1.008436  0
H  H38  1  0.58420265  0.71437427  0.31968278  1  0.109737  0  0.101333  0.153978  0  1.033762  0
H  H39  1  0.68691347  0.80489719  0.33034780  1  0.018432  0  0.097947  0.145455  0  0.992881  0
H  H40  1  0.68850606  0.29862072  0.41477541  1  0.098135  0  0.103459  0.160911  0  0.998791  0
H  H41  1  0.69554588  0.20373347  0.33697899  1  0.036867  0  0.096447  0.141397  0  0.995296  0
H  H42  1  0.59982214  0.29873783  0.32218508  1  0.093909  0  0.102052  0.156643  0  1.024801  0
H  H43  1  0.31994982  0.70975835  0.59224055  1  0.112323  0  0.103825  0.163294  0  1.008166  0
H  H44  1  0.41568905  0.71439238  0.68028898  1  0.110269  0  0.101476  0.154114  0  1.033835  0
H  H45  1  0.31300665  0.80492453  0.66956386  1  0.016256  0  0.097943  0.145393  0  0.993091  0
H  H46  1  0.48026621  0.07714843  0.20348669  1  0.043432  0  0.094208  0.125839  0  1.007377  0
H  H47  1  0.51987752  0.18091579  0.25749192  1  0.058103  0  0.097333  0.137396  0  1.014809  0
H  H48  1  0.62482189  0.10555333  0.20944515  1  0.010751  0  0.095099  0.128575  0  0.987962  0
H  H49  1  0.51808333  0.94132719  0.79832860  1  0.041394  0  0.094098  0.125566  0  1.009828  0
H  H50  1  0.37631028  0.90559830  0.78978096  1  0.028098  0  0.096009  0.129439  0  0.98601  0
H  H51  1  0.48779896  0.83484391  0.74472768  1  0.030059  0  0.098454  0.140514  0  1.006628  0
H  H52  1  0.51988624  0.07704095  0.79661937  1  0.04255  0  0.094417  0.126374  0  1.007089  0
H  H53  1  0.48028334  0.18081860  0.74258512  1  0.059226  0  0.097226  0.137634  0  1.014582  0
H  H54  1  0.37532697  0.10541411  0.79056339  1  0.012682  0  0.095084  0.128742  0  0.987906  0
H  H55  1  0.48193730  0.94147977  0.20172676  1  0.041352  0  0.094008  0.125629  0  1.009768  0
H  H56  1  0.62370845  0.90568292  0.21017987  1  0.026354  0  0.096209  0.129936  0  0.98598  0
H  H57  1  0.51221369  0.83497532  0.25529195  1  0.030019  0  0.098335  0.140268  0  1.006632  0
C  C58  1  0.51273136  0.50545241  0.32682644  1  1.574091  0  0.227802  0.627461  0  4.139243  0
C  C59  1  0.48718787  0.50548507  0.67314756  1  1.574095  0  0.228189  0.627897  0  4.138578  0
C  C60  1  0.28261463  0.50129665  0.49255999  1  1.688853  0  0.223516  0.654885  0  4.26778  0
C  C61  1  0.71713612  0.50145758  0.50729352  1  1.68257  0  0.223225  0.654579  0  4.269278  0
C  C62  1  0.16044784  0.50438495  0.49478928  1  0.100648  0  -0.016977  -0.148945  0  3.88403  0
C  C63  1  0.83929813  0.50451965  0.50484613  1  0.096084  0  -0.017487  -0.1495  0  3.884926  0
C  C64  1  0.05691417  0.50478192  0.49804985  1  -0.328692  0  -0.024626  0.009512  0  4.277154  0
C  C65  1  0.94283795  0.50482193  0.50154622  1  -0.149309  0  -0.024341  0.009221  0  4.277472  0
C  C66  1  0.38627716  0.45818162  0.81854509  1  0.022594  0  -0.010797  0.051379  0  3.909114  0
C  C67  1  0.61370421  0.45813462  0.18143989  1  0.023816  0  -0.010631  0.05052  0  3.91027  0
C  C68  1  0.48852298  0.48429174  0.77296545  1  -0.046975  0  -0.021813  -0.151271  0  3.921992  0
C  C69  1  0.51145775  0.48426892  0.22700912  1  -0.049365  0  -0.02165  -0.150561  0  3.922201  0
C  C70  1  0.59565737  0.47685534  0.81100807  1  -0.005231  0  -0.009097  0.102263  0  3.931426  0
C  C71  1  0.40432951  0.47684886  0.18896122  1  -0.0039  0  -0.009173  0.102153  0  3.931404  0
C  C72  1  0.60136552  0.44145242  0.89993741  1  -0.052465  0  -0.011344  -0.028586  0  3.968567  0
C  C73  1  0.39862310  0.44145804  0.10004056  1  -0.05327  0  -0.011328  -0.028828  0  3.968737  0
C  C74  1  0.49790782  0.43109389  0.95183353  1  0.033815  0  -0.007588  -0.008254  0  4.012239  0
C  C75  1  0.50208106  0.43109630  0.04814752  1  -0.053674  0  -0.007497  -0.007528  0  4.011727  0
C  C76  1  0.39100792  0.43006511  0.90994219  1  -0.02627  0  -0.012959  -0.035216  0  3.984911  0
C  C77  1  0.60897758  0.43004126  0.09004169  1  -0.027251  0  -0.013338  -0.035467  0  3.985697  0
C  C78  1  0.70317986  0.40662618  0.94151475  1  -0.017178  0  -0.019098  0.000201  0  3.893903  0
C  C79  1  0.29679947  0.40665549  0.05847150  1  -0.016538  0  -0.019264  0.000173  0  3.893994  0
C  C80  1  0.70429065  0.39565215  0.03401303  1  0.00687  0  -0.017462  0.057006  0  3.919103  0
C  C81  1  0.29568221  0.39571223  0.96597243  1  0.008343  0  -0.017549  0.05725  0  3.919146  0
C  C82  1  0.44673525  0.20168790  0.56939292  1  0.474245  0  0.129181  0.290645  0  3.892557  0
C  C83  1  0.55039613  0.81063907  0.42949504  1  0.498418  0  0.129215  0.295771  0  3.89895  0
C  C84  1  0.55350301  0.20171083  0.43066992  1  0.471433  0  0.129586  0.291181  0  3.892272  0
C  C85  1  0.44957862  0.81063697  0.57045757  1  0.500771  0  0.129245  0.294185  0  3.900691  0
C  C86  1  0.53451256  0.10482442  0.42038962  1  0.035398  0  -0.008347  -0.082348  0  3.979651  0
C  C87  1  0.46714678  0.90782668  0.58004802  1  -0.027164  0  -0.008264  -0.083872  0  3.975574  0
C  C88  1  0.46576296  0.10480377  0.57967516  1  0.036332  0  -0.008205  -0.082342  0  3.978859  0
C  C89  1  0.53296307  0.90784803  0.41995431  1  -0.028223  0  -0.008414  -0.084895  0  3.974952  0
C  C90  1  0.50013166  0.05576476  0.50002804  1  -0.022202  0  0.002662  0.024141  0  4.025997  0
C  C91  1  0.50006905  0.95690587  0.50000700  1  -0.003461  0  0.003591  0.024575  0  4.029429  0
C  C92  1  0.54554727  0.05494663  0.33569046  1  0.021657  0  -0.009349  0.067424  0  3.919469  0
C  C93  1  0.45575487  0.95826987  0.66459890  1  -0.01154  0  -0.007612  0.069723  0  3.917572  0
C  C94  1  0.45469579  0.05487972  0.66436144  1  0.023627  0  -0.009362  0.067946  0  3.919231  0
C  C95  1  0.54440686  0.95833956  0.33542120  1  -0.010425  0  -0.007952  0.070614  0  3.916761  0
C  C96  1  0.27563220  0.47348700  0.77195202  1  -0.010965  0  -0.170461  -0.156082  0  3.973306  0
C  C97  1  0.24077950  0.57660031  0.76989329  1  -0.073548  0  -0.247373  -0.347495  0  3.948244  0
C  C98  1  0.72436141  0.47337597  0.22804086  1  -0.010191  0  -0.170647  -0.156117  0  3.974049  0
C  C99  1  0.75918257  0.57649282  0.23025394  1  -0.076036  0  -0.247235  -0.347398  0  3.947614  0
C  C100  1  0.69880715  0.51094881  0.75753988  1  -0.071346  0  -0.244965  -0.414523  0  3.965073  0
C  C101  1  0.30118819  0.51095638  0.24242051  1  -0.025294  0  -0.244983  -0.414834  0  3.965276  0
C  C102  1  0.79786417  0.36584659  0.88191515  1  -0.023942  0  -0.166212  -0.143038  0  3.990374  0
C  C103  1  0.75967636  0.28149528  0.82670524  1  -0.071825  0  -0.244465  -0.349541  0  3.965239  0
C  C104  1  0.20210265  0.36587861  0.11808169  1  -0.023078  0  -0.166217  -0.143145  0  3.98999  0
C  C105  1  0.24027167  0.28149576  0.17326681  1  -0.072282  0  -0.244466  -0.34971  0  3.965722  0
C  C106  1  0.79319948  0.33466602  0.07598365  1  -0.053208  0  -0.238222  -0.400878  0  4.003943  0
C  C107  1  0.20672759  0.33479588  0.92400453  1  -0.05526  0  -0.23821  -0.401012  0  4.003933  0
C  C108  1  0.36178677  0.25297962  0.62816737  1  -0.094626  0  -0.242963  -0.471251  0  3.943135  0
C  C109  1  0.62950071  0.75768061  0.36764714  1  -0.094446  0  -0.245536  -0.484348  0  3.960791  0
C  C110  1  0.63842047  0.25304932  0.37190111  1  -0.081343  0  -0.243364  -0.472697  0  3.943587  0
C  C111  1  0.37042383  0.75769623  0.63230126  1  -0.094549  0  -0.245766  -0.484109  0  3.961459  0
C  C112  1  0.54318670  0.10780781  0.24761248  1  -0.059743  0  -0.23491  -0.400868  0  3.976281  0
C  C113  1  0.45915530  0.90682528  0.75333654  1  -0.042541  0  -0.235492  -0.40044  0  3.97946  0
C  C114  1  0.45700158  0.10769952  0.75244967  1  -0.061602  0  -0.235085  -0.402036  0  3.976505  0
C  C115  1  0.54090289  0.90694759  0.24667592  1  -0.039056  0  -0.235462  -0.401264  0  3.979307  0
N  N116  1  0.50009444  0.24800643  0.50002275  1  -1.277657  0  -0.313534  -0.329986  0  3.406323  0
N  N117  1  0.49993982  0.76402630  0.49996317  1  -1.193532  0  -0.309663  -0.330155  0  3.381714  0
O  O118  1  0.53176991  0.43287150  0.37332644  1  -1.177883  0  -0.31404  -0.564727  0  2.452035  0
O  O119  1  0.50654300  0.58635324  0.64159573  1  -1.175555  0  -0.30281  -0.545754  0  2.310993  0
O  O120  1  0.46807580  0.43291673  0.62666898  1  -1.178602  0  -0.314347  -0.565072  0  2.452009  0
O  O121  1  0.49334625  0.58631195  0.35836121  1  -1.175186  0  -0.302738  -0.545786  0  2.311999  0
O  O122  1  0.32709509  0.42213017  0.47692594  1  -1.142356  0  -0.304072  -0.541792  0  2.2626  0
O  O123  1  0.66786735  0.57886828  0.49279719  1  -1.151308  0  -0.304505  -0.543779  0  2.318401  0
O  O124  1  0.67268753  0.42230057  0.52304986  1  -1.142723  0  -0.303961  -0.541667  0  2.263557  0
O  O125  1  0.33187340  0.57870341  0.50711248  1  -1.151969  0  -0.305001  -0.544698  0  2.317445  0
