# generated using pymatgen
data_Zn4H32(C12O5)3
_symmetry_space_group_name_H-M   'P 1'
_cell_length_a   17.79969331
_cell_length_b   18.69838965
_cell_length_c   23.39087737
_cell_angle_alpha   66.43464079
_cell_angle_beta   69.66005728
_cell_angle_gamma   89.93579762
_symmetry_Int_Tables_number   1
_chemical_formula_structural   Zn4H32(C12O5)3
_chemical_formula_sum   'Zn8 H64 C72 O30'
_cell_volume   6604.28264910
_cell_formula_units_Z   2
loop_
 _symmetry_equiv_pos_site_id
 _symmetry_equiv_pos_as_xyz
  1  'x, y, z'
loop_
 _atom_site_type_symbol
 _atom_site_label
 _atom_site_symmetry_multiplicity
 _atom_site_fract_x
 _atom_site_fract_y
 _atom_site_fract_z
 _atom_site_occupancy
 _atom_site_pbe_bader_charge
 _atom_site_pbe_bader_spin_density
 _atom_site_pbe_cm5_charge
 _atom_site_pbe_ddec_charge
 _atom_site_pbe_ddec_spin_density
 _atom_site_pbe_ddec_sum_bond_order
 _atom_site_pbe_magmom
Zn  Zn0  1  0.11773652  0.53005626  0.94408838  1  1.306667  0  0.668226  0.952603  0  2.385051  0
Zn  Zn1  1  0.97166558  0.55957587  0.05157295  1  1.310604  0  0.671421  0.956634  0  2.402607  0
Zn  Zn2  1  0.97662422  0.38968738  0.04880889  1  1.307135  0  0.667372  0.94748  0  2.416257  0
Zn  Zn3  1  0.93819470  0.53114366  0.93441450  1  1.324769  0  0.673724  0.970934  0  2.329498  0
Zn  Zn4  1  0.38535332  0.97762836  0.04736616  1  1.310073  0  0.668059  0.950525  0  2.39409  0
Zn  Zn5  1  0.52879798  0.11535280  0.93890006  1  1.305746  0  0.667553  0.946809  0  2.416684  0
Zn  Zn6  1  0.52438087  0.94624642  0.93658901  1  1.307894  0  0.671982  0.957858  0  2.399443  0
Zn  Zn7  1  0.56781935  0.97254017  0.05122148  1  1.315264  0  0.674498  0.97218  0  2.32707  0
H  H8  1  0.49436946  0.86883729  0.26163838  1  0.122912  0  0.109194  0.114852  0  0.987556  0
H  H9  1  0.43392905  0.80586774  0.38768715  1  0.060718  0  0.105598  0.113982  0  0.994557  0
H  H10  1  0.19414969  0.80948968  0.38080769  1  0.060859  0  0.114017  0.136649  0  0.976524  0
H  H11  1  0.31978625  0.69465166  0.61022677  1  0.112002  0  0.11404  0.13686  0  0.976437  0
H  H12  1  0.01904790  0.63727898  0.72529917  1  0.067261  0  0.109101  0.114845  0  0.988351  0
H  H13  1  0.08201568  0.70014797  0.59933612  1  0.058437  0  0.105205  0.113152  0  0.995365  0
H  H14  1  0.62881870  0.02294540  0.73036651  1  0.100937  0  0.109449  0.115073  0  0.988555  0
H  H15  1  0.69911944  0.08358884  0.60465698  1  0.063228  0  0.105482  0.113673  0  0.994225  0
H  H16  1  0.70085816  0.31541541  0.60358342  1  0.116428  0  0.114631  0.13765  0  0.975866  0
H  H17  1  0.81032242  0.19011334  0.38586284  1  0.088009  0  0.114635  0.13761  0  0.975568  0
H  H18  1  0.86865502  0.48279705  0.25725226  1  0.077698  0  0.109656  0.115565  0  0.988524  0
H  H19  1  0.80960729  0.42260680  0.38347415  1  0.068362  0  0.105711  0.113892  0  0.993088  0
H  H20  1  0.19740818  0.30160358  0.91098181  1  0.033549  0  0.093016  0.088719  0  0.976167  0
H  H21  1  0.12542384  0.22983391  0.98756275  1  0.045639  0  0.093468  0.092017  0  0.982264  0
H  H22  1  0.21413821  0.13813494  0.98500068  1  0.03019  0  0.093546  0.092292  0  0.981835  0
H  H23  1  0.28581674  0.21040501  0.90854257  1  0.039738  0  0.093262  0.088899  0  0.976273  0
H  H24  1  0.21416251  0.12341475  0.09602345  1  0.05883  0  0.094046  0.095775  0  0.984686  0
H  H25  1  0.28620912  0.18383389  0.10025106  1  0.012013  0  0.090236  0.084759  0  0.977712  0
H  H26  1  0.12617032  0.21600506  0.09898248  1  0.061642  0  0.094063  0.0969  0  0.984813  0
H  H27  1  0.19940543  0.27661944  0.10179622  1  0.028183  0  0.090632  0.085415  0  0.97802  0
H  H28  1  0.30219935  0.39076093  0.91418672  1  0.041188  0  0.091387  0.092301  0  0.983804  0
H  H29  1  0.30296891  0.38125518  0.99185991  1  0.012175  0  0.089902  0.086676  0  0.980893  0
H  H30  1  0.39113249  0.28902574  0.99037542  1  0.022372  0  0.089661  0.086236  0  0.980548  0
H  H31  1  0.39093051  0.29921128  0.91242852  1  0.037495  0  0.091803  0.092033  0  0.983204  0
H  H32  1  0.89114412  0.80052865  0.90449290  1  0.022894  0  0.092135  0.086526  0  0.977957  0
H  H33  1  0.88827016  0.78748861  0.98453961  1  0.028956  0  0.092513  0.090979  0  0.984289  0
H  H34  1  0.79998303  0.87982231  0.98578003  1  0.043319  0  0.093109  0.091785  0  0.98298  0
H  H35  1  0.80295435  0.89203910  0.90588202  1  0.033721  0  0.09194  0.087698  0  0.977503  0
H  H36  1  0.69637560  0.77696138  0.09160686  1  0.040009  0  0.093202  0.094718  0  0.985203  0
H  H37  1  0.62376685  0.71590775  0.08853367  1  0.019754  0  0.090509  0.085751  0  0.979348  0
H  H38  1  0.78333731  0.68327317  0.09064052  1  0.042193  0  0.093096  0.09438  0  0.988268  0
H  H39  1  0.71099500  0.62364670  0.08591618  1  0.019889  0  0.090195  0.08449  0  0.977711  0
H  H40  1  0.78893063  0.71336281  0.89701979  1  0.04394  0  0.090713  0.089787  0  0.982902  0
H  H41  1  0.71573690  0.64070795  0.97085133  1  0.020985  0  0.090168  0.087359  0  0.98129  0
H  H42  1  0.62690420  0.73224731  0.97321072  1  0.041042  0  0.089756  0.086064  0  0.981762  0
H  H43  1  0.69973764  0.80469270  0.89911832  1  0.030704  0  0.091132  0.09079  0  0.984257  0
H  H44  1  0.16180252  0.79285446  0.93734838  1  0.009131  0  0.091629  0.086122  0  0.978944  0
H  H45  1  0.24586475  0.75678021  0.89629380  1  0.029204  0  0.094716  0.094524  0  0.981478  0
H  H46  1  0.33336805  0.85248349  0.89306041  1  0.033606  0  0.094672  0.094539  0  0.979889  0
H  H47  1  0.24879592  0.88710269  0.93525182  1  0.021186  0  0.092187  0.087346  0  0.977546  0
H  H48  1  0.39401950  0.74358906  0.96022021  1  0.049941  0  0.093324  0.095167  0  0.986464  0
H  H49  1  0.35334563  0.70266078  0.04916343  1  0.039609  0  0.089833  0.084126  0  0.979083  0
H  H50  1  0.30523203  0.64794448  0.96415823  1  0.013401  0  0.093361  0.095217  0  0.985911  0
H  H51  1  0.26455052  0.60819928  0.05311160  1  -0.008443  0  0.089854  0.084296  0  0.979556  0
H  H52  1  0.10193584  0.73509076  0.06549238  1  0.036468  0  0.091346  0.090847  0  0.984677  0
H  H53  1  0.14328627  0.65939914  0.11291838  1  0.035153  0  0.091071  0.088424  0  0.978288  0
H  H54  1  0.23229751  0.75374499  0.10981073  1  0.027203  0  0.09074  0.088152  0  0.979199  0
H  H55  1  0.19042441  0.82930514  0.06282438  1  0.022765  0  0.091225  0.090797  0  0.984573  0
H  H56  1  0.89944628  0.26763431  0.92885820  1  0.009697  0  0.091712  0.086988  0  0.979859  0
H  H57  1  0.85499956  0.34317348  0.88332738  1  0.03908  0  0.094403  0.093104  0  0.978357  0
H  H58  1  0.76887643  0.24713020  0.88561400  1  0.04558  0  0.094754  0.094854  0  0.979668  0
H  H59  1  0.81237822  0.17206716  0.93263782  1  0.025432  0  0.09188  0.086545  0  0.979599  0
H  H60  1  0.64915539  0.29756830  0.94547164  1  0.04496  0  0.093376  0.095344  0  0.98455  0
H  H61  1  0.60653470  0.25691657  0.03437641  1  0.030264  0  0.08947  0.083759  0  0.980262  0
H  H62  1  0.73614518  0.39220819  0.94443381  1  0.045905  0  0.09338  0.09489  0  0.985247  0
H  H63  1  0.69382800  0.35018983  0.03335890  1  0.012477  0  0.089817  0.08491  0  0.97917  0
H  H64  1  0.83998960  0.20603813  0.05670444  1  0.037871  0  0.091114  0.091432  0  0.987632  0
H  H65  1  0.75717163  0.23988363  0.10029935  1  0.03696  0  0.090706  0.087876  0  0.977811  0
H  H66  1  0.66758337  0.14706157  0.10231442  1  0.037168  0  0.090863  0.088619  0  0.978098  0
H  H67  1  0.75066516  0.11172837  0.06057718  1  0.032283  0  0.090764  0.090141  0  0.984249  0
H  H68  1  0.27708035  0.89971284  0.20323810  1  0.646458  0  0.306086  0.359593  0  0.962696  0
H  H69  1  0.23306250  0.60593579  0.78791169  1  0.619868  0  0.306795  0.360377  0  0.960239  0
H  H70  1  0.60059372  0.23202506  0.78062505  1  0.666021  0  0.307362  0.360541  0  0.958372  0
H  H71  1  0.89453394  0.27308290  0.20790246  1  0.635964  0  0.307401  0.360911  0  0.957197  0
C  C72  1  0.14135623  0.63487367  0.00403643  1  1.536942  0  0.235253  0.602766  0  4.096923  0
C  C73  1  0.90760528  0.40968699  0.17677085  1  1.448128  0  0.222707  0.612921  0  4.161456  0
C  C74  1  0.14443590  0.36351977  0.00137669  1  1.541979  0  0.235032  0.604041  0  4.096772  0
C  C75  1  0.86128555  0.36638106  0.98908848  1  1.546669  0  0.237267  0.607763  0  4.090083  0
C  C76  1  0.09298172  0.59357472  0.81267766  1  1.47472  0  0.223287  0.616685  0  4.152915  0
C  C77  1  0.86085037  0.64355388  0.98902358  1  1.54763  0  0.234979  0.603666  0  4.096515  0
C  C78  1  0.35984163  0.14181916  0.99680870  1  1.542481  0  0.235481  0.604135  0  4.095806  0
C  C79  1  0.58382686  0.09557415  0.81106959  1  1.458108  0  0.222217  0.612356  0  4.161529  0
C  C80  1  0.35629448  0.86304197  0.99716351  1  1.5545  0  0.235519  0.603512  0  4.097874  0
C  C81  1  0.64520063  0.86619095  0.99178223  1  1.540386  0  0.236951  0.607058  0  4.090976  0
C  C82  1  0.41740819  0.91185758  0.17614532  1  1.507838  0  0.223513  0.615019  0  4.154481  0
C  C83  1  0.64708317  0.13960241  0.99278583  1  1.551371  0  0.236868  0.606046  0  4.091032  0
C  C84  1  0.37958395  0.87479189  0.25037621  1  -0.011652  0  -0.041205  -0.204022  0  3.988272  0
C  C85  1  0.42874859  0.85533642  0.28877242  1  -0.034058  0  -0.083445  -0.060234  0  4.02566  0
C  C86  1  0.39550995  0.82048446  0.35843195  1  0.001767  0  -0.098978  -0.168703  0  3.979939  0
C  C87  1  0.30985612  0.80340977  0.39255950  1  0.13736  0  0.006912  0.171798  0  4.134952  0
C  C88  1  0.25995058  0.82224871  0.35529787  1  0.005555  0  -0.094582  -0.248837  0  3.884293  0
C  C89  1  0.29357354  0.85785867  0.28474995  1  0.540703  0  0.094729  0.325174  0  4.065888  0
C  C90  1  0.27415869  0.76765368  0.46383224  1  -0.31506  0  -0.038542  -0.099512  0  4.095563  0
C  C91  1  0.24204726  0.73693234  0.52526084  1  -0.063844  0  -0.038215  -0.099213  0  4.093255  0
C  C92  1  0.20528239  0.70145719  0.59650060  1  0.063  0  0.007113  0.171807  0  4.129094  0
C  C93  1  0.25388338  0.68235337  0.63487280  1  0.012532  0  -0.094661  -0.249415  0  3.880038  0
C  C94  1  0.21878871  0.64719367  0.70540280  1  0.514924  0  0.095355  0.326574  0  4.063849  0
C  C95  1  0.13264080  0.63063593  0.73855593  1  -0.015884  0  -0.04316  -0.207402  0  3.989529  0
C  C96  1  0.08479854  0.65037690  0.69903635  1  0.074931  0  -0.08202  -0.058271  0  4.025439  0
C  C97  1  0.11943722  0.68508722  0.62944321  1  -0.06784  0  -0.098235  -0.167156  0  3.979336  0
C  C98  1  0.62498177  0.13395940  0.73729979  1  0.013783  0  -0.042339  -0.204001  0  3.996431  0
C  C99  1  0.64513653  0.08681624  0.70150052  1  0.111725  0  -0.081798  -0.057852  0  4.026135  0
C  C100  1  0.68399502  0.12007143  0.63225346  1  -0.106338  0  -0.098056  -0.167554  0  3.981911  0
C  C101  1  0.70420569  0.20349043  0.59620144  1  0.058489  0  0.007079  0.172514  0  4.139139  0
C  C102  1  0.68538722  0.25137244  0.63090135  1  -0.057214  0  -0.094093  -0.249669  0  3.882837  0
C  C103  1  0.64575470  0.21765239  0.70110023  1  0.554377  0  0.094909  0.324359  0  4.070657  0
C  C104  1  0.74197700  0.23833102  0.52519211  1  0.103538  0  -0.038221  -0.099721  0  4.104183  0
C  C105  1  0.77250357  0.26779725  0.46375648  1  -0.498352  0  -0.038012  -0.098968  0  4.10344  0
C  C106  1  0.80631597  0.30240738  0.39259146  1  0.153303  0  0.007104  0.173333  0  4.137899  0
C  C107  1  0.82294037  0.25422526  0.35812829  1  0.104855  0  -0.095242  -0.251991  0  3.883375  0
C  C108  1  0.85596489  0.28771831  0.28760474  1  0.487088  0  0.096429  0.327089  0  4.067944  0
C  C109  1  0.87247526  0.37147085  0.25088141  1  0.049708  0  -0.042469  -0.204424  0  3.994031  0
C  C110  1  0.85525899  0.41888502  0.28651983  1  -0.113238  0  -0.082668  -0.05859  0  4.026686  0
C  C111  1  0.82282440  0.38587170  0.35606349  1  0.064034  0  -0.097723  -0.167816  0  3.982349  0
C  C112  1  0.18890071  0.25936737  0.96248416  1  -0.05076  0  -0.154163  -0.169296  0  3.843419  0
C  C113  1  0.24788932  0.19841803  0.96087435  1  -0.027534  0  -0.153901  -0.168595  0  3.844856  0
C  C114  1  0.30304681  0.20246900  0.99849703  1  0.048101  0  -0.016741  0.020643  0  3.811416  0
C  C115  1  0.24806587  0.18353466  0.07205921  1  -0.037653  0  -0.158003  -0.172993  0  3.860134  0
C  C116  1  0.18975428  0.24493596  0.07353097  1  -0.041994  0  -0.157986  -0.17148  0  3.858971  0
C  C117  1  0.20406567  0.30520722  0.00097693  1  0.05153  0  -0.016185  0.018154  0  3.815143  0
C  C118  1  0.29244281  0.34742558  0.96548895  1  -0.024732  0  -0.163032  -0.175609  0  3.889977  0
C  C119  1  0.35103806  0.28652390  0.96432445  1  -0.018628  0  -0.164116  -0.176328  0  3.887206  0
C  C120  1  0.85017613  0.78660503  0.95653411  1  -0.029042  0  -0.154704  -0.167636  0  3.845413  0
C  C121  1  0.79134701  0.84786954  0.95745954  1  -0.034076  0  -0.155119  -0.17109  0  3.848615  0
C  C122  1  0.70235433  0.80544169  0.99067260  1  0.027249  0  -0.01524  0.022307  0  3.806157  0
C  C123  1  0.68742623  0.74514402  0.06333277  1  -0.013364  0  -0.159338  -0.175452  0  3.866249  0
C  C124  1  0.74555189  0.68361912  0.06217802  1  -0.025713  0  -0.157993  -0.170816  0  3.857215  0
C  C125  1  0.80148332  0.70238280  0.98878923  1  0.035296  0  -0.017308  0.020451  0  3.806759  0
C  C126  1  0.74927201  0.70072986  0.94900022  1  -0.027742  0  -0.163745  -0.176517  0  3.886105  0
C  C127  1  0.69035419  0.76148564  0.95039332  1  -0.03063  0  -0.164073  -0.175292  0  3.881027  0
C  C128  1  0.21853025  0.77091629  0.93966426  1  0.002254  0  -0.154011  -0.169058  0  3.849093  0
C  C129  1  0.27682180  0.83402454  0.93778820  1  -0.018109  0  -0.153908  -0.168851  0  3.848058  0
C  C130  1  0.29728223  0.80018066  0.00188046  1  0.026631  0  -0.016285  0.021585  0  3.812257  0
C  C131  1  0.33714360  0.72617709  0.00445904  1  -0.054365  0  -0.159152  -0.174435  0  3.863576  0
C  C132  1  0.27823134  0.66309860  0.00694089  1  0.026265  0  -0.158476  -0.17303  0  3.863101  0
C  C133  1  0.19831118  0.69425398  0.00540614  1  0.040633  0  -0.016228  0.022196  0  3.808681  0
C  C134  1  0.15927063  0.71385088  0.06613229  1  -0.025053  0  -0.163867  -0.176547  0  3.878906  0
C  C135  1  0.21811314  0.77648198  0.06416225  1  -0.002851  0  -0.164033  -0.177395  0  3.882857  0
C  C136  1  0.84140689  0.28804706  0.92918813  1  -0.012512  0  -0.152933  -0.168003  0  3.844356  0
C  C137  1  0.78348667  0.22448008  0.93101799  1  -0.042556  0  -0.154412  -0.169089  0  3.843275  0
C  C138  1  0.70372433  0.19951233  0.99401826  1  0.047889  0  -0.016029  0.022039  0  3.810252  0
C  C139  1  0.66415429  0.27399936  0.99063814  1  -0.037811  0  -0.15885  -0.174017  0  3.858704  0
C  C140  1  0.72218437  0.33650565  0.98977575  1  -0.029394  0  -0.159984  -0.175097  0  3.869271  0
C  C141  1  0.80186570  0.30536904  0.99172454  1  0.046811  0  -0.016405  0.020174  0  3.807739  0
C  C142  1  0.78298746  0.22773145  0.05565986  1  -0.03003  0  -0.164724  -0.17668  0  3.879785  0
C  C143  1  0.72402789  0.16548568  0.05745582  1  -0.033492  0  -0.163844  -0.177368  0  3.888468  0
O  O144  1  0.00020601  0.50357668  0.99357399  1  -1.234178  0  -0.572547  -1.023354  0  2.54741  0
O  O145  1  0.17166498  0.60635531  0.96106810  1  -1.170567  0  -0.317927  -0.553927  0  2.344664  0
O  O146  1  0.92012431  0.48482563  0.14691103  1  -1.179496  0  -0.313206  -0.537425  0  2.347245  0
O  O147  1  0.07036881  0.33454660  0.04010619  1  -1.17907  0  -0.316383  -0.54949  0  2.353542  0
O  O148  1  0.06751035  0.61924986  0.04443163  1  -1.178624  0  -0.311986  -0.544068  0  2.362474  0
O  O149  1  0.17190550  0.43643746  0.96237635  1  -1.186065  0  -0.31378  -0.549006  0  2.357447  0
O  O150  1  0.92390889  0.36362033  0.14607469  1  -1.182384  0  -0.31457  -0.562194  0  2.369095  0
O  O151  1  0.90144615  0.33972242  0.02681755  1  -1.180641  0  -0.317671  -0.553206  0  2.386608  0
O  O152  1  0.01577659  0.58001437  0.83970930  1  -1.167475  0  -0.313418  -0.541369  0  2.330248  0
O  O153  1  0.86789893  0.43878358  0.94903237  1  -1.175948  0  -0.314488  -0.550917  0  2.317846  0
O  O154  1  0.14056638  0.57684183  0.84615039  1  -1.174218  0  -0.315115  -0.563592  0  2.370106  0
O  O155  1  0.89949458  0.63471901  0.02772013  1  -1.175596  0  -0.31766  -0.554147  0  2.363383  0
O  O156  1  0.86811142  0.60820154  0.95115586  1  -1.176297  0  -0.311234  -0.546083  0  2.341652  0
O  O157  1  0.50208579  0.00166694  0.99500928  1  -1.222754  0  -0.573298  -1.024064  0  2.548129  0
O  O158  1  0.32816758  0.06893370  0.03171429  1  -1.165247  0  -0.316573  -0.550851  0  2.339591  0
O  O159  1  0.56538871  0.14155568  0.84175805  1  -1.185002  0  -0.314972  -0.562141  0  2.370406  0
O  O160  1  0.42863288  0.87735787  0.95391563  1  -1.184116  0  -0.315633  -0.552009  0  2.352139  0
O  O161  1  0.43483607  0.16802213  0.96037544  1  -1.187586  0  -0.313583  -0.547749  0  2.373801  0
O  O162  1  0.32926447  0.89752511  0.03579285  1  -1.172838  0  -0.313252  -0.544672  0  2.359764  0
O  O163  1  0.56849876  0.02043890  0.84080347  1  -1.158467  0  -0.312876  -0.536619  0  2.346336  0
O  O164  1  0.60719084  0.88066687  0.95222097  1  -1.174442  0  -0.314991  -0.549182  0  2.375567  0
O  O165  1  0.49446916  0.92399672  0.14745617  1  -1.159328  0  -0.312885  -0.538386  0  2.321577  0
O  O166  1  0.63988952  0.89817645  0.03195416  1  -1.170096  0  -0.315992  -0.554291  0  2.327043  0
O  O167  1  0.36819432  0.93004604  0.14422812  1  -1.177712  0  -0.31625  -0.564736  0  2.38022  0
O  O168  1  0.61772750  0.16628996  0.94692152  1  -1.183483  0  -0.320938  -0.555013  0  2.356978  0
O  O169  1  0.63336870  0.06805974  0.03640691  1  -1.180815  0  -0.311425  -0.548334  0  2.340903  0
O  O170  1  0.24177449  0.87446944  0.25236021  1  -1.158865  0  -0.358833  -0.44951  0  2.238015  0
O  O171  1  0.26926252  0.63040523  0.73904510  1  -1.128308  0  -0.359882  -0.450742  0  2.237458  0
O  O172  1  0.62883439  0.26692199  0.73145748  1  -1.177287  0  -0.357752  -0.447357  0  2.239601  0
O  O173  1  0.87077169  0.23824752  0.25738164  1  -1.1473  0  -0.358014  -0.448325  0  2.237269  0
