# generated using pymatgen
data_CuH8C6NO4
_symmetry_space_group_name_H-M   'P 1'
_cell_length_a   7.31142473
_cell_length_b   8.09090304
_cell_length_c   7.98738971
_cell_angle_alpha   59.57383178
_cell_angle_beta   83.83336255
_cell_angle_gamma   77.74849514
_symmetry_Int_Tables_number   1
_chemical_formula_structural   CuH8C6NO4
_chemical_formula_sum   'Cu2 H16 C12 N2 O8'
_cell_volume   398.15139631
_cell_formula_units_Z   2
loop_
 _symmetry_equiv_pos_site_id
 _symmetry_equiv_pos_as_xyz
  1  'x, y, z'
loop_
 _atom_site_type_symbol
 _atom_site_label
 _atom_site_symmetry_multiplicity
 _atom_site_fract_x
 _atom_site_fract_y
 _atom_site_fract_z
 _atom_site_occupancy
 _atom_site_pbe_cm5_charge
 _atom_site_pbe_ddec_charge
 _atom_site_pbe_ddec_spin_density
 _atom_site_pbe_ddec_sum_bond_order
 _atom_site_pbe_magmom
Cu  Cu0  1  0.62377056  0.36292455  0.99997339  1  0.671616  0.7318  -0.690622  2.420495  -0.531
Cu  Cu1  1  0.37619274  0.63712113  0.00002255  1  0.671599  0.731901  0.690602  2.420029  0.531
H  H2  1  0.04841137  0.28844614  0.99989946  1  0.128113  0.111592  3e-05  0.98543  0.0
H  H3  1  0.95156736  0.71153037  0.00010078  1  0.128203  0.11175  -3e-05  0.984927  0.0
H  H4  1  0.67731695  0.96433499  0.00008594  1  0.126483  0.109513  6.2e-05  0.995581  0.0
H  H5  1  0.32265286  0.03567613  0.99990698  1  0.126471  0.109428  -6.2e-05  0.995733  0.0
H  H6  1  0.26602818  0.94821084  0.44382441  1  0.096755  0.158456  0.001026  1.00328  0.001
H  H7  1  0.73401119  0.60778177  0.44400353  1  0.096745  0.15825  -0.001027  1.002976  -0.001
H  H8  1  0.73400525  0.05179097  0.55617598  1  0.096817  0.158482  -0.001027  1.003173  -0.001
H  H9  1  0.26600235  0.39222657  0.55600213  1  0.096751  0.158272  0.001027  1.003049  0.001
H  H10  1  0.06409480  0.14077345  0.38624918  1  0.09906  0.158091  -0.000796  1.022233  -0.001
H  H11  1  0.93596262  0.47276540  0.38644392  1  0.099072  0.157884  0.000796  1.022003  0.001
H  H12  1  0.93593184  0.85919928  0.61378097  1  0.099032  0.158031  0.000797  1.022173  0.001
H  H13  1  0.06404158  0.52723930  0.61353905  1  0.099053  0.157885  -0.000796  1.021952  -0.001
H  H14  1  0.23222165  0.08969514  0.55945246  1  0.102725  0.165561  -0.000298  0.988847  0.0
H  H15  1  0.76779121  0.35064180  0.55961461  1  0.102647  0.165215  0.000299  0.989007  0.0
H  H16  1  0.76778790  0.91028625  0.44055575  1  0.102692  0.165506  0.000298  0.98873  0.0
H  H17  1  0.23221705  0.64934275  0.44038156  1  0.102625  0.16524  -0.000298  0.989035  0.0
C  C18  1  0.32085929  0.24115760  0.26468290  1  0.21251  0.674397  0.000409  4.113426  0.001
C  C19  1  0.67921388  0.49399250  0.26479623  1  0.212817  0.674737  -0.000401  4.113022  -0.001
C  C20  1  0.67914799  0.75884176  0.73532022  1  0.212647  0.674668  -0.000407  4.113868  -0.001
C  C21  1  0.32079764  0.50600205  0.73520294  1  0.212661  0.674444  0.000403  4.112911  0.001
C  C22  1  0.02816344  0.15873771  0.99989814  1  0.061264  0.061663  0.000663  3.88353  0.001
C  C23  1  0.97181780  0.84126782  0.00010628  1  0.061271  0.061575  -0.000664  3.88327  -0.001
C  C24  1  0.82181758  0.98018281  0.00001607  1  0.061895  0.055492  0.000638  3.893589  0.001
C  C25  1  0.17817066  0.01981888  0.99998337  1  0.061938  0.055548  -0.000639  3.893347  -0.001
C  C26  1  0.21363471  0.09455579  0.42223355  1  -0.24442  -0.520958  -0.000453  3.862444  -0.001
C  C27  1  0.78638759  0.48300911  0.42237176  1  -0.244347  -0.520333  0.000459  3.862076  0.001
C  C28  1  0.78637429  0.90541666  0.57779557  1  -0.244457  -0.520984  0.000458  3.862502  0.001
C  C29  1  0.21360950  0.51699330  0.57761509  1  -0.244286  -0.520303  -0.000459  3.861976  -0.001
N  N30  1  0.85070647  0.13855519  0.99992491  1  -0.312446  -0.195563  0.000401  3.498973  -0.001
N  N31  1  0.14928252  0.86144299  0.00007370  1  -0.312518  -0.195644  -0.000402  3.499113  0.001
O  O32  1  0.47109028  0.17597624  0.20315463  1  -0.317183  -0.531695  -0.058094  2.318788  -0.08
O  O33  1  0.52899798  0.62071847  0.20324838  1  -0.317176  -0.531753  0.058102  2.31851  0.08
O  O34  1  0.52891208  0.82405047  0.79679997  1  -0.317191  -0.531726  0.058094  2.31868  0.08
O  O35  1  0.47102596  0.37930952  0.79672386  1  -0.317078  -0.531543  -0.058097  2.318929  -0.08
O  O36  1  0.25212750  0.42062798  0.20544639  1  -0.317947  -0.541072  0.054809  2.344472  0.076
O  O37  1  0.74796943  0.37381406  0.20551211  1  -0.31823  -0.541339  -0.054807  2.343998  -0.076
O  O38  1  0.74787699  0.57936678  0.79458649  1  -0.318002  -0.54114  -0.054807  2.344691  -0.076
O  O39  1  0.25200522  0.62617774  0.79450492  1  -0.318183  -0.541326  0.054812  2.343546  0.076
