# generated using pymatgen
data_ZnH10C6S2(NO)4
_symmetry_space_group_name_H-M   'P 1'
_cell_length_a   7.78106895
_cell_length_b   8.11695027
_cell_length_c   10.97186245
_cell_angle_alpha   89.72292505
_cell_angle_beta   101.83602875
_cell_angle_gamma   102.53487938
_symmetry_Int_Tables_number   1
_chemical_formula_structural   ZnH10C6S2(NO)4
_chemical_formula_sum   'Zn2 H20 C12 S4 N8 O8'
_cell_volume   661.49589238
_cell_formula_units_Z   2
loop_
 _symmetry_equiv_pos_site_id
 _symmetry_equiv_pos_as_xyz
  1  'x, y, z'
loop_
 _atom_site_type_symbol
 _atom_site_label
 _atom_site_symmetry_multiplicity
 _atom_site_fract_x
 _atom_site_fract_y
 _atom_site_fract_z
 _atom_site_occupancy
 _atom_site_hle17_bader_spin_density
 _atom_site_hle17_ddec_charge
 _atom_site_hle17_ddec_spin_density
 _atom_site_hle17_ddec_sum_bond_order
 _atom_site_hle17_magmom
 _atom_site_hse06_10hf_bader_spin_density
 _atom_site_hse06_10hf_ddec_charge
 _atom_site_hse06_10hf_ddec_spin_density
 _atom_site_hse06_10hf_ddec_sum_bond_order
 _atom_site_hse06_10hf_magmom
 _atom_site_hse06_bader_spin_density
 _atom_site_hse06_ddec_charge
 _atom_site_hse06_ddec_spin_density
 _atom_site_hse06_ddec_sum_bond_order
 _atom_site_hse06_magmom
 _atom_site_pbe_bader_spin_density
 _atom_site_pbe_cm5_charge
 _atom_site_pbe_ddec_charge
 _atom_site_pbe_ddec_spin_density
 _atom_site_pbe_ddec_sum_bond_order
 _atom_site_pbe_magmom
Zn  Zn0  1  0.39902298  0.86757487  0.26625148  1  0  0.875627  0  2.020066  0  0  0.715352  0  2.498091  0  0  0.759227  0  2.447025  0  0  0.539277  0.684976  0  2.533075  0
Zn  Zn1  1  0.60097935  0.13243313  0.73374975  1  0  0.875601  0  2.020119  0  0  0.715325  0  2.498172  0  0  0.759189  0  2.447101  0  0  0.539269  0.684956  0  2.533163  0
H  H2  1  0.12115208  0.13910346  0.85106023  1  0  0.354493  0  0.871386  0  0  0.337974  0  0.931391  0  0  0.345338  0  0.925591  0  0  0.313106  0.332879  0  0.935307  0
H  H3  1  0.87884647  0.86089198  0.14893490  1  0  0.354483  0  0.871483  0  0  0.337982  0  0.931457  0  0  0.345346  0  0.925656  0  0  0.313146  0.332885  0  0.935372  0
H  H4  1  0.11772031  0.25511120  0.98558931  1  0  0.346717  0  0.85227  0  0  0.338086  0  0.896458  0  0  0.344279  0  0.892442  0  0  0.324306  0.333809  0  0.899219  0
H  H5  1  0.88227553  0.74489042  0.01440545  1  0  0.346712  0  0.852275  0  0  0.338103  0  0.896435  0  0  0.344295  0  0.89242  0  0  0.324314  0.333827  0  0.899195  0
H  H6  1  0.25835471  0.92668768  0.86472951  1  0  0.352298  0  0.914016  0  0  0.332462  0  0.978524  0  0  0.34171  0  0.969679  0  0  0.300905  0.325811  0  0.98492  0
H  H7  1  0.74164692  0.07331028  0.13527065  1  0  0.352336  0  0.914033  0  0  0.332517  0  0.978506  0  0  0.341767  0  0.969661  0  0  0.300938  0.325865  0  0.984902  0
H  H8  1  0.35089049  0.84988700  0.01119401  1  0  0.344635  0  0.939897  0  0  0.321984  0  1.008489  0  0  0.330756  0  1.000692  0  0  0.295669  0.315874  0  1.013915  0
H  H9  1  0.64910893  0.15011330  0.98881130  1  0  0.34463  0  0.939894  0  0  0.322003  0  1.008455  0  0  0.330777  0  1.000656  0  0  0.295697  0.315894  0  1.013881  0
H  H10  1  0.46712689  0.61812824  0.62087106  1  0  0.349581  0  0.893858  0  0  0.331726  0  0.954378  0  0  0.339686  0  0.947917  0  0  0.304665  0.326101  0  0.959025  0
H  H11  1  0.53287735  0.38187610  0.37912862  1  0  0.349637  0  0.893873  0  0  0.33175  0  0.954418  0  0  0.339709  0  0.94796  0  0  0.304669  0.326124  0  0.959066  0
H  H12  1  0.49443441  0.78317166  0.51381520  1  0  0.350832  0  0.90957  0  0  0.329096  0  0.975977  0  0  0.337433  0  0.968942  0  0  0.30099  0.323175  0  0.981072  0
H  H13  1  0.50556955  0.21683138  0.48618625  1  0  0.350863  0  0.909587  0  0  0.329111  0  0.975998  0  0  0.337446  0  0.968966  0  0  0.301005  0.323194  0  0.98109  0
H  H14  1  0.23705027  0.39771801  0.58351741  1  0  0.356969  0  0.893383  0  0  0.338353  0  0.955906  0  0  0.346041  0  0.949452  0  0  0.30741  0.33307  0  0.960307  0
H  H15  1  0.76295284  0.60228747  0.41648575  1  0  0.356809  0  0.893556  0  0  0.338222  0  0.956029  0  0  0.345911  0  0.949577  0  0  0.307368  0.332941  0  0.960418  0
H  H16  1  0.06696871  0.38133523  0.44712449  1  0  0.344608  0  0.86666  0  0  0.333017  0  0.916576  0  0  0.338909  0  0.912898  0  0  0.317166  0.328911  0  0.919165  0
H  H17  1  0.93303152  0.61866893  0.55287732  1  0  0.344571  0  0.866696  0  0  0.332969  0  0.916631  0  0  0.338867  0  0.912945  0  0  0.317159  0.328862  0  0.91922  0
H  H18  1  0.59712961  0.38714596  0.09112529  1  0  0.118014  0  0.946855  0  0  0.128491  0  1.004731  0  0  0.132356  0  1.002394  0  0  0.105102  0.125665  0  1.006627  0
H  H19  1  0.40285486  0.61285149  0.90887048  1  0  0.118004  0  0.946861  0  0  0.128491  0  1.004711  0  0  0.132353  0  1.002378  0  0  0.105093  0.125666  0  1.006608  0
H  H20  1  0.87460018  0.96080412  0.59350255  1  0  0.112409  0  0.968224  0  0  0.115629  0  1.040519  0  0  0.120081  0  1.037417  0  0  0.095079  0.1122  0  1.043324  0
H  H21  1  0.12540918  0.03919288  0.40649603  1  0  0.112395  0  0.96834  0  0  0.115622  0  1.040616  0  0  0.120073  0  1.037514  0  0  0.09509  0.112191  0  1.04342  0
C  C22  1  0.23871627  0.05489520  0.01687200  1  0  0.610547  0  3.831936  0  0  0.564107  0  4.135441  0  0  0.592526  0  4.140348  0  0  0.251903  0.545075  0  4.131282  0
C  C23  1  0.76128349  0.94510648  0.98312699  1  0  0.610497  0  3.832234  0  0  0.56412  0  4.135679  0  0  0.592544  0  4.140586  0  0  0.251941  0.545086  0  4.131516  0
C  C24  1  0.26844842  0.59353144  0.46595942  1  0  0.6115  0  3.82696  0  0  0.56839  0  4.122496  0  0  0.59717  0  4.125712  0  0  0.252274  0.549073  0  4.119547  0
C  C25  1  0.73155481  0.40646784  0.53404008  1  0  0.611465  0  3.827049  0  0  0.568354  0  4.122577  0  0  0.597134  0  4.125794  0  0  0.252273  0.549037  0  4.119625  0
C  C26  1  0.51921366  0.60494481  0.16212037  1  0  0.691375  0  3.901322  0  0  0.641164  0  4.19663  0  0  0.675884  0  4.187125  0  0  0.205653  0.617911  0  4.2019  0
C  C27  1  0.48077579  0.39505148  0.83787978  1  0  0.691195  0  3.901512  0  0  0.640984  0  4.196805  0  0  0.675703  0  4.187303  0  0  0.205549  0.617734  0  4.202074  0
C  C28  1  0.53221432  0.49078838  0.06060296  1  0  -0.167729  0  3.675463  0  0  -0.189941  0  3.93621  0  0  -0.19473  0  3.949414  0  0  -0.0894  -0.186971  0  3.927546  0
C  C29  1  0.46777277  0.50920912  0.93939502  1  0  -0.167687  0  3.675509  0  0  -0.18988  0  3.936235  0  0  -0.19467  0  3.949444  0  0  -0.089409  -0.186914  0  3.927573  0
C  C30  1  0.76769724  0.97231743  0.39043712  1  0  0.690677  0  3.889011  0  0  0.642152  0  4.180387  0  0  0.677005  0  4.170908  0  0  0.204547  0.618624  0  4.185922  0
C  C31  1  0.23230681  0.02767938  0.60956158  1  0  0.690688  0  3.888979  0  0  0.642067  0  4.180473  0  0  0.676917  0  4.170998  0  0  0.204503  0.61856  0  4.185993  0
C  C32  1  0.91289796  0.98302115  0.50357993  1  0  -0.173795  0  3.680785  0  0  -0.1924  0  3.93597  0  0  -0.197998  0  3.950716  0  0  -0.091261  -0.188735  0  3.92615  0
C  C33  1  0.08710637  0.01697697  0.49641700  1  0  -0.17389  0  3.68091  0  0  -0.192455  0  3.936101  0  0  -0.198052  0  3.950849  0  0  -0.091325  -0.188793  0  3.926273  0
S  S34  1  0.29596872  0.09805544  0.17584229  1  0  -0.45648  0  1.981091  0  0  -0.422528  0  2.330871  0  0  -0.440862  0  2.314895  0  0  -0.18691  -0.410035  0  2.341902  0
S  S35  1  0.70402581  0.90194614  0.82415226  1  0  -0.456466  0  1.980983  0  0  -0.422535  0  2.330749  0  0  -0.440861  0  2.314759  0  0  -0.186944  -0.410043  0  2.341779  0
S  S36  1  0.16820442  0.67544423  0.33142133  1  0  -0.481477  0  1.996663  0  0  -0.449499  0  2.336181  0  0  -0.469002  0  2.322004  0  0  -0.20693  -0.436106  0  2.345545  0
S  S37  1  0.83179955  0.32455882  0.66857921  1  0  -0.481481  0  1.99668  0  0  -0.449489  0  2.336164  0  0  -0.468992  0  2.321987  0  0  -0.206949  -0.436097  0  2.345528  0
N  N38  1  0.15127071  0.15812889  0.94563400  1  0  -0.661803  0  3.106636  0  0  -0.617943  0  3.335159  0  0  -0.639445  0  3.332811  0  0  -0.561067  -0.603207  0  3.336285  0
N  N39  1  0.84872856  0.84187028  0.05436399  1  0  -0.661753  0  3.106796  0  0  -0.617946  0  3.335322  0  0  -0.639446  0  3.332968  0  0  -0.561107  -0.603209  0  3.336446  0
N  N40  1  0.27715222  0.92705315  0.96054185  1  0  -0.68098  0  3.106376  0  0  -0.636001  0  3.338178  0  0  -0.657745  0  3.33217  0  0  -0.570593  -0.621175  0  3.342174  0
N  N41  1  0.72284758  0.07294222  0.03945894  1  0  -0.680994  0  3.106637  0  0  -0.636071  0  3.338416  0  0  -0.657826  0  3.332408  0  0  -0.570689  -0.621247  0  3.342413  0
N  N42  1  0.42094828  0.67354489  0.54023840  1  0  -0.659373  0  3.09885  0  0  -0.612575  0  3.326526  0  0  -0.634632  0  3.322634  0  0  -0.564695  -0.597642  0  3.329178  0
N  N43  1  0.57905279  0.32645681  0.45976170  1  0  -0.659493  0  3.098981  0  0  -0.61263  0  3.326683  0  0  -0.634685  0  3.322789  0  0  -0.56472  -0.597697  0  3.329334  0
N  N44  1  0.18519397  0.44337644  0.50010750  1  0  -0.677289  0  3.111204  0  0  -0.634935  0  3.341325  0  0  -0.655801  0  3.337835  0  0  -0.56956  -0.620733  0  3.343366  0
N  N45  1  0.81480707  0.55662522  0.49989533  1  0  -0.677047  0  3.111361  0  0  -0.634701  0  3.341518  0  0  -0.655576  0  3.338021  0  0  -0.569498  -0.6205  0  3.343555  0
O  O46  1  0.45080359  0.73453205  0.12978949  1  0  -0.65299  0  2.149021  0  0  -0.567803  0  2.408706  0  0  -0.598536  0  2.396213  0  0  -0.325807  -0.546386  0  2.416275  0
O  O47  1  0.54919453  0.26546824  0.87021380  1  0  -0.652897  0  2.148937  0  0  -0.567746  0  2.408664  0  0  -0.598477  0  2.396164  0  0  -0.325777  -0.546327  0  2.416232  0
O  O48  1  0.57377954  0.57160352  0.27337750  1  0  -0.631666  0  1.973101  0  0  -0.5818  0  2.201244  0  0  -0.604589  0  2.191668  0  0  -0.315254  -0.566051  0  2.207243  0
O  O49  1  0.42622051  0.42839312  0.72662333  1  0  -0.631582  0  1.973253  0  0  -0.581689  0  2.201374  0  0  -0.604479  0  2.191797  0  0  -0.315165  -0.565939  0  2.207375  0
O  O50  1  0.60501195  0.93447632  0.41047302  1  0  -0.641237  0  2.108946  0  0  -0.557729  0  2.376207  0  0  -0.587263  0  2.3608  0  0  -0.321578  -0.53717  0  2.386171  0
O  O51  1  0.39499490  0.06552806  0.58952887  1  0  -0.641237  0  2.108917  0  0  -0.557699  0  2.376249  0  0  -0.587222  0  2.36083  0  0  -0.321539  -0.537175  0  2.386238  0
O  O52  1  0.80631142  0.99780973  0.28542999  1  0  -0.625434  0  1.973214  0  0  -0.574847  0  2.197891  0  0  -0.597815  0  2.187485  0  0  -0.314969  -0.558955  0  2.204546  0
O  O53  1  0.19368737  0.00218696  0.71456609  1  0  -0.625387  0  1.973231  0  0  -0.574759  0  2.197961  0  0  -0.597729  0  2.187561  0  0  -0.31492  -0.558867  0  2.204605  0
