# generated using pymatgen
data_Cu5Mo6As6H40C28(N4O5)6
_symmetry_space_group_name_H-M   'P 1'
_cell_length_a   9.28525456
_cell_length_b   13.01503448
_cell_length_c   14.57572154
_cell_angle_alpha   101.15329160
_cell_angle_beta   90.91098141
_cell_angle_gamma   109.89636767
_symmetry_Int_Tables_number   1
_chemical_formula_structural   Cu5Mo6As6H40C28(N4O5)6
_chemical_formula_sum   'Cu5 Mo6 As6 H40 C28 N24 O30'
_cell_volume   1618.63264548
_cell_formula_units_Z   1
loop_
 _symmetry_equiv_pos_site_id
 _symmetry_equiv_pos_as_xyz
  1  'x, y, z'
loop_
 _atom_site_type_symbol
 _atom_site_label
 _atom_site_symmetry_multiplicity
 _atom_site_fract_x
 _atom_site_fract_y
 _atom_site_fract_z
 _atom_site_occupancy
 _atom_site_hle17_ddec_charge
 _atom_site_hle17_ddec_spin_density
 _atom_site_hle17_ddec_sum_bond_order
 _atom_site_hle17_magmom
 _atom_site_hse06_10hf_ddec_charge
 _atom_site_hse06_10hf_ddec_spin_density
 _atom_site_hse06_10hf_ddec_sum_bond_order
 _atom_site_hse06_10hf_magmom
 _atom_site_hse06_ddec_charge
 _atom_site_hse06_ddec_spin_density
 _atom_site_hse06_ddec_sum_bond_order
 _atom_site_hse06_magmom
 _atom_site_pbe_cm5_charge
 _atom_site_pbe_ddec_charge
 _atom_site_pbe_ddec_spin_density
 _atom_site_pbe_ddec_sum_bond_order
 _atom_site_pbe_magmom
Cu  Cu0  1  0.59809025  0.42541042  0.45703390  1  0.520003  0.012529  1.66858  0.01  0.381988  0.000282  2.124877  0.0  0.394938  8.2e-05  2.076536  0.0  0.511937  0.378417  0.008509  2.155488  0.007
Cu  Cu1  1  0.40190850  0.57459215  0.54296650  1  0.519958  0.012514  1.668635  0.01  0.382028  0.000285  2.124924  0.0  0.395  9.3e-05  2.076598  0.0  0.511973  0.378448  0.008507  2.155507  0.007
Cu  Cu2  1  0.82408946  0.88706903  0.91620529  1  0.513306  5.3e-05  1.679526  0.0  0.37257  -1.9e-05  2.13921  0.0  0.384536  -9.1e-05  2.091348  0.0  0.516337  0.366338  0.000235  2.170426  0.0
Cu  Cu3  1  0.17591442  0.11293522  0.08379682  1  0.513326  8.3e-05  1.679486  0.0  0.372573  -2e-05  2.13917  0.0  0.384537  -6.7e-05  2.091302  0.0  0.516343  0.366346  0.000235  2.17038  0.0
Cu  Cu4  1  0.99999831  0.99999896  0.50000047  1  1.103986  0.674574  1.768552  0.518  1.119149  0.78738  2.13723  0.65  1.216441  0.860444  2.060554  0.746  0.670729  1.048948  0.722301  2.201212  0.58
Mo  Mo5  1  0.86103272  0.72332390  0.50320001  1  2.192347  -0.00261  4.09014  -0.002  2.190983  -0.00072  4.616376  -0.001  2.289284  -0.00076  4.58414  -0.001  1.488956  2.118909  -0.00118  4.645783  -0.001
Mo  Mo6  1  0.13896257  0.27667366  0.49680156  1  2.192262  -0.002287  4.090316  -0.002  2.190864  -0.000722  4.616614  -0.001  2.289178  -0.000705  4.584361  -0.001  1.488883  2.118788  -0.00118  4.646018  -0.001
Mo  Mo7  1  0.90849469  0.80448732  0.29580541  1  2.177145  -0.001637  4.129445  -0.001  2.172849  -0.00055  4.667476  -0.001  2.271207  -0.000585  4.633508  -0.001  1.495301  2.100651  -0.000459  4.69746  -0.001
Mo  Mo8  1  0.09150343  0.19550940  0.70419467  1  2.177146  -0.001456  4.129451  -0.001  2.172843  -0.000596  4.66746  -0.001  2.271197  -0.000546  4.633501  0.0  1.495297  2.100646  -0.000459  4.697447  -0.001
Mo  Mo9  1  0.97225771  0.92097770  0.70456971  1  2.176483  -0.002942  4.123103  -0.003  2.181609  -0.000398  4.640107  -0.001  2.281883  -0.000634  4.607918  -0.001  1.488607  2.107479  -0.000142  4.670523  0.0
Mo  Mo10  1  0.02773974  0.07901986  0.29543189  1  2.176476  -0.002921  4.123065  -0.003  2.18157  -0.000435  4.640098  -0.001  2.281863  -0.000638  4.607881  -0.001  1.488611  2.107435  -0.000141  4.670524  0.0
As  As11  1  0.66732731  0.96758433  0.36909989  1  1.195498  0.013671  2.836144  0.009  1.099849  0.010679  3.269705  0.008  1.13871  0.005702  3.244466  0.005  0.504272  1.068814  0.01383  3.293373  0.009
As  As12  1  0.33266706  0.03240904  0.63090028  1  1.195526  0.013701  2.836035  0.009  1.099941  0.010669  3.269555  0.008  1.138754  0.00571  3.244337  0.005  0.50429  1.068923  0.01383  3.293226  0.009
As  As13  1  0.75710922  0.16305977  0.56377709  1  1.208013  0.000985  2.80431  0.001  1.110282  0.000678  3.245034  0.001  1.151135  0.000218  3.217385  0.0  0.502951  1.078326  0.00177  3.26977  0.002
As  As14  1  0.24288890  0.83693695  0.43622230  1  1.208144  0.001075  2.804217  0.001  1.110444  0.00066  3.244901  0.001  1.15128  0.000239  3.217261  0.0  0.503023  1.078502  0.00177  3.269627  0.002
As  As15  1  0.63611709  0.89401951  0.57371677  1  1.186015  0.01412  2.825448  0.009  1.087071  0.011364  3.264438  0.008  1.126877  0.006014  3.236918  0.005  0.499094  1.054935  0.015044  3.289913  0.01
As  As16  1  0.36388144  0.10597805  0.42628483  1  1.18596  0.014184  2.825411  0.009  1.087025  0.01135  3.264405  0.008  1.126824  0.006019  3.236862  0.005  0.499053  1.054894  0.015045  3.289879  0.01
H  H17  1  0.90374377  0.51657553  0.59795612  1  0.115508  1e-06  0.922991  0.0  0.129888  -0.0  0.973539  0.0  0.132009  -1e-06  0.97086  0.0  0.138827  0.128106  -4e-06  0.975773  0.0
H  H18  1  0.09625822  0.48342705  0.40204500  1  0.115481  -1e-06  0.9229  0.0  0.129824  -0.0  0.973492  0.0  0.131944  -2e-06  0.970816  0.0  0.138817  0.128041  -4e-06  0.975728  0.0
H  H19  1  0.75298490  0.04500892  0.09040701  1  0.116056  -1.5e-05  0.959525  0.0  0.129  -4e-06  1.016005  0.0  0.131983  -3e-06  1.011902  0.0  0.130316  0.126678  -0.0  1.019085  0.0
H  H20  1  0.24702568  0.95500036  0.90959534  1  0.116112  -1e-05  0.959447  0.0  0.129045  -4e-06  1.015944  0.0  0.132028  -3e-06  1.011839  0.0  0.130325  0.126715  -0.0  1.019016  0.0
H  H21  1  0.34519893  0.32412680  0.28286500  1  0.117495  1e-05  0.94589  0.0  0.128525  4e-06  1.001721  0.0  0.130072  -1e-06  1.000355  0.0  0.133772  0.127267  8e-06  1.002902  0.0
H  H22  1  0.65479697  0.67587659  0.71713208  1  0.117415  1.1e-05  0.945914  0.0  0.128512  4e-06  1.001685  0.0  0.130059  -1e-06  1.000319  0.0  0.133766  0.127246  8e-06  1.002872  0.0
H  H23  1  0.11626567  0.22173542  0.91934428  1  0.105072  3e-06  0.957222  0.0  0.112304  -0.0  1.021912  0.0  0.115047  0.0  1.018287  0.0  0.134453  0.110227  -1e-06  1.024621  0.0
H  H24  1  0.88373955  0.77826716  0.08065413  1  0.105088  -0.0  0.957288  0.0  0.112304  -1e-06  1.021992  0.0  0.11505  -0.0  1.01836  0.0  0.134399  0.110221  -1e-06  1.024717  0.0
H  H25  1  0.44476947  0.32155081  0.62530060  1  0.139673  1e-06  0.982306  0.0  0.147055  -5e-06  1.044031  0.0  0.151177  1e-06  1.039315  0.0  0.138969  0.144206  -9e-06  1.046956  0.0
H  H26  1  0.55523105  0.67845092  0.37469968  1  0.139696  1e-06  0.98229  0.0  0.147075  -5e-06  1.04402  0.0  0.151199  1e-06  1.039301  0.0  0.138982  0.14423  -9e-06  1.04694  0.0
H  H27  1  0.47135610  0.31381319  0.79222186  1  0.105159  -1e-06  0.956304  0.0  0.122467  -2e-06  1.01492  0.0  0.123853  -2e-06  1.014366  0.0  0.115534  0.121385  -5e-06  1.01529  0.0
H  H28  1  0.52864373  0.68618938  0.20777786  1  0.105177  -3e-06  0.956349  0.0  0.122503  -3e-06  1.014911  0.0  0.12389  -2e-06  1.014361  0.0  0.115538  0.121424  -5e-06  1.015277  0.0
H  H29  1  0.63237632  0.41777016  0.86326900  1  0.078398  -0.0  0.913511  0.0  0.093459  -2e-06  0.976245  0.0  0.094821  -2e-06  0.975344  0.0  0.110013  0.092339  -3e-06  0.977072  0.0
H  H30  1  0.36762555  0.58222991  0.13673101  1  0.078419  -3e-06  0.913544  0.0  0.093471  -2e-06  0.976267  0.0  0.094837  -3e-06  0.975368  0.0  0.110004  0.092355  -3e-06  0.977092  0.0
H  H31  1  0.65486780  0.19985177  0.75030534  1  0.074318  9.1e-05  0.972642  0.0  0.08138  9.8e-05  1.055356  0.0  0.081232  7e-05  1.056851  0.0  0.094215  0.081579  0.000119  1.054191  0.0
H  H32  1  0.34512707  0.80014493  0.24969128  1  0.074316  9.4e-05  0.972685  0.0  0.081364  9.8e-05  1.055422  0.0  0.081216  7e-05  1.056911  0.0  0.094211  0.081565  0.000119  1.054254  0.0
H  H33  1  0.77724394  0.28998353  0.84836881  1  0.097012  -6e-06  0.938939  0.0  0.10945  -7e-06  1.006846  0.0  0.1114  -4e-06  1.005815  0.0  0.097333  0.107863  -8e-06  1.007701  0.0
H  H34  1  0.22275270  0.71001235  0.15162837  1  0.097018  -2e-06  0.938937  0.0  0.109428  -7e-06  1.006889  0.0  0.111388  -4e-06  1.005842  0.0  0.097348  0.107844  -8e-06  1.007749  0.0
H  H35  1  0.52988813  0.23895614  0.94313628  1  0.089402  -7e-06  0.912358  0.0  0.108738  -1e-06  0.968508  0.0  0.110417  -2e-06  0.966635  0.0  0.121338  0.107406  -5e-06  0.969923  0.0
H  H36  1  0.47010902  0.76104308  0.05686216  1  0.089456  -3e-06  0.912404  0.0  0.108798  -1e-06  0.968571  0.0  0.11048  -2e-06  0.966693  0.0  0.121362  0.107467  -5e-06  0.969986  0.0
H  H37  1  0.44297164  0.13161019  0.84353463  1  0.076698  0.00018  0.947676  0.0  0.085632  0.000177  1.025981  0.0  0.085519  0.000101  1.026758  0.0  0.109407  0.085702  0.00022  1.025406  0.0
H  H38  1  0.55702728  0.86838820  0.15646437  1  0.0767  0.000184  0.947675  0.0  0.085679  0.000178  1.025945  0.0  0.085566  0.000101  1.026723  0.0  0.109415  0.08575  0.00022  1.025367  0.0
H  H39  1  0.68796661  0.02207506  0.79862425  1  0.131016  4.6e-05  0.925505  0.0  0.139244  5.1e-05  0.986417  0.0  0.142147  3.3e-05  0.982454  0.0  0.147437  0.13709  0.00011  0.989304  0.0
H  H40  1  0.31203016  0.97792333  0.20137886  1  0.130962  5e-05  0.925337  0.0  0.139166  5.2e-05  0.986306  0.0  0.14207  3.2e-05  0.98234  0.0  0.147402  0.137014  0.00011  0.989191  0.0
H  H41  1  0.80465729  0.54519527  0.30955676  1  0.123191  -1e-06  0.952377  0.0  0.130816  1e-06  1.018106  0.0  0.133268  1e-06  1.013858  0.0  0.14453  0.128813  1e-06  1.020768  0.0
H  H42  1  0.19534203  0.45480396  0.69044376  1  0.123168  1e-06  0.952377  0.0  0.130802  0.0  1.018109  0.0  0.133254  1e-06  1.013858  0.0  0.144523  0.128795  1e-06  1.020778  0.0
H  H43  1  0.79498926  0.59065961  0.13736527  1  0.09458  2e-06  0.96577  0.0  0.105256  6e-06  1.037307  0.0  0.105814  2e-06  1.036533  0.0  0.115736  0.104863  9e-06  1.036959  0.0
H  H44  1  0.20501624  0.40934130  0.86263491  1  0.094673  -3e-06  0.965702  0.0  0.105317  5e-06  1.037258  0.0  0.105875  3e-06  1.036481  0.0  0.115768  0.104926  9e-06  1.036909  0.0
H  H45  1  0.62170138  0.51263038  0.06373631  1  0.083844  5e-06  0.907084  0.0  0.100691  1e-06  0.966173  0.0  0.1019  0.0  0.963764  0.0  0.116192  0.099656  1e-06  0.967339  0.0
H  H46  1  0.37830413  0.48737053  0.93626387  1  0.083806  -4e-06  0.907098  0.0  0.100676  1e-06  0.966164  0.0  0.101885  -0.0  0.96375  0.0  0.116196  0.099642  1e-06  0.967332  0.0
H  H47  1  0.81332539  0.43936110  0.99816265  1  0.086524  1e-06  0.944258  0.0  0.101693  -1e-06  1.009685  0.0  0.102564  -0.0  1.010102  0.0  0.099497  0.100978  -1e-06  1.009616  0.0
H  H48  1  0.18667312  0.56063645  0.00183621  1  0.086548  -1.5e-05  0.944268  0.0  0.101693  -0.0  1.009693  0.0  0.102564  -1e-06  1.010109  0.0  0.099486  0.10098  -1e-06  1.009628  0.0
H  H49  1  0.69857409  0.33790232  0.05838695  1  0.084647  8e-06  0.959519  0.0  0.095222  -1e-06  1.031201  0.0  0.097309  -1e-06  1.029644  0.0  0.096235  0.093786  -1e-06  1.032104  0.0
H  H50  1  0.30142886  0.66209776  0.94161375  1  0.084585  -1.3e-05  0.959569  0.0  0.09517  -1e-06  1.031219  0.0  0.097257  -1e-06  1.02966  0.0  0.096187  0.093736  -1e-06  1.032124  0.0
H  H51  1  0.01165903  0.51937906  0.13371976  1  0.092842  -5e-06  0.931004  0.0  0.102915  -1e-06  1.005653  0.0  0.104223  -1e-06  1.00375  0.0  0.113678  0.101775  -0.0  1.007362  0.0
H  H52  1  0.98834295  0.48062350  0.86627793  1  0.092865  -0.0  0.93099  0.0  0.102944  -1e-06  1.005658  0.0  0.104257  -1e-06  1.003742  0.0  0.113678  0.101822  -0.0  1.007303  0.0
H  H53  1  0.90088242  0.42399483  0.19816665  1  0.080027  -1.2e-05  0.922295  0.0  0.101094  -2e-06  0.977124  0.0  0.100594  -0.0  0.977982  0.0  0.119314  0.101219  -1e-06  0.97674  0.0
H  H54  1  0.09912133  0.57600691  0.80183228  1  0.080077  -8e-06  0.92235  0.0  0.101149  -1e-06  0.977159  0.0  0.100647  -1e-06  0.978024  0.0  0.119343  0.101273  -1e-06  0.976775  0.0
H  H55  1  0.02819699  0.28256899  0.20408681  1  0.119975  -4e-06  0.918583  0.0  0.131101  -8e-06  0.97788  0.0  0.133223  -5e-06  0.975369  0.0  0.151056  0.129363  -1e-05  0.979877  0.0
H  H56  1  0.97180716  0.71743360  0.79591365  1  0.119995  -9e-06  0.918556  0.0  0.131089  -8e-06  0.977901  0.0  0.133234  -4e-06  0.975363  0.0  0.151065  0.129349  -1e-05  0.979897  0.0
C  C57  1  0.80181308  0.46982979  0.62766486  1  0.191262  -8.2e-05  3.6994  0.0  0.138053  1.1e-05  3.986683  0.0  0.148077  4e-06  4.001833  0.0  0.145702  0.131768  3e-06  3.975985  0.0
C  C58  1  0.19818931  0.53017363  0.37233572  1  0.191371  -3.6e-05  3.699267  0.0  0.138185  7e-06  3.986564  0.0  0.148207  8e-06  4.001712  0.0  0.145747  0.131904  3e-06  3.975858  0.0
C  C59  1  0.71628620  0.05663421  0.02298287  1  0.182315  1.6e-05  3.698028  0.0  0.127954  -1.2e-05  3.985512  0.0  0.138328  -6e-06  3.999165  0.0  0.136149  0.12141  -8e-06  3.975739  0.0
C  C60  1  0.28372211  0.94337256  0.97701902  1  0.182244  -3.9e-05  3.698074  0.0  0.12789  -1.2e-05  3.985567  0.0  0.138263  -6e-06  3.999223  0.0  0.136192  0.121361  -8e-06  3.975787  0.0
C  C61  1  0.45347342  0.37991576  0.26627335  1  0.208  -6.2e-05  3.663519  0.0  0.159278  3.9e-05  3.938023  0.0  0.170705  2.2e-05  3.948136  0.0  0.144812  0.152367  2.5e-05  3.928578  0.0
C  C62  1  0.54652276  0.62008596  0.73372414  1  0.208067  1.1e-05  3.663462  0.0  0.159322  3.7e-05  3.937955  0.0  0.170751  2.2e-05  3.94806  0.0  0.144799  0.152425  2.6e-05  3.928493  0.0
C  C63  1  0.07945166  0.25560238  0.98514610  1  0.187182  -5.5e-05  3.687383  0.0  0.139304  1e-06  3.962911  0.0  0.149812  -1e-06  3.976755  0.0  0.144754  0.132386  4e-06  3.953791  0.0
C  C64  1  0.92055126  0.74440438  0.01485712  1  0.187256  2.9e-05  3.687074  0.0  0.139407  1e-06  3.962607  0.0  0.149919  4e-06  3.976454  0.0  0.144838  0.132493  4e-06  3.95349  0.0
C  C65  1  0.56747048  0.36975406  0.63825817  1  0.159732  -0.000102  3.617944  0.0  0.077499  -1.9e-05  3.887368  0.0  0.090684  -1.4e-05  3.89995  0.0  0.154806  0.069569  -6.9e-05  3.8783  0.0
C  C66  1  0.43253003  0.63024768  0.36174280  1  0.159707  -0.0001  3.618047  0.0  0.077479  -2e-05  3.887444  0.0  0.090663  -1.5e-05  3.900019  0.0  0.154727  0.069549  -6.9e-05  3.878376  0.0
C  C67  1  0.59772136  0.34690869  0.80269293  1  -0.016327  -1.6e-05  3.612444  0.0  -0.08828  -1.4e-05  3.86614  0.0  -0.085237  -2e-06  3.876959  0.0  -0.05021  -0.09002  -7e-06  3.858449  0.0
C  C68  1  0.40227982  0.65309221  0.19730583  1  -0.016529  1.5e-05  3.612665  0.0  -0.088436  -1.2e-05  3.866271  0.0  -0.085406  -2e-06  3.877103  0.0  -0.050234  -0.090171  -7e-06  3.858573  0.0
C  C69  1  0.65710475  0.25482786  0.81817974  1  -0.154094  9e-06  3.65656  0.0  -0.19908  4.1e-05  3.927206  0.0  -0.201369  3.1e-05  3.941235  0.0  -0.162971  -0.197142  0.000102  3.916877  0.0
C  C70  1  0.34289121  0.74516886  0.18181895  1  -0.15402  -5.2e-05  3.656563  0.0  -0.19901  4.6e-05  3.927264  0.0  -0.201294  2.5e-05  3.941278  0.0  -0.162981  -0.197077  0.000102  3.916941  0.0
C  C71  1  0.55425385  0.18597641  0.88167461  1  -0.00969  0.000119  3.617581  0.0  -0.085337  0.000149  3.873524  0.0  -0.081639  8.4e-05  3.884738  0.0  -0.04486  -0.08717  0.00018  3.86533  0.0
C  C72  1  0.44574182  0.81402196  0.11832230  1  -0.00971  0.000123  3.617606  0.0  -0.085415  0.000146  3.873579  0.0  -0.08172  8.9e-05  3.88479  0.0  -0.044848  -0.087247  0.00018  3.865383  0.0
C  C73  1  0.68411357  0.04265659  0.87410601  1  0.191595  2.5e-05  3.565924  0.0  0.119865  4.7e-05  3.807194  0.0  0.133735  2.8e-05  3.819239  0.0  0.169508  0.111281  0.000103  3.79879  0.0
C  C74  1  0.31588749  0.95734180  0.12589164  1  0.191727  -2.5e-05  3.565924  0.0  0.12  4.6e-05  3.807234  0.0  0.133876  3e-05  3.819273  0.0  0.16961  0.111418  0.000103  3.798834  0.0
C  C75  1  0.68837984  0.49125436  0.28225450  1  0.16578  -2e-05  3.608878  0.0  0.091168  -6e-06  3.860555  0.0  0.11599  -3e-06  3.876316  0.0  0.160625  0.082295  -1.3e-05  3.85215  0.0
C  C76  1  0.31161908  0.50874403  0.71774519  1  0.165786  -0.0  3.608787  0.0  0.091149  -5e-06  3.86054  0.0  0.116018  -3e-06  3.876315  0.0  0.160607  0.082277  -1.3e-05  3.852134  0.0
C  C77  1  0.70803529  0.50725890  0.11295799  1  -0.017119  1.5e-05  3.627918  0.0  -0.090775  5e-06  3.883634  0.0  -0.077024  5e-06  3.897374  0.0  -0.047782  -0.092972  1.8e-05  3.87578  0.0
C  C78  1  0.29196403  0.49274033  0.88704253  1  -0.017095  3.7e-05  3.627963  0.0  -0.090729  6e-06  3.88363  0.0  -0.07694  7e-06  3.89738  0.0  -0.047812  -0.092919  1.8e-05  3.875762  0.0
C  C79  1  0.78142735  0.42348943  0.06756613  1  -0.152912  -7.1e-05  3.676399  0.0  -0.19987  2e-06  3.94788  0.0  -0.201667  -2e-06  3.957856  0.0  -0.162754  -0.198064  -0.0  3.938985  0.0
C  C80  1  0.21857441  0.57650814  0.93243344  1  -0.152948  2e-05  3.676536  0.0  -0.199851  -4e-06  3.947927  0.0  -0.201646  1e-06  3.957896  0.0  -0.16269  -0.198052  -1e-06  3.939041  0.0
C  C81  1  0.92518302  0.43551961  0.12675930  1  -0.010991  3.2e-05  3.634064  0.0  -0.09209  1e-06  3.900243  0.0  -0.087467  -4e-06  3.910752  0.0  -0.047393  -0.094924  1e-06  3.892945  0.0
C  C82  1  0.07481992  0.56448046  0.87324002  1  -0.01098  7e-06  3.634184  0.0  -0.092194  -0.0  3.90037  0.0  -0.087574  -1e-06  3.910876  0.0  -0.047417  -0.09502  1e-06  3.893082  0.0
C  C83  1  0.03756078  0.28510662  0.13048587  1  0.184671  -0.000101  3.602885  0.0  0.105933  -6e-06  3.857395  0.0  0.119129  -7e-06  3.870937  0.0  0.170107  0.097525  -1e-05  3.848366  0.0
C  C84  1  0.96244553  0.71489597  0.86951529  1  0.184824  5.5e-05  3.602825  0.0  0.106052  -6e-06  3.857299  0.0  0.119227  -2e-06  3.870834  0.0  0.170151  0.097646  -1e-05  3.848267  0.0
N  N85  1  0.65985324  0.42001869  0.57805552  1  -0.399331  0.000309  3.462411  0.0  -0.318427  -2.2e-05  3.800227  0.0  -0.3374  -1.4e-05  3.807258  0.0  -0.403596  -0.307044  0.000174  3.795363  0.0
N  N86  1  0.34014847  0.57998556  0.42194451  1  -0.399388  0.000302  3.46254  0.0  -0.318507  -2e-05  3.800396  0.0  -0.337476  -1.5e-05  3.807436  0.0  -0.403585  -0.307116  0.000174  3.795509  0.0
N  N87  1  0.65114264  0.38970044  0.71972154  1  0.036881  -2.7e-05  3.58977  0.0  0.157184  -2.2e-05  3.780796  0.0  0.145414  -1.7e-05  3.808604  0.0  -0.136705  0.163845  -1.1e-05  3.763619  0.0
N  N88  1  0.34885894  0.61030129  0.28027738  1  0.036937  -6.9e-05  3.589667  0.0  0.157248  -2.2e-05  3.78064  0.0  0.145479  -1.1e-05  3.80845  0.0  -0.136671  0.16389  -1.1e-05  3.763495  0.0
N  N89  1  0.62703712  0.11806645  0.91978392  1  0.039823  3.2e-05  3.554383  0.0  0.165836  -1.3e-05  3.734711  0.0  0.153835  -1.3e-05  3.761831  0.0  -0.131725  0.172106  -8e-06  3.719077  0.0
N  N90  1  0.37296124  0.88193528  0.08021702  1  0.039755  2.9e-05  3.554443  0.0  0.165802  -1.2e-05  3.734748  0.0  0.153787  -1.4e-05  3.761891  0.0  -0.131762  0.17207  -8e-06  3.719119  0.0
N  N91  1  0.74147733  0.00156752  0.93795259  1  -0.389782  -5e-06  3.432931  0.0  -0.310373  0.0  3.771516  0.0  -0.327084  -1e-06  3.77488  0.0  -0.400362  -0.299609  3e-06  3.768527  0.0
N  N92  1  0.25852909  0.99843758  0.06204969  1  -0.389865  1e-05  3.433079  0.0  -0.31047  3e-06  3.771687  0.0  -0.32718  -4e-06  3.775042  0.0  -0.40047  -0.299709  3e-06  3.768695  0.0
N  N93  1  0.57923752  0.43317525  0.33054555  1  -0.379755  0.000327  3.411942  0.0  -0.296299  3.2e-05  3.737246  0.0  -0.313909  1.2e-05  3.738133  0.0  -0.39892  -0.2852  0.000207  3.733232  0.0
N  N94  1  0.42076003  0.56682481  0.66945235  1  -0.379624  0.000309  3.411897  0.0  -0.296217  3.1e-05  3.737284  0.0  -0.313836  1.5e-05  3.738185  0.0  -0.398884  -0.285119  0.000207  3.73325  0.0
N  N95  1  0.62888091  0.47334715  0.19355122  1  0.042865  -6e-06  3.554019  0.0  0.166705  1.6e-05  3.7351  0.0  0.123442  9e-06  3.801981  0.0  -0.136542  0.173951  1.7e-05  3.717719  0.0
N  N96  1  0.37111948  0.52665208  0.80644794  1  0.042828  -5.9e-05  3.553897  0.0  0.166667  1.9e-05  3.734987  0.0  0.123276  7e-06  3.802007  0.0  -0.136543  0.173901  1.7e-05  3.717629  0.0
N  N97  1  0.09391901  0.22221153  0.06739836  1  -0.387071  1.7e-05  3.439428  0.0  -0.306391  -1e-05  3.772267  0.0  -0.323518  -9e-06  3.777434  0.0  -0.397892  -0.295514  -1e-05  3.768578  0.0
N  N98  1  0.90608593  0.77779272  0.93260102  1  -0.38712  -3.6e-05  3.439071  0.0  -0.306484  -9e-06  3.771972  0.0  -0.323627  -1.4e-05  3.777163  0.0  -0.397948  -0.29561  -1e-05  3.768288  0.0
N  N99  1  0.99217478  0.35224372  0.08712982  1  0.0475  1.7e-05  3.561094  0.0  0.168043  1e-06  3.74918  0.0  0.158541  5e-06  3.772343  0.0  -0.128863  0.17374  5e-06  3.734391  0.0
N  N100  1  0.00782975  0.64775970  0.91286872  1  0.047252  -6.6e-05  3.561202  0.0  0.16802  2e-06  3.749017  0.0  0.158526  -3e-06  3.772169  0.0  -0.128876  0.173715  5e-06  3.734226  0.0
N  N101  1  0.80061438  0.45342021  0.71464015  1  -0.274895  6.9e-05  2.871362  0.0  -0.275197  -1.5e-05  3.149436  0.0  -0.284534  -1.1e-05  3.166303  0.0  -0.22118  -0.268186  2.2e-05  3.137208  0.0
N  N102  1  0.19938465  0.54658069  0.28535929  1  -0.274894  8e-05  2.871221  0.0  -0.275204  -1.4e-05  3.149283  0.0  -0.28454  -1.1e-05  3.166147  0.0  -0.221167  -0.268185  2.2e-05  3.13706  0.0
N  N103  1  0.64700433  0.12849088  0.01457954  1  -0.271178  -6.9e-05  2.851762  0.0  -0.274938  -2e-06  3.120753  0.0  -0.283534  -9e-06  3.135958  0.0  -0.225775  -0.268808  1.2e-05  3.110324  0.0
N  N104  1  0.35299830  0.87151754  0.98542190  1  -0.271134  5e-06  2.851741  0.0  -0.274902  -5e-06  3.120743  0.0  -0.283497  -3e-06  3.135949  0.0  -0.22581  -0.268769  1.2e-05  3.110308  0.0
N  N105  1  0.47969621  0.40200679  0.18180536  1  -0.287053  6e-05  2.833413  0.0  -0.29274  -9e-06  3.101502  0.0  -0.289407  -1e-06  3.119382  0.0  -0.234465  -0.287608  2e-05  3.093104  0.0
N  N106  1  0.52030510  0.59799661  0.81819383  1  -0.287117  3.6e-05  2.833309  0.0  -0.29282  -6e-06  3.101421  0.0  -0.289446  -2e-06  3.119323  0.0  -0.234484  -0.287688  2e-05  3.093017  0.0
N  N107  1  0.01803218  0.33494356  0.99460216  1  -0.254339  4.1e-05  2.845177  0.0  -0.24758  -2e-06  3.107777  0.0  -0.257335  -2e-06  3.124273  0.0  -0.21425  -0.241017  -2e-06  3.096841  0.0
N  N108  1  0.98197441  0.66505736  0.00539803  1  -0.254363  -3.2e-05  2.844821  0.0  -0.247669  -4e-06  3.107366  0.0  -0.257428  -1e-06  3.123858  0.0  -0.214278  -0.241107  -2e-06  3.096434  0.0
O  O109  1  0.69059814  0.10402429  0.43973245  1  -0.763672  0.001299  1.955982  0.002  -0.685489  0.000767  2.231212  0.001  -0.708859  0.00035  2.214572  0.0  -0.342139  -0.669084  0.002005  2.244499  0.002
O  O110  1  0.30939476  0.89596825  0.56026824  1  -0.763686  0.001307  1.955944  0.002  -0.685532  0.000763  2.231145  0.001  -0.708873  0.000356  2.214487  0.0  -0.342167  -0.669143  0.002005  2.244432  0.002
O  O111  1  0.94860584  0.15724629  0.56290387  1  -0.989289  -0.003108  2.028966  -0.001  -0.949329  -0.002645  2.339276  -0.001  -0.986566  -0.00305  2.324808  -0.001  -0.481757  -0.918535  -0.001457  2.347835  0.0
O  O112  1  0.05139121  0.84275043  0.43709689  1  -0.989338  -0.003114  2.028968  -0.001  -0.949399  -0.002633  2.339287  -0.001  -0.986637  -0.003071  2.324822  -0.001  -0.48178  -0.918604  -0.001457  2.347833  0.0
O  O113  1  0.66551681  0.04167718  0.61665301  1  -0.775934  0.001594  1.948788  0.002  -0.701439  0.000872  2.234278  0.001  -0.725143  0.000429  2.218496  0.001  -0.348319  -0.684123  0.002256  2.246236  0.003
O  O114  1  0.33448211  0.95832122  0.38334806  1  -0.775943  0.001511  1.948753  0.002  -0.701422  0.000901  2.234209  0.001  -0.72512  0.000408  2.218421  0.001  -0.348306  -0.684115  0.002256  2.246173  0.003
O  O115  1  0.58272104  0.87698631  0.44954084  1  -0.76303  0.002023  1.991418  0.005  -0.686023  0.00085  2.272435  0.003  -0.710905  0.000103  2.258343  0.001  -0.340231  -0.66818  0.001365  2.283574  0.004
O  O116  1  0.41727521  0.12300874  0.55046031  1  -0.763014  0.001983  1.99122  0.005  -0.686053  0.000861  2.272271  0.003  -0.710885  9.5e-05  2.258143  0.001  -0.340254  -0.668192  0.001365  2.283388  0.004
O  O117  1  0.86483833  0.97002218  0.38166620  1  -0.953966  0.059256  2.047957  0.085  -0.918847  0.04018  2.362753  0.061  -0.965492  0.029879  2.351972  0.049  -0.477876  -0.88456  0.044272  2.370101  0.063
O  O118  1  0.13515684  0.02997287  0.61833425  1  -0.953955  0.059268  2.047887  0.085  -0.918859  0.040185  2.362677  0.061  -0.965505  0.029877  2.351908  0.049  -0.477907  -0.884676  0.044273  2.370275  0.063
O  O119  1  0.83538077  0.90125349  0.56415862  1  -0.954504  0.060994  2.042104  0.087  -0.919045  0.041346  2.355342  0.063  -0.966684  0.03056  2.346006  0.05  -0.477459  -0.883974  0.046373  2.362224  0.066
O  O120  1  0.16461723  0.09874073  0.43584103  1  -0.954477  0.06098  2.042084  0.087  -0.919024  0.041343  2.355329  0.063  -0.966668  0.030562  2.345993  0.05  -0.477416  -0.883958  0.046373  2.362216  0.066
O  O121  1  0.12673002  0.94476305  0.78374132  1  -0.737691  0.001179  1.46388  0.001  -0.730595  0.000862  1.711324  0.001  -0.753926  0.000488  1.69833  0.001  -0.526671  -0.713415  0.001192  1.721453  0.001
O  O122  1  0.87326674  0.05523534  0.21625904  1  -0.737685  0.001189  1.463812  0.001  -0.730589  0.000867  1.71125  0.001  -0.75393  0.000489  1.698266  0.001  -0.526664  -0.713417  0.001192  1.721385  0.001
O  O123  1  0.80883832  0.85475599  0.75830355  1  -0.769062  0.000361  1.607907  0.0  -0.746508  0.000376  1.903334  0.0  -0.771986  0.000134  1.886307  0.0  -0.541808  -0.728346  0.000658  1.915596  0.001
O  O124  1  0.19115845  0.14524241  0.24169886  1  -0.769097  0.00035  1.607951  0.0  -0.746488  0.000394  1.903326  0.0  -0.771984  0.000132  1.886332  0.0  -0.541854  -0.72833  0.000658  1.915593  0.001
O  O125  1  0.98976159  0.79429038  0.61886270  1  -0.882419  0.001326  1.709022  0.002  -0.88267  0.000586  1.987741  0.001  -0.925264  0.000215  1.982292  0.0  -0.597705  -0.850673  0.000776  1.991711  0.001
O  O126  1  0.01023251  0.20570467  0.38113980  1  -0.882425  0.001315  1.709067  0.002  -0.882677  0.000585  1.987819  0.001  -0.925279  0.000216  1.982367  0.0  -0.597711  -0.850688  0.000775  1.991797  0.001
O  O127  1  0.68161330  0.66485648  0.54363099  1  -0.780325  0.00183  1.59431  0.003  -0.762461  0.001016  1.898984  0.001  -0.787265  0.000741  1.881044  0.001  -0.532282  -0.745142  0.001772  1.912303  0.002
O  O128  1  0.31838561  0.33514191  0.45636732  1  -0.780313  0.001726  1.594204  0.002  -0.762405  0.001018  1.898799  0.001  -0.787211  0.000723  1.880857  0.001  -0.532247  -0.745082  0.001772  1.912113  0.002
O  O129  1  0.92361045  0.61277826  0.46719948  1  -0.717904  -0.000342  1.429586  0.0  -0.710537  -0.000243  1.680026  0.0  -0.734575  -0.000343  1.667183  0.0  -0.524393  -0.693455  -0.000234  1.689915  0.0
O  O130  1  0.07638915  0.38721931  0.53280145  1  -0.717881  -0.000423  1.429695  0.0  -0.710515  -0.000246  1.680157  0.0  -0.73456  -0.000359  1.667315  0.0  -0.524387  -0.693428  -0.000234  1.690038  0.0
O  O131  1  0.77729494  0.73725607  0.38570476  1  -0.914864  -0.000507  1.826032  0.0  -0.912031  -0.000432  2.129761  0.0  -0.954386  -0.000365  2.125467  0.0  -0.598926  -0.880068  -0.000441  2.132086  0.0
O  O132  1  0.22270291  0.26274232  0.61429630  1  -0.914766  -0.00051  1.825958  0.0  -0.911901  -0.000421  2.129662  0.0  -0.954257  -0.000382  2.125367  0.0  -0.598893  -0.879935  -0.000441  2.131987  0.0
O  O133  1  0.98716914  0.70516281  0.25024661  1  -0.714793  -0.00031  1.454095  0.0  -0.709415  -0.000155  1.712509  0.0  -0.734306  -0.00024  1.703065  0.0  -0.526727  -0.691527  -8.4e-05  1.719706  0.0
O  O134  1  0.01283274  0.29483727  0.74975477  1  -0.714825  -0.000291  1.454051  0.0  -0.709453  -0.000143  1.71247  0.0  -0.734348  -0.000238  1.70303  0.0  -0.526749  -0.691561  -8.4e-05  1.719661  0.0
O  O135  1  0.75878923  0.78429591  0.21324954  1  -0.75021  0.00096  1.473504  0.001  -0.739147  0.00067  1.724386  0.001  -0.764825  0.000499  1.714373  0.001  -0.536775  -0.720322  0.000995  1.731902  0.001
O  O136  1  0.24120878  0.21569831  0.78675011  1  -0.750218  0.000882  1.473534  0.001  -0.739128  0.00068  1.724391  0.001  -0.764802  0.000486  1.71438  0.001  -0.53672  -0.720296  0.000995  1.731904  0.001
O  O137  1  0.05716722  0.93560589  0.26981587  1  -0.897664  0.001035  1.772342  0.002  -0.89867  0.000457  2.067468  0.001  -0.941812  0.000129  2.063931  0.0  -0.597814  -0.866238  0.000618  2.069846  0.001
O  O138  1  0.94282846  0.06439249  0.73018310  1  -0.897668  0.001006  1.772405  0.002  -0.898693  0.000458  2.067565  0.001  -0.941817  0.000127  2.063999  0.0  -0.597818  -0.866254  0.000618  2.069942  0.001
