# generated using pymatgen
data_CuH12(C9N5)2
_symmetry_space_group_name_H-M   'P 1'
_cell_length_a   7.19334110
_cell_length_b   6.90138010
_cell_length_c   9.69386845
_cell_angle_alpha   89.45622277
_cell_angle_beta   84.95297587
_cell_angle_gamma   71.28287557
_symmetry_Int_Tables_number   1
_chemical_formula_structural   CuH12(C9N5)2
_chemical_formula_sum   'Cu1 H12 C18 N10'
_cell_volume   453.93468829
_cell_formula_units_Z   1
loop_
 _symmetry_equiv_pos_site_id
 _symmetry_equiv_pos_as_xyz
  1  'x, y, z'
loop_
 _atom_site_type_symbol
 _atom_site_label
 _atom_site_symmetry_multiplicity
 _atom_site_fract_x
 _atom_site_fract_y
 _atom_site_fract_z
 _atom_site_occupancy
 _atom_site_hle17_ddec_charge
 _atom_site_hle17_ddec_spin_density
 _atom_site_hle17_ddec_sum_bond_order
 _atom_site_hle17_magmom
 _atom_site_hse06_10hf_ddec_charge
 _atom_site_hse06_10hf_ddec_spin_density
 _atom_site_hse06_10hf_ddec_sum_bond_order
 _atom_site_hse06_10hf_magmom
 _atom_site_hse06_ddec_charge
 _atom_site_hse06_ddec_spin_density
 _atom_site_hse06_ddec_sum_bond_order
 _atom_site_hse06_magmom
 _atom_site_pbe_cm5_charge
 _atom_site_pbe_ddec_charge
 _atom_site_pbe_ddec_spin_density
 _atom_site_pbe_ddec_sum_bond_order
 _atom_site_pbe_magmom
Cu  Cu0  1  0.00001341  0.00000168  0.00000326  1  0.963415  0.655308  1.98485  0.463  1.020199  0.810743  2.365852  0.676  1.092513  0.870908  2.311916  0.762  0.844414  0.956593  0.745761  2.419161  0.591
H  H1  1  0.16976968  0.28632165  0.67179154  1  0.105877  -0.001691  0.949081  -0.002  0.115355  -4.3e-05  1.010996  0.0  0.118002  -1.6e-05  1.011306  0.0  0.102939  0.113806  -9.3e-05  1.01031  0.0
H  H2  1  0.83022487  0.71369072  0.32820713  1  0.105817  -0.001688  0.949217  -0.002  0.115324  -4.3e-05  1.011092  0.0  0.117972  -1.6e-05  1.011402  0.0  0.102943  0.113774  -9.3e-05  1.010406  0.0
H  H3  1  0.12614682  0.22782134  0.42777832  1  0.09037  0.000234  0.963664  0.001  0.097348  1.7e-05  1.025177  0.0  0.099379  1.3e-05  1.024084  0.0  0.100469  0.096489  -3e-06  1.025922  0.0
H  H4  1  0.87384342  0.77216949  0.57221872  1  0.090364  0.000233  0.963578  0.001  0.097341  1.6e-05  1.025095  0.0  0.099373  1.3e-05  1.024002  0.0  0.100471  0.09648  -3e-06  1.025845  0.0
H  H5  1  0.80083428  0.23081161  0.35750125  1  0.106247  -0.001595  0.961503  -0.002  0.111694  -8.8e-05  1.028059  0.0  0.114079  -7.4e-05  1.028752  0.0  0.098775  0.110879  -9.6e-05  1.026409  0.0
H  H6  1  0.19915346  0.76916077  0.64249194  1  0.106244  -0.001592  0.96146  -0.002  0.111647  -8.8e-05  1.028069  0.0  0.114032  -7.3e-05  1.028763  0.0  0.098746  0.110833  -9.6e-05  1.026425  0.0
H  H7  1  0.51585079  0.29349924  0.53776846  1  0.098507  -9.5e-05  0.945665  0.0  0.108775  -2.3e-05  1.006054  0.0  0.111519  -8e-06  1.004443  0.0  0.104485  0.10708  -5.4e-05  1.006908  0.0
H  H8  1  0.48413798  0.70649619  0.46223276  1  0.098579  -9.6e-05  0.94555  0.0  0.108848  -2.2e-05  1.005933  0.0  0.111591  -8e-06  1.004324  0.0  0.1045  0.107157  -5.4e-05  1.006784  0.0
H  H9  1  0.78588267  0.42689177  0.95048623  1  0.325352  -0.000516  0.918043  -0.001  0.303771  -2.2e-05  0.996621  0.0  0.31021  -8e-06  0.991876  0.0  0.293997  0.299733  9e-06  0.998448  0.0
H  H10  1  0.21411049  0.57312059  0.04951357  1  0.325388  -0.000515  0.918058  -0.001  0.303818  -2.2e-05  0.996628  0.0  0.310259  -7e-06  0.991878  0.0  0.294027  0.29978  9e-06  0.998452  0.0
H  H11  1  0.02892470  0.37388010  0.89592675  1  0.325157  -0.000938  0.880851  -0.001  0.312391  -7.2e-05  0.943625  0.0  0.317906  -3.8e-05  0.940237  0.0  0.306292  0.308951  -0.000105  0.944645  0.0
H  H12  1  0.97106793  0.62613838  0.10406375  1  0.325077  -0.000937  0.880998  -0.001  0.312316  -7.1e-05  0.943762  0.0  0.317831  -3.8e-05  0.940374  0.0  0.306256  0.308874  -0.000105  0.944783  0.0
C  C13  1  0.40603325  0.89223598  0.83629458  1  0.523182  -0.013503  3.981947  -0.005  0.5093  -0.001869  4.243296  0.005  0.539562  -0.00379  4.252235  0.003  0.327916  0.485521  4.3e-05  4.24058  0.007
C  C14  1  0.59398476  0.10775516  0.16371925  1  0.523014  -0.013501  3.982234  -0.005  0.508993  -0.001873  4.243612  0.005  0.539258  -0.003794  4.252569  0.003  0.327793  0.485214  4.3e-05  4.240879  0.007
C  C15  1  0.73198475  0.85874776  0.82490944  1  0.506385  -0.002192  3.983603  0.0  0.492714  0.006701  4.249481  0.011  0.522391  0.005477  4.259061  0.01  0.316708  0.468765  0.007321  4.24765  0.011
C  C16  1  0.26804639  0.14123278  0.17510775  1  0.506724  -0.002157  3.983253  0.0  0.492968  0.006684  4.24905  0.011  0.522642  0.00546  4.258612  0.01  0.316772  0.46903  0.007313  4.247229  0.011
C  C17  1  0.86910055  0.32472259  0.74576107  1  0.311468  -0.003946  3.792752  -0.005  0.294912  -0.001542  4.066521  -0.001  0.307133  -0.000972  4.087435  -0.001  0.113495  0.286428  -0.001442  4.048788  -0.002
C  C18  1  0.13087883  0.67528042  0.25423864  1  0.311573  -0.003931  3.792619  -0.005  0.294925  -0.001534  4.06644  -0.001  0.307147  -0.000964  4.087363  -0.001  0.113533  0.28644  -0.001442  4.048707  -0.002
C  C19  1  0.02682381  0.28733629  0.64201216  1  -0.170269  0.037163  3.699045  0.033  -0.201398  0.002191  3.965573  0.002  -0.211415  0.000509  3.988083  0.001  -0.097167  -0.192675  0.005632  3.948231  0.005
C  C20  1  0.97317186  0.71266381  0.35798344  1  -0.170218  0.037109  3.699511  0.033  -0.20135  0.002186  3.966038  0.002  -0.211368  0.000509  3.98855  0.001  -0.097118  -0.192625  0.005628  3.948694  0.005
C  C21  1  0.00109843  0.25494685  0.50520717  1  -0.015092  -0.028  3.76136  -0.019  -0.023187  -0.001091  4.017797  -0.001  -0.018083  -0.000304  4.037176  0.0  -0.076324  -0.027472  -0.002661  4.003686  -0.002
C  C22  1  0.99889634  0.74505171  0.49478643  1  -0.01511  -0.027941  3.761454  -0.019  -0.023194  -0.001089  4.017845  -0.001  -0.018087  -0.000307  4.037218  0.0  -0.076344  -0.027483  -0.002659  4.003742  -0.002
C  C23  1  0.81757047  0.25737813  0.46545720  1  -0.089378  0.03762  3.754319  0.033  -0.12363  0.001715  4.034171  0.002  -0.131255  0.000306  4.057917  0.0  -0.103761  -0.115787  0.006976  4.014143  0.006
C  C24  1  0.18241595  0.74262034  0.53453590  1  -0.089309  0.03756  3.754328  0.033  -0.123486  0.001713  4.034139  0.002  -0.131109  0.000308  4.05788  0.0  -0.103732  -0.115651  0.00697  4.014126  0.006
C  C25  1  0.65981478  0.29195375  0.56559871  1  -0.061914  -0.014929  3.743199  -0.011  -0.089103  -0.000755  4.008954  0.0  -0.085761  -0.000316  4.028028  0.0  -0.077661  -0.090785  -0.001593  3.99321  -0.001
C  C26  1  0.34017107  0.70805086  0.43440057  1  -0.062077  -0.014897  3.743011  -0.011  -0.089308  -0.000751  4.008716  0.0  -0.085959  -0.000314  4.027794  0.0  -0.077668  -0.090995  -0.001593  3.992975  -0.001
C  C27  1  0.68290726  0.32633110  0.70553729  1  -0.10636  0.016723  3.852038  0.016  -0.095857  0.001097  4.098632  0.001  -0.106524  0.000253  4.123951  0.0  -0.018281  -0.086291  0.004296  4.078276  0.004
C  C28  1  0.31709259  0.67366904  0.29445391  1  -0.106308  0.016705  3.852029  0.016  -0.095637  0.00109  4.098445  0.001  -0.106322  0.000248  4.123793  0.0  -0.018265  -0.086072  0.004294  4.078086  0.004
C  C29  1  0.51874246  0.36103462  0.80506890  1  0.306022  -0.006595  3.761454  -0.005  0.289602  -0.000369  4.043502  0.0  0.303332  -0.000214  4.061022  0.0  0.192519  0.280218  -0.00084  4.029648  -0.001
C  C30  1  0.48123088  0.63896985  0.19492809  1  0.306275  -0.006613  3.761461  -0.005  0.289786  -0.000367  4.043498  0.0  0.303521  -0.000213  4.061031  0.0  0.192596  0.280401  -0.00084  4.029637  -0.001
N  N31  1  0.24419866  0.92488637  0.88637576  1  -0.600656  0.055985  3.05075  0.064  -0.578284  0.046121  3.354924  0.061  -0.61148  0.036315  3.358082  0.051  -0.41233  -0.556125  0.051179  3.356101  0.063
N  N32  1  0.75582970  0.07512942  0.11361868  1  -0.600411  0.055992  3.050285  0.064  -0.57803  0.04613  3.354537  0.061  -0.611237  0.036324  3.357723  0.051  -0.41215  -0.555862  0.051184  3.355678  0.063
N  N33  1  0.57712147  0.85418876  0.76876047  1  -0.469814  0.008775  3.271556  0.012  -0.408988  0.0038  3.506853  0.006  -0.435587  0.000829  3.510682  0.003  -0.301882  -0.39259  0.006582  3.508166  0.009
N  N34  1  0.42291313  0.14577647  0.23126073  1  -0.470035  0.008763  3.271758  0.012  -0.408975  0.003789  3.50689  0.006  -0.435566  0.000811  3.510713  0.003  -0.301986  -0.392588  0.006577  3.508205  0.009
N  N35  1  0.88357953  0.85393837  0.86503778  1  -0.59675  0.032073  2.874961  0.038  -0.568234  0.034106  3.15118  0.048  -0.596638  0.026226  3.154439  0.041  -0.397528  -0.551594  0.036488  3.15446  0.047
N  N36  1  0.11646541  0.14605151  0.13496918  1  -0.596927  0.032029  2.875131  0.038  -0.568454  0.034114  3.151412  0.048  -0.596849  0.026243  3.154661  0.041  -0.397535  -0.551825  0.036484  3.154694  0.047
N  N37  1  0.90069812  0.34694455  0.88168975  1  -0.641421  0.049948  3.162671  0.06  -0.650675  0.004541  3.441414  0.008  -0.673817  0.000429  3.440254  0.003  -0.583857  -0.626771  0.013942  3.436116  0.019
N  N38  1  0.09929700  0.65306168  0.11830275  1  -0.641529  0.049927  3.162645  0.06  -0.650757  0.00454  3.441373  0.008  -0.673897  0.000428  3.44021  0.003  -0.58395  -0.626853  0.013937  3.436075  0.019
N  N39  1  0.38163494  0.38883691  0.88611216  1  -0.4286  0.007854  2.609631  0.009  -0.406616  0.000222  2.842253  0.0  -0.419228  -6.8e-05  2.853654  0.0  -0.311008  -0.396075  0.001549  2.833062  0.002
N  N40  1  0.61833836  0.61120286  0.11387840  1  -0.428862  0.007868  2.60924  0.009  -0.406861  0.000221  2.841885  0.0  -0.41947  -6.8e-05  2.853285  0.0  -0.311098  -0.396325  0.00155  2.832691  0.002
