# generated using pymatgen
data_AlH6C24(ClO)6
_symmetry_space_group_name_H-M   'P 1'
_cell_length_a   3.99724873
_cell_length_b   29.21752754
_cell_length_c   29.21771262
_cell_angle_alpha   119.99896833
_cell_angle_beta   90.00038188
_cell_angle_gamma   90.00031482
_symmetry_Int_Tables_number   1
_chemical_formula_structural   AlH6C24(ClO)6
_chemical_formula_sum   'Al2 H12 C48 Cl12 O12'
_cell_volume   2955.19398674
_cell_formula_units_Z   2
loop_
 _symmetry_equiv_pos_site_id
 _symmetry_equiv_pos_as_xyz
  1  'x, y, z'
loop_
 _atom_site_type_symbol
 _atom_site_label
 _atom_site_symmetry_multiplicity
 _atom_site_fract_x
 _atom_site_fract_y
 _atom_site_fract_z
 _atom_site_occupancy
 _atom_site_pbe_bader_charge
 _atom_site_pbe_bader_spin_density
 _atom_site_pbe_cm5_charge
 _atom_site_pbe_ddec_charge
 _atom_site_pbe_ddec_spin_density
 _atom_site_pbe_ddec_sum_bond_order
 _atom_site_pbe_magmom
Al  Al0  1  0.00001117  0.49999989  0.50000094  1  2.507888  0  0.430784  1.616414  0  2.534521  0
Al  Al1  1  0.99956087  0.16666557  0.83334031  1  2.507958  0  0.430427  1.613843  0  2.538049  0
H  H2  1  0.50166197  0.21575627  0.63630148  1  0.053985  0  0.111111  0.131364  0  0.983081  0
H  H3  1  0.49800571  0.36370845  0.78424078  1  0.053476  0  0.111205  0.131503  0  0.983186  0
H  H4  1  0.49796635  0.30295803  0.54909397  1  0.080436  0  0.110995  0.131107  0  0.982998  0
H  H5  1  0.50196786  0.45089680  0.69703369  1  0.080598  0  0.111032  0.131148  0  0.98281  0
H  H6  1  0.50164316  0.92052587  0.78423289  1  0.104945  0  0.11112  0.131448  0  0.983091  0
H  H7  1  0.49802956  0.92053536  0.63628989  1  0.100054  0  0.111218  0.131485  0  0.983102  0
H  H8  1  0.49797289  0.74612929  0.69703537  1  0.083012  0  0.110953  0.131104  0  0.98287  0
H  H9  1  0.50198704  0.74613202  0.54909708  1  0.08379  0  0.111002  0.13114  0  0.982796  0
H  H10  1  0.50167350  0.36371094  0.07946466  1  0.100275  0  0.111152  0.131425  0  0.98315  0
H  H11  1  0.49806338  0.21577056  0.07948333  1  0.104673  0  0.111138  0.131309  0  0.983194  0
H  H12  1  0.49794176  0.45091129  0.25387167  1  0.084048  0  0.110962  0.131092  0  0.983004  0
H  H13  1  0.50196188  0.30297200  0.25387284  1  0.083175  0  0.11108  0.131183  0  0.982776  0
C  C14  1  0.50000735  0.45919014  0.41837665  1  1.579662  0  0.27563  0.679201  0  4.058607  0
C  C15  1  0.50000784  0.45918478  0.54081230  1  1.576101  0  0.275615  0.679223  0  4.058244  0
C  C16  1  0.50001504  0.58162399  0.54081314  1  1.579294  0  0.275655  0.679265  0  4.058615  0
C  C17  1  0.49955419  0.20748678  0.79253860  1  1.623407  0  0.274739  0.680311  0  4.05774  0
C  C18  1  0.49953449  0.08504319  0.79251954  1  1.615521  0  0.274936  0.680579  0  4.057654  0
C  C19  1  0.49956219  0.20746910  0.91496192  1  1.614464  0  0.275076  0.681121  0  4.056603  0
C  C20  1  0.49961653  0.23719753  0.76282138  1  0.124557  0  -0.013661  -0.153997  0  3.880147  0
C  C21  1  0.49847391  0.21060964  0.70713640  1  0.04381  0  0.023486  0.153614  0  4.039708  0
C  C22  1  0.49965953  0.23774501  0.67927923  1  -0.011029  0  -0.090805  -0.206668  0  3.929013  0
C  C23  1  0.49985633  0.29332846  0.70667542  1  0.296339  0  0.006438  0.177438  0  4.124308  0
C  C24  1  0.49996826  0.32073122  0.76225878  1  -0.01136  0  -0.090823  -0.206779  0  3.92943  0
C  C25  1  0.50092658  0.29288323  0.78940411  1  0.010158  0  0.023464  0.153639  0  4.039393  0
C  C26  1  0.49991869  0.32128199  0.67871676  1  -0.138029  0  -0.037209  -0.094722  0  4.083587  0
C  C27  1  0.49993854  0.34537975  0.65461246  1  -0.164285  0  -0.036117  -0.092941  0  4.084759  0
C  C28  1  0.49996338  0.37333780  0.62665477  1  0.257895  0  0.005665  0.174074  0  4.126224  0
C  C29  1  0.50001406  0.34593230  0.57106867  1  0.003034  0  -0.090442  -0.20501  0  3.92832  0
C  C30  1  0.50106212  0.37378014  0.54393307  1  0.081499  0  0.023476  0.15241  0  4.039849  0
C  C31  1  0.50000554  0.42947279  0.57052117  1  -0.077499  0  -0.013333  -0.150919  0  3.877509  0
C  C32  1  0.49892663  0.45606020  0.62621278  1  0.081388  0  0.023453  0.152406  0  4.040079  0
C  C33  1  0.49993252  0.42892132  0.65405773  1  0.00296  0  -0.090526  -0.20507  0  3.928229  0
C  C34  1  0.49958523  0.02561516  0.76280668  1  0.165518  0  -0.013788  -0.154162  0  3.879746  0
C  C35  1  0.49843494  0.99651237  0.78938908  1  0.04076  0  0.023556  0.153596  0  4.039666  0
C  C36  1  0.49964413  0.94152020  0.76224904  1  0.077044  0  -0.090847  -0.206662  0  3.92877  0
C  C37  1  0.49986742  0.91333912  0.70666434  1  0.029237  0  0.006544  0.177523  0  4.123885  0
C  C38  1  0.49997232  0.94152472  0.67926696  1  -0.036409  0  -0.090807  -0.206741  0  3.929204  0
C  C39  1  0.50090713  0.99651729  0.70711917  1  0.086364  0  0.023411  0.153634  0  4.039095  0
C  C40  1  0.49995079  0.85742859  0.67870949  1  -0.138366  0  -0.037206  -0.09484  0  4.084055  0
C  C41  1  0.49998186  0.80922674  0.65461278  1  -0.171716  0  -0.035976  -0.092582  0  4.085186  0
C  C42  1  0.49998768  0.75331087  0.62665574  1  0.175677  0  0.005515  0.173694  0  4.12692  0
C  C43  1  0.50002538  0.72513019  0.65406121  1  0.049639  0  -0.090413  -0.205012  0  3.928356  0
C  C44  1  0.50106693  0.67014772  0.62621396  1  -0.047878  0  0.023502  0.152475  0  4.039941  0
C  C45  1  0.50001432  0.64104417  0.57052291  1  0.186291  0  -0.013437  -0.150965  0  3.877903  0
C  C46  1  0.49893845  0.67014919  0.54393586  1  -0.092225  0  0.023475  0.152379  0  4.039855  0
C  C47  1  0.49995080  0.72513228  0.57107197  1  0.093357  0  -0.090568  -0.205072  0  3.92829  0
C  C48  1  0.49964172  0.23718938  0.97439106  1  0.164974  0  -0.01382  -0.154455  0  3.879971  0
C  C49  1  0.49849069  0.29287552  0.00348551  1  0.089821  0  0.023436  0.153608  0  4.039831  0
C  C50  1  0.49969336  0.32073255  0.05847702  1  -0.038717  0  -0.090814  -0.206662  0  3.929119  0
C  C51  1  0.49990871  0.29333589  0.08666531  1  0.028249  0  0.0065  0.17734  0  4.124437  0
C  C52  1  0.50003962  0.23775264  0.05848722  1  0.076775  0  -0.090968  -0.206571  0  3.929183  0
C  C53  1  0.50098344  0.21060730  0.00349523  1  0.040992  0  0.023644  0.153731  0  4.039234  0
C  C54  1  0.49993559  0.32129320  0.14257439  1  -0.138238  0  -0.037177  -0.094612  0  4.083912  0
C  C55  1  0.49994971  0.34539506  0.19077831  1  -0.166554  0  -0.036009  -0.092729  0  4.085319  0
C  C56  1  0.49994908  0.37335098  0.24669153  1  0.170265  0  0.005548  0.17359  0  4.127181  0
C  C57  1  0.49999079  0.42893775  0.27487157  1  0.093926  0  -0.090437  -0.204957  0  3.928477  0
C  C58  1  0.50104584  0.45607081  0.32985325  1  -0.09357  0  0.023428  0.152397  0  4.039748  0
C  C59  1  0.49999786  0.42948239  0.35895689  1  0.186171  0  -0.013427  -0.150972  0  3.878009  0
C  C60  1  0.49892041  0.37379276  0.32985432  1  -0.047823  0  0.023472  0.152411  0  4.03993  0
C  C61  1  0.49991926  0.34594487  0.27487078  1  0.049896  0  -0.090522  -0.204913  0  3.928134  0
Cl  Cl62  1  0.50945687  0.14255047  0.67094829  1  -0.172614  0  -0.000381  -0.0628  0  1.594087  0
Cl  Cl63  1  0.48988630  0.32908150  0.85746232  1  -0.173272  0  -0.000518  -0.062951  0  1.593845  0
Cl  Cl64  1  0.48990213  0.33760207  0.47588201  1  -0.155417  0  -0.000733  -0.063089  0  1.59353  0
Cl  Cl65  1  0.51013894  0.52411104  0.66239216  1  -0.155002  0  -0.000716  -0.06309  0  1.593662  0
Cl  Cl66  1  0.50936182  0.02837567  0.85744832  1  -0.17012  0  -0.00044  -0.062834  0  1.593816  0
Cl  Cl67  1  0.48984884  0.02838544  0.67092776  1  -0.178323  0  -0.000487  -0.06293  0  1.593865  0
Cl  Cl68  1  0.48987455  0.63827363  0.66239247  1  -0.16445  0  -0.00075  -0.063118  0  1.593539  0
Cl  Cl69  1  0.51012391  0.63827771  0.47588519  1  -0.153509  0  -0.000657  -0.063026  0  1.593616  0
Cl  Cl70  1  0.50943253  0.32906289  0.97161302  1  -0.177827  0  -0.000378  -0.06278  0  1.594116  0
Cl  Cl71  1  0.48993079  0.14254834  0.97163631  1  -0.16964  0  -0.000495  -0.062885  0  1.593664  0
Cl  Cl72  1  0.48989267  0.52412280  0.36172523  1  -0.154367  0  -0.000704  -0.063069  0  1.593468  0
Cl  Cl73  1  0.51013576  0.33761332  0.36172711  1  -0.164166  0  -0.000721  -0.063108  0  1.593659  0
O  O74  1  0.73715046  0.55856402  0.55024887  1  -1.243989  0  -0.230717  -0.589342  0  2.394911  0
O  O75  1  0.73714660  0.49168517  0.44143675  1  -1.248898  0  -0.230741  -0.589337  0  2.394869  0
O  O76  1  0.73714749  0.44975052  0.50831691  1  -1.239284  0  -0.230753  -0.589298  0  2.394719  0
O  O77  1  0.26287822  0.55856546  0.50831872  1  -1.248553  0  -0.230744  -0.589295  0  2.394843  0
O  O78  1  0.26287805  0.49167957  0.55024814  1  -1.239  0  -0.23079  -0.589351  0  2.39478  0
O  O79  1  0.26287464  0.44975302  0.44143555  1  -1.243644  0  -0.230699  -0.58924  0  2.394852  0
O  O80  1  0.73666412  0.17496950  0.89189490  1  -1.247543  0  -0.230483  -0.589452  0  2.39518  0
O  O81  1  0.73666324  0.21691843  0.82503811  1  -1.252066  0  -0.230351  -0.589133  0  2.395331  0
O  O82  1  0.73665026  0.10811037  0.78308906  1  -1.249541  0  -0.230565  -0.58948  0  2.395395  0
O  O83  1  0.26239616  0.21690513  0.89190192  1  -1.249391  0  -0.230771  -0.589493  0  2.394544  0
O  O84  1  0.26238508  0.10810321  0.82501782  1  -1.248128  0  -0.230527  -0.588979  0  2.39495  0
O  O85  1  0.26239525  0.17498820  0.78310094  1  -1.250917  0  -0.230592  -0.589129  0  2.394795  0
