# generated using pymatgen
data_Cu2H20W(C7N3)4
_symmetry_space_group_name_H-M   'P 1'
_cell_length_a   13.29480775
_cell_length_b   15.31318840
_cell_length_c   15.30895631
_cell_angle_alpha   79.20476905
_cell_angle_beta   64.39119634
_cell_angle_gamma   64.34152997
_symmetry_Int_Tables_number   1
_chemical_formula_structural   Cu2H20W(C7N3)4
_chemical_formula_sum   'Cu4 H40 W2 C56 N24'
_cell_volume   2533.38067964
_cell_formula_units_Z   2
loop_
 _symmetry_equiv_pos_site_id
 _symmetry_equiv_pos_as_xyz
  1  'x, y, z'
loop_
 _atom_site_type_symbol
 _atom_site_label
 _atom_site_symmetry_multiplicity
 _atom_site_fract_x
 _atom_site_fract_y
 _atom_site_fract_z
 _atom_site_occupancy
 _atom_site_pbe_bader_charge
 _atom_site_pbe_bader_spin_density
 _atom_site_pbe_cm5_charge
 _atom_site_pbe_ddec_charge
 _atom_site_pbe_ddec_spin_density
 _atom_site_pbe_ddec_sum_bond_order
 _atom_site_pbe_magmom
Cu  Cu0  1  0.50046693  0.00004818  0.00038782  1  1.006484  0.49234  0.795758  0.685611  0.653529  2.377767  0.494
Cu  Cu1  1  0.50094154  0.49999983  0.49971262  1  1.007929  0.491999  0.796248  0.68532  0.653396  2.379627  0.494
Cu  Cu2  1  0.00059847  0.00013576  0.50009240  1  1.005292  0.494242  0.797318  0.686702  0.656225  2.37822  0.496
Cu  Cu3  1  0.50109964  0.49956578  0.99993395  1  1.006085  0.493175  0.796823  0.685899  0.655125  2.380342  0.495
H  H4  1  0.63794452  0.96558719  0.78552494  1  0.118874  0.002695  0.124218  0.104071  0.00134  0.995353  0.002
H  H5  1  0.65643187  0.79031680  0.02606406  1  0.175431  0.002639  0.122066  0.104456  0.001337  1.0192  0.001
H  H6  1  0.81593325  0.64844303  0.92428766  1  0.116506  0.001595  0.120208  0.131685  0.000862  0.972916  0.001
H  H7  1  0.88927295  0.66552808  0.74143599  1  0.127691  0.000188  0.11699  0.112015  0.000107  0.968669  0.0
H  H8  1  0.79817726  0.82909888  0.67231431  1  0.05439  0.001576  0.115729  0.119931  0.0008  0.976591  0.001
H  H9  1  0.38912265  0.53473530  0.71456889  1  0.146039  0.002652  0.124347  0.104131  0.001331  0.996059  0.002
H  H10  1  0.47310689  0.70992253  0.47404786  1  0.132274  0.002644  0.122139  0.104892  0.001335  1.018501  0.001
H  H11  1  0.38862422  0.85202002  0.57580645  1  0.108755  0.001606  0.120143  0.131654  0.000868  0.974129  0.001
H  H12  1  0.29596112  0.83507472  0.75862033  1  0.095913  0.000187  0.116825  0.111357  0.000107  0.968097  0.0
H  H13  1  0.29935955  0.67145811  0.82778263  1  0.108011  0.001564  0.116036  0.120635  0.000814  0.975832  0.001
H  H14  1  0.10324478  0.78536421  0.53484243  1  0.141925  0.002703  0.124733  0.104274  0.001359  0.99473  0.002
H  H15  1  0.94740111  0.02630617  0.70947482  1  0.117129  0.002695  0.122315  0.104674  0.001344  1.018525  0.001
H  H16  1  0.96495669  0.92485072  0.85159203  1  0.105835  0.001622  0.120335  0.131941  0.000873  0.972829  0.001
H  H17  1  0.05487781  0.74192338  0.83501506  1  0.099265  0.000188  0.116468  0.111325  0.000107  0.968363  0.0
H  H18  1  0.12689966  0.67241183  0.67165452  1  0.055013  0.001598  0.116062  0.120621  0.000814  0.9765  0.001
H  H19  1  0.42359574  0.71448198  0.96522787  1  0.130088  0.002707  0.12413  0.10392  0.001355  0.995731  0.002
H  H20  1  0.68272328  0.47411655  0.79000615  1  0.127241  0.002673  0.122173  0.104639  0.001345  1.018642  0.001
H  H21  1  0.74041871  0.57603891  0.64820237  1  0.14205  0.001581  0.120547  0.132524  0.000868  0.972573  0.001
H  H22  1  0.63101078  0.75887102  0.66534343  1  0.096284  0.000189  0.116146  0.110547  0.000109  0.968915  0.0
H  H23  1  0.47071823  0.82784007  0.82884203  1  0.108814  0.001575  0.116101  0.120605  0.000822  0.975685  0.001
H  H24  1  0.35824736  0.03631177  0.21515408  1  0.14964  0.002376  0.123439  0.10413  0.001156  0.997672  0.002
H  H25  1  0.34108982  0.21122995  0.97443366  1  0.174584  0.002531  0.121519  0.103493  0.001267  1.016991  0.002
H  H26  1  0.18229122  0.35373671  0.07600652  1  0.12748  0.001519  0.119723  0.131035  0.00083  0.973302  0.001
H  H27  1  0.10904140  0.33697490  0.25881174  1  0.110548  0.000263  0.116109  0.111414  0.000151  0.968528  0.0
H  H28  1  0.19906698  0.17334414  0.32834675  1  0.097044  0.00138  0.115721  0.120392  0.000709  0.976374  0.001
H  H29  1  0.61000413  0.46357732  0.28481643  1  0.125842  0.002423  0.123668  0.104835  0.001168  0.997379  0.002
H  H30  1  0.52669021  0.28879338  0.52553760  1  0.175945  0.002534  0.12121  0.10311  0.001272  1.016801  0.002
H  H31  1  0.61190003  0.14617018  0.42401627  1  0.127022  0.001521  0.119664  0.131075  0.000834  0.972338  0.001
H  H32  1  0.70492114  0.16276132  0.24120237  1  0.106423  0.000252  0.116104  0.110623  0.000145  0.968902  0.0
H  H33  1  0.70103214  0.32638850  0.17167763  1  0.080693  0.001428  0.115234  0.119377  0.000724  0.977216  0.001
H  H34  1  0.89552470  0.21484025  0.46350418  1  0.130177  0.002442  0.123577  0.103191  0.001175  0.998868  0.002
H  H35  1  0.05188948  0.97400148  0.28896831  1  0.119282  0.002604  0.121513  0.103838  0.001273  1.016329  0.002
H  H36  1  0.03538677  0.07551760  0.14640135  1  0.089951  0.001565  0.119574  0.130728  0.000841  0.973885  0.001
H  H37  1  0.94592336  0.25838648  0.16291963  1  0.076345  0.000261  0.115993  0.109923  0.00015  0.96981  0.0
H  H38  1  0.87324181  0.32797523  0.32639713  1  0.081453  0.001408  0.115319  0.119616  0.000728  0.976778  0.001
H  H39  1  0.57374346  0.28474655  0.03637898  1  0.151121  0.002407  0.123567  0.103951  0.001178  0.997237  0.002
H  H40  1  0.31554955  0.52540809  0.21101292  1  0.128479  0.002603  0.121437  0.103353  0.001283  1.016329  0.002
H  H41  1  0.25824603  0.42377730  0.35349092  1  0.124612  0.001548  0.119483  0.130917  0.000842  0.97354  0.001
H  H42  1  0.36787816  0.24098375  0.33689297  1  0.090703  0.000257  0.116316  0.111201  0.000148  0.96847  0.0
H  H43  1  0.52772373  0.17150865  0.17342414  1  0.097194  0.001408  0.115321  0.119299  0.000725  0.976198  0.001
W  W44  1  0.62639439  0.24987756  0.74992751  1  1.963631  0.177916  0.965891  0.567023  0.172245  5.99502  0.172
W  W45  1  0.37611245  0.75000362  0.25005969  1  1.969059  0.179732  0.967024  0.574791  0.174076  5.983643  0.174
C  C46  1  0.58200603  0.14528272  0.85300247  1  0.772333  -0.001377  0.033446  0.05572  -0.006293  3.782346  -0.002
C  C47  1  0.67961137  0.89383038  0.81272598  1  0.402813  -0.00013  0.049162  0.087303  -0.000643  3.926952  0.0
C  C48  1  0.42931966  0.31619584  0.81746706  1  0.668848  -0.003195  -0.014415  -0.029864  -0.005634  3.863192  -0.004
C  C49  1  0.68983830  0.79658722  0.94750644  1  0.435444  -0.000629  0.055709  0.102107  -0.001026  3.896474  0.0
C  C50  1  0.77995270  0.71670583  0.88928117  1  -0.014806  0.00644  -0.074  -0.116958  0.00452  3.941335  0.005
C  C51  1  0.81986296  0.72691112  0.78897403  1  -0.067253  -0.004025  -0.061455  -0.031818  -0.004434  3.98914  -0.003
C  C52  1  0.76919870  0.81725505  0.75026215  1  0.040397  0.006412  -0.081154  -0.130746  0.004534  3.996047  0.005
C  C53  1  0.58006802  0.35462139  0.64711743  1  0.766157  -0.001302  0.031898  0.054106  -0.006234  3.782013  -0.002
C  C54  1  0.38626306  0.60650111  0.68735441  1  0.452049  -0.000384  0.048873  0.087473  -0.000666  3.929458  0.0
C  C55  1  0.56293182  0.18338409  0.68254463  1  0.674643  -0.003144  -0.013737  -0.027962  -0.005597  3.862321  -0.004
C  C56  1  0.43409927  0.70371203  0.55259940  1  0.483505  -0.000624  0.056154  0.103023  -0.001002  3.896316  0.0
C  C57  1  0.38592957  0.78373453  0.61081602  1  0.035369  0.00649  -0.073771  -0.117493  0.004529  3.941888  0.005
C  C58  1  0.33561352  0.77357081  0.71110969  1  -0.138417  -0.004028  -0.061772  -0.030649  -0.004427  3.987862  -0.003
C  C59  1  0.33663289  0.68320923  0.74983347  1  -0.033036  0.006637  -0.081663  -0.131807  0.004551  3.99665  0.005
C  C60  1  0.22708532  0.85284613  0.35481982  1  0.766497  -0.000728  0.033554  0.055297  -0.005849  3.780413  -0.002
C  C61  1  0.07334290  0.81271867  0.60651461  1  0.425314  -0.000212  0.049533  0.088349  -0.000673  3.925733  0.0
C  C62  1  0.24553492  0.81749376  0.18343093  1  0.695047  -0.003163  -0.016719  -0.035029  -0.00568  3.864323  -0.004
C  C63  1  0.98683265  0.94772697  0.70340520  1  0.52929  -0.000789  0.055255  0.101975  -0.001065  3.894509  0.0
C  C64  1  0.99706155  0.88964813  0.78344830  1  -0.1094  0.006625  -0.073041  -0.116205  0.004593  3.93998  0.005
C  C65  1  0.04685337  0.78932456  0.77349887  1  -0.002275  -0.004066  -0.060954  -0.030494  -0.004487  3.988064  -0.003
C  C66  1  0.08630947  0.75038873  0.68327762  1  0.020117  0.006616  -0.081216  -0.131466  0.004591  3.996372  0.005
C  C67  1  0.43468885  0.64698413  0.14539381  1  0.761413  -0.001462  0.032029  0.054548  -0.006429  3.78341  -0.002
C  C68  1  0.49253719  0.68734824  0.89352294  1  0.43056  -0.000319  0.049199  0.086435  -0.000624  3.929615  0.0
C  C69  1  0.24642362  0.68242029  0.31636594  1  0.692161  -0.003111  -0.015561  -0.032962  -0.005598  3.863058  -0.004
C  C70  1  0.63751209  0.55267182  0.79630161  1  0.488988  -0.000666  0.055842  0.102484  -0.001018  3.897603  0.0
C  C71  1  0.66943915  0.61097523  0.71643921  1  0.021825  0.006558  -0.073877  -0.118651  0.004552  3.94329  0.005
C  C72  1  0.60904719  0.71127130  0.72668977  1  -0.15487  -0.00405  -0.060556  -0.028506  -0.004448  3.987653  -0.003
C  C73  1  0.51967701  0.74990093  0.81698286  1  0.024569  0.006503  -0.081491  -0.131036  0.004562  3.994582  0.005
C  C74  1  0.42055920  0.85481741  0.14804407  1  0.776101  -0.003159  0.03258  0.054679  -0.007207  3.784263  -0.002
C  C75  1  0.31679334  0.10815566  0.18798797  1  0.453535  -0.000299  0.048992  0.087995  -0.000545  3.932224  0.0
C  C76  1  0.57312627  0.68430849  0.18220293  1  0.708499  -0.00248  -0.013734  -0.029043  -0.005066  3.863704  -0.004
C  C77  1  0.30728438  0.20518613  0.05305316  1  0.393194  8e-06  0.055298  0.103323  -0.000531  3.904105  0.0
C  C78  1  0.21779239  0.28538597  0.11107949  1  -0.029866  0.006578  -0.07495  -0.119225  0.004697  3.943947  0.005
C  C79  1  0.17791648  0.27535027  0.21142131  1  0.015767  -0.003834  -0.061508  -0.031709  -0.004232  3.990232  -0.002
C  C80  1  0.22790751  0.18498353  0.25037282  1  -0.088266  0.006759  -0.082294  -0.132556  0.004621  3.998968  0.005
C  C81  1  0.42339260  0.64519285  0.35206304  1  0.770348  -0.003116  0.031586  0.053488  -0.007114  3.784327  -0.002
C  C82  1  0.61313287  0.39174209  0.31202166  1  0.50836  -0.000395  0.047777  0.085002  -0.000558  3.933754  0.0
C  C83  1  0.43934479  0.81608251  0.31807116  1  0.675544  -0.002632  -0.015276  -0.031881  -0.005128  3.869278  -0.004
C  C84  1  0.56557000  0.29479728  0.44692562  1  0.40095  -8.4e-05  0.054582  0.101967  -0.000558  3.905206  0.0
C  C85  1  0.61421357  0.21450547  0.38891122  1  -0.003098  0.006681  -0.074245  -0.118227  0.004692  3.942463  0.005
C  C86  1  0.66476956  0.22445481  0.28858718  1  -0.049233  -0.003848  -0.063063  -0.031807  -0.004236  3.989537  -0.002
C  C87  1  0.66344836  0.31480607  0.24964458  1  -0.052598  0.006729  -0.080205  -0.12957  0.004626  3.996515  0.005
C  C88  1  0.77547813  0.14779162  0.64507259  1  0.757612  -0.002461  0.031748  0.054364  -0.006545  3.782037  -0.002
C  C89  1  0.92559945  0.18761414  0.39172329  1  0.485903  -0.000352  0.048189  0.087755  -0.000595  3.933345  0.0
C  C90  1  0.75772040  0.18200949  0.81578377  1  0.664062  -0.002527  -0.012696  -0.026035  -0.004983  3.864525  -0.004
C  C91  1  0.01237312  0.05262917  0.29490810  1  0.513878  -0.000262  0.054894  0.101881  -0.000555  3.902253  0.0
C  C92  1  0.00287266  0.11066853  0.21466371  1  -0.027076  0.006824  -0.074087  -0.118621  0.004755  3.943972  0.005
C  C93  1  0.95328661  0.21100814  0.22457145  1  -0.025623  -0.003883  -0.061457  -0.028819  -0.004277  3.988532  -0.003
C  C94  1  0.91341846  0.25000536  0.31483574  1  0.007076  0.006724  -0.081167  -0.131491  0.004666  3.997668  0.005
C  C95  1  0.56896233  0.35182951  0.85474223  1  0.759688  -0.002983  0.031782  0.055037  -0.00703  3.784438  -0.002
C  C96  1  0.50507779  0.31190217  0.10816263  1  0.412536  -0.000198  0.048503  0.086728  -0.000565  3.930173  0.0
C  C97  1  0.75554360  0.31792586  0.68396375  1  0.664202  -0.002586  -0.01293  -0.027285  -0.005056  3.861626  -0.004
C  C98  1  0.36051078  0.44679329  0.20503274  1  0.462706  -0.000142  0.054625  0.10272  -0.000539  3.902906  0.0
C  C99  1  0.32892289  0.38872270  0.28521407  1  0.017328  0.006756  -0.074395  -0.119628  0.00474  3.943596  0.005
C  C100  1  0.38944831  0.28838976  0.27526217  1  -0.033723  -0.00387  -0.06198  -0.030823  -0.004261  3.98813  -0.002
C  C101  1  0.47852315  0.24947519  0.18500465  1  -0.057591  0.006668  -0.081137  -0.130207  0.004657  3.994358  0.005
N  N102  1  0.63997679  0.88331993  0.90987413  1  -1.198812  0.106767  -0.329382  -0.231603  0.073171  3.579144  0.093
N  N103  1  0.55438774  0.08754956  0.90885735  1  -1.375535  0.077238  -0.429173  -0.391928  0.052587  3.572003  0.062
N  N104  1  0.32305725  0.35311298  0.85658836  1  -1.249201  0.013009  -0.384674  -0.365717  0.008251  2.865413  0.009
N  N105  1  0.43337354  0.61695175  0.59022001  1  -1.19934  0.106886  -0.329598  -0.233392  0.073249  3.579589  0.093
N  N106  1  0.55004394  0.41278271  0.59169839  1  -1.37252  0.077363  -0.428413  -0.39019  0.05265  3.571794  0.062
N  N107  1  0.53271136  0.14633655  0.64329409  1  -1.252203  0.012914  -0.386193  -0.367889  0.008188  2.862694  0.009
N  N108  1  0.02346315  0.90989702  0.61677529  1  -1.190574  0.107764  -0.330435  -0.232639  0.073885  3.579113  0.094
N  N109  1  0.14191414  0.90857131  0.41264184  1  -1.369899  0.077603  -0.428959  -0.39198  0.052977  3.570672  0.062
N  N110  1  0.17622339  0.85669641  0.14631684  1  -1.275548  0.013227  -0.383248  -0.362722  0.008389  2.863061  0.009
N  N111  1  0.55007089  0.59021089  0.88299526  1  -1.22534  0.107665  -0.329529  -0.23215  0.07366  3.579448  0.094
N  N112  1  0.46314626  0.59134117  0.08730275  1  -1.361524  0.077217  -0.428591  -0.391087  0.052698  3.574354  0.062
N  N113  1  0.17926114  0.64321985  0.35330604  1  -1.272932  0.012682  -0.384274  -0.364501  0.008042  2.864934  0.009
N  N114  1  0.35624290  0.11848050  0.09093437  1  -1.217778  0.105659  -0.327889  -0.235156  0.072163  3.571186  0.092
N  N115  1  0.44578594  0.91576781  0.09626471  1  -1.381007  0.079102  -0.430052  -0.392749  0.053473  3.574021  0.064
N  N116  1  0.67936511  0.64782395  0.14269257  1  -1.29155  0.010296  -0.385606  -0.36624  0.006532  2.861788  0.007
N  N117  1  0.56582499  0.38149642  0.40907500  1  -1.233865  0.105974  -0.326219  -0.232827  0.072384  3.571922  0.092
N  N118  1  0.45796913  0.58421185  0.40377579  1  -1.376061  0.078934  -0.429373  -0.391603  0.053332  3.573898  0.063
N  N119  1  0.46947048  0.85290101  0.35761496  1  -1.25209  0.010739  -0.384323  -0.364126  0.006806  2.864959  0.007
N  N120  1  0.97503528  0.09055658  0.38155083  1  -1.264171  0.106597  -0.327071  -0.233052  0.072774  3.568749  0.092
N  N121  1  0.86153562  0.09607047  0.58413820  1  -1.364239  0.079057  -0.428809  -0.392451  0.053507  3.572074  0.064
N  N122  1  0.82745237  0.14240847  0.85245104  1  -1.243316  0.010347  -0.386714  -0.368379  0.006553  2.86302  0.007
N  N123  1  0.44742063  0.40894958  0.11841802  1  -1.207716  0.106677  -0.326752  -0.233233  0.07289  3.568249  0.093
N  N124  1  0.54256862  0.40360044  0.91571009  1  -1.361462  0.079088  -0.430466  -0.393041  0.053499  3.573504  0.064
N  N125  1  0.82224670  0.35754855  0.64732367  1  -1.241363  0.010688  -0.386225  -0.367273  0.006769  2.860737  0.007
