# generated using pymatgen
data_Zn4H69C87S4(N9O4)3
_symmetry_space_group_name_H-M   'P 1'
_cell_length_a   19.07397899
_cell_length_b   19.32694057
_cell_length_c   20.05825745
_cell_angle_alpha   105.70285003
_cell_angle_beta   107.24134200
_cell_angle_gamma   112.50629990
_symmetry_Int_Tables_number   1
_chemical_formula_structural   Zn4H69C87S4(N9O4)3
_chemical_formula_sum   'Zn4 H69 C87 S4 N27 O12'
_cell_volume   5873.52190206
_cell_formula_units_Z   1
loop_
 _symmetry_equiv_pos_site_id
 _symmetry_equiv_pos_as_xyz
  1  'x, y, z'
loop_
 _atom_site_type_symbol
 _atom_site_label
 _atom_site_symmetry_multiplicity
 _atom_site_fract_x
 _atom_site_fract_y
 _atom_site_fract_z
 _atom_site_occupancy
 _atom_site_pbe_bader_charge
 _atom_site_pbe_bader_spin_density
 _atom_site_pbe_cm5_charge
 _atom_site_pbe_ddec_charge
 _atom_site_pbe_ddec_spin_density
 _atom_site_pbe_ddec_sum_bond_order
 _atom_site_pbe_magmom
Zn  Zn0  1  0.87845458  0.89254148  0.44799524  1  1.210868  0  0.747331  0.673841  0  2.392014  0
Zn  Zn1  1  0.09201896  0.08340872  0.50217512  1  1.201491  0  0.75172  0.604324  0  2.526607  0
Zn  Zn2  1  0.12437830  0.00673763  0.63111597  1  1.210309  0  0.751282  0.650642  0  2.431021  0
Zn  Zn3  1  0.88362571  0.99774597  0.36052369  1  1.221971  0  0.738526  0.664938  0  2.44169  0
H  H4  1  0.88834455  0.86396125  0.68154071  1  0.05755  0  0.112249  0.096107  0  1.009212  0
H  H5  1  0.15368635  0.27465965  0.52415848  1  0.121583  0  0.129619  0.123151  0  0.973395  0
H  H6  1  0.83725767  0.12349036  0.45486305  1  0.086572  0  0.111211  0.102266  0  1.007762  0
H  H7  1  0.04191423  0.21836288  0.59070095  1  0.114008  0  0.117139  0.105755  0  1.018374  0
H  H8  1  0.14396116  0.90584536  0.74356005  1  0.101728  0  0.119185  0.11377  0  0.990064  0
H  H9  1  0.68319905  0.72871449  0.33730263  1  0.122048  0  0.118796  0.119209  0  1.011889  0
H  H10  1  0.27437816  0.14828441  0.50018370  1  0.078162  0  0.119405  0.110961  0  0.99242  0
H  H11  1  0.13606788  0.86526882  0.53138625  1  0.104435  0  0.125388  0.122125  0  0.979671  0
H  H12  1  0.85713944  0.81952652  0.26587195  1  0.122309  0  0.119784  0.112965  0  1.015693  0
H  H13  1  0.13149124  0.97515410  0.38361077  1  0.066601  0  0.120803  0.106402  0  1.002622  0
H  H14  1  0.32123582  0.04410150  0.66295776  1  0.095218  0  0.12443  0.117921  0  0.981759  0
H  H15  1  0.34832868  0.04685693  0.45427753  1  0.064345  0  0.092607  0.093792  0  1.021636  0
H  H16  1  0.49414901  0.19368214  0.70122564  1  0.067628  0  0.09935  0.104696  0  1.031683  0
H  H17  1  0.83097521  0.16690281  0.67923552  1  0.060897  0  0.098477  0.099452  0  1.044717  0
H  H18  1  0.68155222  0.02134688  0.43231749  1  0.029374  0  0.098686  0.105493  0  1.005855  0
H  H19  1  0.53947338  0.00065486  0.36651941  1  0.077666  0  0.101788  0.104661  0  0.992875  0
H  H20  1  0.41662880  0.01174306  0.37453187  1  0.032268  0  0.099767  0.101508  0  0.996435  0
H  H21  1  0.05320657  0.71927366  0.60275836  1  0.112356  0  0.105695  0.118658  0  1.035317  0
H  H22  1  0.07300091  0.36747002  0.56000382  1  0.071903  0  0.10277  0.104964  0  1.038895  0
H  H23  1  0.00087585  0.30243815  0.31713443  1  0.066908  0  0.104048  0.120957  0  1.010937  0
H  H24  1  0.97471420  0.39356613  0.26241041  1  0.073977  0  0.104894  0.111707  0  0.988311  0
H  H25  1  0.96274676  0.51753481  0.27685551  1  0.074772  0  0.105475  0.105653  0  1.023664  0
H  H26  1  0.08687699  0.24001687  0.84320595  1  0.09756  0  0.106431  0.121068  0  1.007136  0
H  H27  1  0.17353936  0.37524360  0.96196156  1  0.09257  0  0.109285  0.1183  0  0.996519  0
H  H28  1  0.41963044  0.49908230  0.12308606  1  0.074207  0  0.105774  0.108115  0  0.996197  0
H  H29  1  0.56691909  0.61083348  0.22128377  1  0.056071  0  0.101039  0.105099  0  0.998218  0
H  H30  1  0.15041512  0.36993485  0.70666697  1  0.061334  0  0.101972  0.102711  0  1.005144  0
H  H31  1  0.37452267  0.67640544  0.05468854  1  0.086646  0  0.107075  0.111097  0  1.005086  0
H  H32  1  0.22749706  0.50469863  0.82375366  1  0.095387  0  0.112997  0.122315  0  0.980155  0
H  H33  1  0.52048806  0.78963422  0.15512924  1  0.073485  0  0.103643  0.108509  0  1.012372  0
H  H34  1  0.86869382  0.78334034  0.15081795  1  0.038327  0  0.095923  0.094361  0  1.012303  0
H  H35  1  0.88102266  0.73968068  0.02941673  1  0.084698  0  0.098942  0.096653  0  1.029078  0
H  H36  1  0.87007430  0.79650932  0.74743381  1  0.057727  0  0.100428  0.108256  0  1.038993  0
H  H37  1  0.13378096  0.86801002  0.28241130  1  0.054218  0  0.098164  0.099845  0  1.001466  0
H  H38  1  0.10976056  0.79744908  0.93502851  1  0.097432  0  0.109069  0.11515  0  0.995589  0
H  H39  1  0.14528624  0.82485023  0.15923948  1  0.066546  0  0.105366  0.110623  0  0.993394  0
H  H40  1  0.12684338  0.84067635  0.83226070  1  0.074628  0  0.100802  0.113656  0  1.008295  0
H  H41  1  0.79887646  0.58857598  0.38640629  1  0.628994  0  0.353574  0.405029  0  0.836598  0
H  H42  1  0.71890313  0.93990213  0.21331151  1  0.470768  0  0.293965  0.255636  0  1.00338  0
H  H43  1  0.63321004  0.86130763  0.07716235  1  0.034214  0  0.105334  0.114333  0  0.974586  0
H  H44  1  0.59915212  0.76780637  0.08844801  1  0.07068  0  0.100051  0.107988  0  1.018735  0
H  H45  1  0.70629977  0.82575728  0.10501216  1  0.010457  0  0.085237  0.079892  0  1.000502  0
H  H46  1  0.71108961  0.31210429  0.81298430  1  0.392412  0  0.293394  0.227289  0  0.97188  0
H  H47  1  0.66424012  0.19243808  0.84881217  1  -7.9e-05  0  0.082529  0.076587  0  1.003611  0
H  H48  1  0.55953464  0.16887219  0.79292939  1  0.062109  0  0.100841  0.109534  0  0.998834  0
H  H49  1  0.62965558  0.26488748  0.87716682  1  0.0331  0  0.099825  0.107273  0  0.982975  0
H  H50  1  0.79166269  0.26967659  0.81997374  1  0.40159  0  0.294562  0.227548  0  0.977708  0
H  H51  1  0.85175648  0.37245506  0.76993433  1  0.024084  0  0.086275  0.08314  0  0.997188  0
H  H52  1  0.87414719  0.29961538  0.71874771  1  0.045021  0  0.099394  0.107667  0  1.017339  0
H  H53  1  0.92431297  0.34632283  0.82167857  1  0.058962  0  0.100247  0.110347  0  0.981983  0
H  H54  1  0.96141283  0.70699354  0.36459523  1  0.442085  0  0.299336  0.237957  0  0.990534  0
H  H55  1  0.84940610  0.61960985  0.24956923  1  0.0482  0  0.107036  0.117694  0  0.976731  0
H  H56  1  0.84626723  0.53249832  0.26541174  1  0.052998  0  0.100949  0.104375  0  0.994816  0
H  H57  1  0.91264998  0.57940892  0.22550482  1  0.052171  0  0.09954  0.104696  0  0.982983  0
H  H58  1  0.02095828  0.70243326  0.73504021  1  0.636073  0  0.312121  0.360442  0  0.939992  0
H  H59  1  0.09237770  0.52146845  0.70548185  1  0.473816  0  0.295145  0.259522  0  1.011254  0
H  H60  1  0.94333008  0.41467117  0.64576157  1  0.043623  0  0.093599  0.097585  0  0.983192  0
H  H61  1  0.01391919  0.38071958  0.68561140  1  0.067203  0  0.097425  0.10589  0  1.014764  0
H  H62  1  0.96489910  0.34907618  0.58394319  1  0.065007  0  0.096088  0.101528  0  1.01725  0
H  H63  1  0.23306848  0.28582153  0.87409062  1  0.621894  0  0.320493  0.370251  0  0.915976  0
H  H64  1  0.84420559  0.74397760  0.90278694  1  0.4644  0  0.302839  0.232844  0  1.008196  0
H  H65  1  0.72327580  0.74417935  0.83225831  1  0.056076  0  0.109707  0.115452  0  0.974177  0
H  H66  1  0.74013701  0.72139751  0.74840415  1  0.033735  0  0.102938  0.10745  0  0.978638  0
H  H67  1  0.79543766  0.82626934  0.82049311  1  0.008454  0  0.096373  0.094911  0  0.986965  0
H  H68  1  0.90277858  0.96614726  0.61944056  1  0.487535  0  0.286788  0.231036  0  1.052657  0
H  H69  1  0.84006328  0.97249501  0.70188873  1  0.052866  0  0.103544  0.107189  0  0.988488  0
H  H70  1  0.76846329  0.99504734  0.64476660  1  0.071839  0  0.099909  0.10833  0  0.985949  0
H  H71  1  0.87618341  0.07496895  0.70821977  1  0.060832  0  0.08851  0.086175  0  0.999737  0
H  H72  1  0.88254638  0.25093758  0.34423861  1  0.634969  0  0.323254  0.370291  0  0.910575  0
C  C73  1  0.95264966  0.88176175  0.68941756  1  0.467982  0  0.005026  -0.041569  0  4.017797  0
C  C74  1  0.09315936  0.23116603  0.47300214  1  0.412051  0  0.019992  -0.044217  0  3.943862  0
C  C75  1  0.11913670  0.15836400  0.71810675  1  0.346088  0  0.081623  -0.066672  0  3.95832  0
C  C76  1  0.84911674  0.08573234  0.48326400  1  0.379361  0  -0.000266  -0.042639  0  4.065075  0
C  C77  1  0.06689157  0.19201361  0.62625928  1  0.384777  0  0.013297  -0.043704  0  3.939744  0
C  C78  1  0.85704150  0.01760033  0.55609174  1  0.94087  0  0.203376  0.298764  0  4.053688  0
C  C79  1  0.97167042  0.16738265  0.36938759  1  0.287187  0  0.070387  -0.092595  0  4.039631  0
C  C80  1  0.08282819  0.90239604  0.72126246  1  0.370513  0  0.007165  -0.041614  0  3.958122  0
C  C81  1  0.01100870  0.86330466  0.73246488  1  0.012632  0  -0.043916  -0.058617  0  4.078545  0
C  C82  1  0.03660378  0.24771769  0.42650559  1  0.024491  0  -0.021981  -0.023894  0  4.051972  0
C  C83  1  0.09671843  0.21758125  0.70662087  1  0.048959  0  -0.024069  -0.038985  0  4.049011  0
C  C84  1  0.82746644  0.07212080  0.54145388  1  0.017255  0  -0.051771  -0.159745  0  4.010929  0
C  C85  1  0.69669353  0.77298127  0.31274185  1  0.438752  0  0.012323  -0.029018  0  3.995673  0
C  C86  1  0.27210927  0.11897096  0.53934056  1  0.393657  0  0.000906  -0.072624  0  4.008674  0
C  C87  1  0.06915971  0.84399509  0.51484224  1  0.423419  0  0.011899  -0.056913  0  3.950148  0
C  C88  1  0.92365642  0.86502225  0.30446594  1  0.298427  0  0.000942  -0.061162  0  3.950175  0
C  C89  1  0.06346735  0.94458793  0.36513976  1  0.474352  0  0.021943  -0.022225  0  3.924459  0
C  C90  1  0.93271568  0.77473279  0.47977634  1  0.257336  0  0.072139  -0.095324  0  4.022339  0
C  C91  1  0.69500630  0.84735331  0.24523663  1  0.879646  0  0.19941  0.286832  0  4.061129  0
C  C92  1  0.29634473  0.06666854  0.62301177  1  0.371595  0  0.010877  -0.051831  0  3.971604  0
C  C93  1  0.64343001  0.77182234  0.24617811  1  -0.008057  0  -0.043452  -0.149322  0  4.059857  0
C  C94  1  0.33338696  0.10486000  0.58250542  1  0.053407  0  -0.034077  -0.027898  0  4.088898  0
C  C95  1  0.00382354  0.76425397  0.49309602  1  0.017041  0  -0.020226  -0.011643  0  4.057928  0
C  C96  1  0.99651701  0.87414474  0.29605623  1  0.052275  0  -0.032571  -0.032479  0  4.0635  0
C  C97  1  0.40889158  0.08036784  0.50642511  1  -0.093595  0  -0.101892  -0.204493  0  3.979801  0
C  C98  1  0.41279671  0.11719924  0.57885751  1  -0.000184  0  -0.015616  0.088472  0  4.088195  0
C  C99  1  0.49062993  0.16057802  0.64584392  1  0.024126  0  -0.097555  -0.189398  0  3.950512  0
C  C100  1  0.56421815  0.16338145  0.64242941  1  -0.008804  0  -0.010151  0.022256  0  4.034494  0
C  C101  1  0.55845806  0.12130499  0.56885721  1  0.007309  0  -0.006127  -0.009952  0  3.959226  0
C  C102  1  0.48042315  0.08151809  0.50010442  1  -0.071221  0  -0.012044  0.087657  0  4.062955  0
C  C103  1  0.64599374  0.20990980  0.71001095  1  0.41573  0  0.070077  0.0577  0  4.026628  0
C  C104  1  0.71625001  0.20763985  0.70464608  1  0.360671  0  0.079594  0.073889  0  4.037722  0
C  C105  1  0.70797857  0.15633956  0.63188368  1  -0.016715  0  -0.012175  0.014524  0  4.022127  0
C  C106  1  0.62964729  0.11748917  0.56384161  1  0.001078  0  -0.005414  -0.005859  0  3.96372  0
C  C107  1  0.62154445  0.07079540  0.49069230  1  -0.064568  0  -0.013597  0.081521  0  4.071501  0
C  C108  1  0.54367339  0.03428499  0.42222327  1  -0.101494  0  -0.093172  -0.13492  0  4.03056  0
C  C109  1  0.47608565  0.04012676  0.42670193  1  0.020528  0  -0.097503  -0.140731  0  4.036963  0
C  C110  1  0.77308317  0.14101293  0.62657134  1  -0.029123  0  -0.097326  -0.192602  0  3.9621  0
C  C111  1  0.76382013  0.09164092  0.55531694  1  -0.008886  0  -0.012599  0.108146  0  4.061478  0
C  C112  1  0.68883645  0.05929633  0.48799502  1  0.001414  0  -0.095411  -0.192006  0  3.948173  0
C  C113  1  0.98159515  0.63003714  0.40666962  1  0.378748  0  0.099001  0.124011  0  4.06849  0
C  C114  1  0.00737539  0.68743040  0.48272103  1  0.048598  0  -0.023795  -0.023697  0  4.061991  0
C  C115  1  0.03558071  0.67274647  0.54683623  1  -0.005119  0  -0.086815  -0.149172  0  3.951475  0
C  C116  1  0.03825770  0.59949387  0.54039611  1  0.008888  0  -0.016215  0.063009  0  4.037323  0
C  C117  1  0.01366445  0.54146589  0.46450539  1  -0.041803  0  -0.004162  -0.000597  0  3.946053  0
C  C118  1  0.98819799  0.55754747  0.39810763  1  0.039812  0  -0.021594  -0.026828  0  4.017134  0
C  C119  1  0.06016450  0.57881061  0.60498322  1  -0.173886  0  -0.026336  -0.247232  0  3.870831  0
C  C120  1  0.05592505  0.50255272  0.59497062  1  0.493698  0  0.108041  0.190974  0  3.998949  0
C  C121  1  0.04152923  0.44908445  0.51956251  1  -0.065647  0  -0.003884  0.015714  0  3.96828  0
C  C122  1  0.01860645  0.46797656  0.45519326  1  -0.009715  0  0.004597  0.011547  0  3.918585  0
C  C123  1  0.00321165  0.41339319  0.38136104  1  -0.024442  0  -0.009056  0.095501  0  4.061627  0
C  C124  1  0.98308036  0.43370041  0.31766446  1  -0.007012  0  -0.102239  -0.155951  0  4.037646  0
C  C125  1  0.97567204  0.50265903  0.32599628  1  -0.069722  0  -0.091353  -0.109617  0  4.032737  0
C  C126  1  0.05231309  0.37956830  0.50986757  1  -0.052006  0  -0.092392  -0.177849  0  3.94278  0
C  C127  1  0.03578778  0.32544807  0.43727789  1  0.036138  0  -0.018246  0.077384  0  4.116439  0
C  C128  1  0.01056768  0.34230019  0.37326099  1  -0.092568  0  -0.110118  -0.25189  0  4.006714  0
C  C129  1  0.55552886  0.70797020  0.19317366  1  -0.00682  0  -5.1e-05  0.118415  0  4.02039  0
C  C130  1  0.49861211  0.72558098  0.14704149  1  -0.090035  0  -0.091716  -0.130898  0  3.975623  0
C  C131  1  0.41720439  0.66318212  0.09188421  1  0.035171  0  -0.083981  -0.133149  0  3.96676  0
C  C132  1  0.38940397  0.58052310  0.08171489  1  0.322715  0  0.076505  0.155592  0  4.076264  0
C  C133  1  0.44284272  0.56337366  0.13147699  1  -0.027777  0  -0.083315  -0.134579  0  3.98866  0
C  C134  1  0.52473944  0.62591377  0.18585913  1  -0.004002  0  -0.097426  -0.14147  0  3.990151  0
C  C135  1  0.16691777  0.37315330  0.90548562  1  -0.055851  0  -0.08843  -0.153619  0  3.985648  0
C  C136  1  0.11977106  0.29792374  0.83929490  1  -0.097462  0  -0.101714  -0.168021  0  4.022993  0
C  C137  1  0.21065959  0.44753376  0.90043743  1  0.369242  0  0.085037  0.172929  0  4.062967  0
C  C138  1  0.11854050  0.29484158  0.76761302  1  -0.037807  0  -0.011718  0.078728  0  4.046912  0
C  C139  1  0.15250295  0.37036733  0.76173192  1  -0.07078  0  -0.088385  -0.120602  0  3.983034  0
C  C140  1  0.19647505  0.44613455  0.82718392  1  0.019076  0  -0.078742  -0.134307  0  3.941716  0
C  C141  1  0.99937350  0.82353668  0.78321688  1  -0.014753  0  0.000971  0.129388  0  4.060253  0
C  C142  1  0.06591251  0.81867217  0.83418898  1  -0.097743  0  -0.116578  -0.210749  0  4.033638  0
C  C143  1  0.05708820  0.79554692  0.89234188  1  0.003811  0  -0.081466  -0.104475  0  3.982397  0
C  C144  1  0.98215685  0.77468583  0.90132533  1  0.418138  0  0.074186  0.060097  0  4.045744  0
C  C145  1  0.91147400  0.77092393  0.84498909  1  0.410812  0  0.111938  0.195392  0  4.067263  0
C  C146  1  0.92191836  0.79511104  0.78728044  1  -0.029677  0  -0.11596  -0.267023  0  3.956061  0
C  C147  1  0.93594159  0.76721081  0.08503149  1  -0.073881  0  -0.095185  -0.150033  0  4.001364  0
C  C148  1  0.92949484  0.79153278  0.15340679  1  -0.037106  0  -0.09882  -0.129284  0  4.012899  0
C  C149  1  0.01515366  0.78307293  0.08648935  1  0.38429  0  0.080487  0.174046  0  4.055766  0
C  C150  1  0.00129802  0.83239835  0.22624691  1  -0.016171  0  -0.015954  0.076127  0  4.044976  0
C  C151  1  0.07792480  0.83985534  0.22708360  1  -0.077032  0  -0.097591  -0.135437  0  4.001953  0
C  C152  1  0.08474287  0.81521832  0.15836007  1  0.001023  0  -0.087668  -0.144217  0  3.972562  0
C  C153  1  0.65275269  0.83084976  0.11179491  1  0.278491  0  -0.140031  -0.208305  0  3.981472  0
C  C154  1  0.62586062  0.21956471  0.82733385  1  0.271894  0  -0.145196  -0.216688  0  4.001158  0
C  C155  1  0.86484804  0.32147080  0.77013300  1  0.254705  0  -0.14489  -0.218304  0  3.983549  0
C  C156  1  0.88804248  0.59210809  0.26782978  1  0.294793  0  -0.133864  -0.214903  0  3.982762  0
C  C157  1  0.99315640  0.40078968  0.64098432  1  0.20369  0  -0.14229  -0.210076  0  3.950986  0
C  C158  1  0.77139501  0.76084503  0.81123976  1  0.34018  0  -0.130629  -0.206638  0  3.998781  0
C  C159  1  0.83430957  0.00799324  0.66824527  1  0.239649  0  -0.134605  -0.192842  0  3.979506  0
S  S160  1  0.83066966  0.70791147  0.46370293  1  3.06158  0  0.549789  1.158799  0  6.018216  0
S  S161  1  0.09604635  0.65566809  0.69955909  1  3.02279  0  0.542467  1.184719  0  5.940811  0
S  S162  1  0.17881456  0.15616983  0.80303391  1  3.092033  0  0.54873  1.164449  0  6.010606  0
S  S163  1  0.87432811  0.13458002  0.29425883  1  3.085717  0  0.556438  1.16716  0  6.009913  0
N  N164  1  0.98577361  0.92784130  0.65626641  1  -0.743328  0  -0.259941  -0.229251  0  3.324812  0
N  N165  1  0.06295207  0.14833860  0.44552280  1  -0.757827  0  -0.256783  -0.141503  0  3.546169  0
N  N166  1  0.10279363  0.10301540  0.65006011  1  -0.743989  0  -0.259969  -0.168607  0  3.599971  0
N  N167  1  0.88700577  0.04369431  0.46325665  1  -0.844771  0  -0.31711  -0.233187  0  3.689572  0
N  N168  1  0.07141508  0.12373673  0.59385327  1  -0.755069  0  -0.260248  -0.14026  0  3.585583  0
N  N169  1  0.89059455  0.99977364  0.50686389  1  -0.799242  0  -0.310074  -0.311974  0  3.54658  0
N  N170  1  0.98705676  0.10806775  0.38146948  1  -0.729933  0  -0.251944  -0.185905  0  3.496472  0
N  N171  1  0.06656886  0.94025657  0.67604901  1  -0.810069  0  -0.2879  -0.183826  0  3.660442  0
N  N172  1  0.77255649  0.84274608  0.34934287  1  -0.815138  0  -0.285604  -0.181358  0  3.592068  0
N  N173  1  0.20406167  0.09160466  0.55348364  1  -0.814848  0  -0.281023  -0.179054  0  3.598694  0
N  N174  1  0.03959073  0.89766524  0.51558685  1  -0.7123  0  -0.246872  -0.180611  0  3.447444  0
N  N175  1  0.94541967  0.92669931  0.37259708  1  -0.808016  0  -0.291394  -0.228573  0  3.599058  0
N  N176  1  0.03198546  0.97498888  0.40919806  1  -0.809449  0  -0.279515  -0.164251  0  3.640777  0
N  N177  1  0.95511569  0.85429662  0.49259972  1  -0.736957  0  -0.259507  -0.160778  0  3.640464  0
N  N178  1  0.77250879  0.88868237  0.30704711  1  -0.826796  0  -0.288038  -0.294662  0  3.491772  0
N  N179  1  0.21863670  0.05817560  0.60462205  1  -0.772772  0  -0.273715  -0.170683  0  3.590644  0
N  N180  1  0.31482406  0.51034560  0.02024657  1  -0.47811  0  -0.161267  -0.152368  0  3.326867  0
N  N181  1  0.27685741  0.52288854  0.96473468  1  -0.524517  0  -0.164882  -0.159051  0  3.258432  0
N  N182  1  0.97084260  0.76750619  0.96433993  1  -0.594378  0  -0.170359  -0.144704  0  3.448205  0
N  N183  1  0.03161650  0.77654221  0.02154324  1  -0.486088  0  -0.181084  -0.185182  0  3.238919  0
N  N184  1  0.67491663  0.87890438  0.19255168  1  -1.174358  0  -0.463482  -0.34973  0  3.512227  0
N  N185  1  0.65227194  0.26045722  0.78025669  1  -1.13351  0  -0.475753  -0.335064  0  3.52174  0
N  N186  1  0.79652218  0.25172051  0.76971830  1  -1.141475  0  -0.469913  -0.324179  0  3.523848  0
N  N187  1  0.95527201  0.64968499  0.34620359  1  -1.214336  0  -0.44619  -0.282899  0  3.600364  0
N  N188  1  0.06743287  0.47408390  0.65211521  1  -1.141583  0  -0.467568  -0.345066  0  3.489313  0
N  N189  1  0.83794444  0.74762946  0.85186998  1  -1.222586  0  -0.441613  -0.273604  0  3.630694  0
N  N190  1  0.85617775  0.98191458  0.60631423  1  -1.249919  0  -0.452071  -0.321561  0  3.577872  0
O  O191  1  0.83484034  0.67253253  0.51812059  1  -1.276297  0  -0.300702  -0.509502  0  2.101886  0
O  O192  1  0.78380029  0.75084602  0.45418975  1  -1.291294  0  -0.290621  -0.508056  0  2.192112  0
O  O193  1  0.79000270  0.63303320  0.37848663  1  -1.18651  0  -0.363833  -0.543447  0  2.135389  0
O  O194  1  0.12283900  0.62833247  0.75793916  1  -1.296381  0  -0.31778  -0.539179  0  2.141297  0
O  O195  1  0.15559674  0.73658982  0.71080122  1  -1.290634  0  -0.321294  -0.547383  0  2.113746  0
O  O196  1  0.00857011  0.65270012  0.69124860  1  -1.216062  0  -0.360529  -0.525719  0  2.18195  0
O  O197  1  0.12965472  0.13525511  0.84402701  1  -1.273946  0  -0.311032  -0.525607  0  2.108157  0
O  O198  1  0.21930608  0.11041464  0.78180473  1  -1.296795  0  -0.304505  -0.520608  0  2.17141  0
O  O199  1  0.25498748  0.25075093  0.85294461  1  -1.203732  0  -0.357497  -0.51119  0  2.15483  0
O  O200  1  0.88321914  0.14672172  0.22911899  1  -1.273579  0  -0.30412  -0.514297  0  2.097955  0
O  O201  1  0.81684514  0.05225866  0.28327815  1  -1.319766  0  -0.291823  -0.518404  0  2.262267  0
O  O202  1  0.84303422  0.19279830  0.33280495  1  -1.214661  0  -0.344431  -0.49691  0  2.166079  0
