# generated using pymatgen
data_LaH17C17NO7
_symmetry_space_group_name_H-M   'P 1'
_cell_length_a   10.00241075
_cell_length_b   10.69312247
_cell_length_c   10.73481108
_cell_angle_alpha   64.39473285
_cell_angle_beta   65.46593956
_cell_angle_gamma   67.21703450
_symmetry_Int_Tables_number   1
_chemical_formula_structural   LaH17C17NO7
_chemical_formula_sum   'La2 H34 C34 N2 O14'
_cell_volume   911.20825207
_cell_formula_units_Z   2
loop_
 _symmetry_equiv_pos_site_id
 _symmetry_equiv_pos_as_xyz
  1  'x, y, z'
loop_
 _atom_site_type_symbol
 _atom_site_label
 _atom_site_symmetry_multiplicity
 _atom_site_fract_x
 _atom_site_fract_y
 _atom_site_fract_z
 _atom_site_occupancy
 _atom_site_hle17_bader_spin_density
 _atom_site_hle17_ddec_charge
 _atom_site_hle17_ddec_spin_density
 _atom_site_hle17_ddec_sum_bond_order
 _atom_site_hle17_magmom
 _atom_site_hse06_10hf_bader_spin_density
 _atom_site_hse06_10hf_ddec_charge
 _atom_site_hse06_10hf_ddec_spin_density
 _atom_site_hse06_10hf_ddec_sum_bond_order
 _atom_site_hse06_10hf_magmom
 _atom_site_hse06_bader_spin_density
 _atom_site_hse06_ddec_charge
 _atom_site_hse06_ddec_spin_density
 _atom_site_hse06_ddec_sum_bond_order
 _atom_site_hse06_magmom
 _atom_site_pbe_bader_spin_density
 _atom_site_pbe_cm5_charge
 _atom_site_pbe_ddec_charge
 _atom_site_pbe_ddec_spin_density
 _atom_site_pbe_ddec_sum_bond_order
 _atom_site_pbe_magmom
La  La0  1  0.71509785  0.98988692  0.49255343  1  0  2.12869  0  1.839043  0  0  2.010083  0  2.377799  0  0  2.116051  0  2.270736  0  0  1.428105  1.929076  0  2.456362  0
La  La1  1  0.28490041  0.01010938  0.50744340  1  0  2.128684  0  1.839039  0  0  2.010068  0  2.377774  0  0  2.116034  0  2.270727  0  0  1.42809  1.929055  0  2.456354  0
H  H2  1  0.48445848  0.40452622  0.66503721  1  0  0.098499  0  0.963797  0  0  0.108311  0  1.024366  0  0  0.111675  0  1.022685  0  0  0.105495  0.105757  0  1.025851  0
H  H3  1  0.51554145  0.59546368  0.33496641  1  0  0.098509  0  0.96377  0  0  0.108279  0  1.024382  0  0  0.111644  0  1.022699  0  0  0.10544  0.105725  0  1.025872  0
H  H4  1  0.31732937  0.64935015  0.66479653  1  0  0.103843  0  0.984092  0  0  0.107139  0  1.056746  0  0  0.11059  0  1.05522  0  0  0.108405  0.104323  0  1.058428  0
H  H5  1  0.68266538  0.35063866  0.33520860  1  0  0.104076  0  0.983789  0  0  0.107347  0  1.056474  0  0  0.110804  0  1.054932  0  0  0.108506  0.104492  0  1.058193  0
H  H6  1  0.98007519  0.55962556  0.58841428  1  0  0.097514  0  0.965384  0  0  0.106612  0  1.028654  0  0  0.109854  0  1.027039  0  0  0.106024  0.104227  0  1.029914  0
H  H7  1  0.01992716  0.44038034  0.41156845  1  0  0.097467  0  0.965393  0  0  0.106609  0  1.028636  0  0  0.109853  0  1.02702  0  0  0.106022  0.104229  0  1.02989  0
H  H8  1  0.14780679  0.31509279  0.58741813  1  0  0.101235  0  0.965515  0  0  0.107154  0  1.035359  0  0  0.110618  0  1.032815  0  0  0.11264  0.104503  0  1.037553  0
H  H9  1  0.85219283  0.68491096  0.41256748  1  0  0.101195  0  0.9655  0  0  0.107139  0  1.035326  0  0  0.110607  0  1.032776  0  0  0.1126  0.104486  0  1.037522  0
H  H10  1  0.27950536  0.39143288  0.13408671  1  0  0.103837  0  0.957612  0  0  0.11293  0  1.01909  0  0  0.116443  0  1.017019  0  0  0.107901  0.110233  0  1.020846  0
H  H11  1  0.72048796  0.60857314  0.86591708  1  0  0.103835  0  0.957589  0  0  0.112923  0  1.019087  0  0  0.116434  0  1.017017  0  0  0.107891  0.110224  0  1.020846  0
H  H12  1  0.73722921  0.37614056  0.07193612  1  0  0.094783  0  0.951878  0  0  0.104195  0  1.014905  0  0  0.107694  0  1.0127  0  0  0.10328  0.101429  0  1.016894  0
H  H13  1  0.26275942  0.62386651  0.92806898  1  0  0.094798  0  0.951895  0  0  0.104202  0  1.014937  0  0  0.107699  0  1.012736  0  0  0.103309  0.101417  0  1.016946  0
H  H14  1  0.89115911  0.11175056  0.08405272  1  0  0.040139  0  0.918802  0  0  0.049275  0  0.98975  0  0  0.051158  0  0.98493  0  0  0.126206  0.04758  0  0.993548  0
H  H15  1  0.10884919  0.88824477  0.91595004  1  0  0.040157  0  0.918819  0  0  0.049304  0  0.989751  0  0  0.051188  0  0.98493  0  0  0.126209  0.047627  0  0.993528  0
H  H16  1  0.08722274  0.18745469  0.91117209  1  0  0.065096  0  0.93912  0  0  0.08088  0  1.004849  0  0  0.081019  0  1.005388  0  0  0.107623  0.080685  0  1.004532  0
H  H17  1  0.91277474  0.81254812  0.08883151  1  0  0.065076  0  0.939072  0  0  0.080883  0  1.004791  0  0  0.081022  0  1.005332  0  0  0.107628  0.080687  0  1.004476  0
H  H18  1  0.27414314  0.10037865  0.92076974  1  0  0.07655  0  0.902028  0  0  0.097393  0  0.954008  0  0  0.097693  0  0.954404  0  0  0.113645  0.097  0  0.953935  0
H  H19  1  0.72586002  0.89963167  0.07922659  1  0  0.076525  0  0.901986  0  0  0.097407  0  0.953936  0  0  0.097707  0  0.954331  0  0  0.113641  0.097013  0  0.953862  0
H  H20  1  0.04355761  0.31989483  0.07463678  1  0  0.100726  0  0.946551  0  0  0.123737  0  1.004074  0  0  0.124415  0  1.004917  0  0  0.088704  0.123117  0  1.003548  0
H  H21  1  0.95643612  0.68010578  0.92536454  1  0  0.100786  0  0.946587  0  0  0.123784  0  1.004113  0  0  0.124455  0  1.004967  0  0  0.088721  0.123164  0  1.003587  0
H  H22  1  0.20623449  0.35069557  0.92186235  1  0  0.103617  0  0.976851  0  0  0.12483  0  1.038962  0  0  0.124612  0  1.042178  0  0  0.086909  0.12483  0  1.036895  0
H  H23  1  0.79376151  0.64931262  0.07814134  1  0  0.103633  0  0.976917  0  0  0.124852  0  1.039012  0  0  0.124632  0  1.04223  0  0  0.086908  0.124852  0  1.036945  0
H  H24  1  0.22875668  0.22965132  0.09307379  1  0  0.111376  0  0.957212  0  0  0.129716  0  1.021725  0  0  0.131544  0  1.020964  0  0  0.094823  0.12827  0  1.022476  0
H  H25  1  0.77123527  0.77035150  0.90693470  1  0  0.111354  0  0.957231  0  0  0.129723  0  1.021713  0  0  0.131569  0  1.020932  0  0  0.094803  0.128285  0  1.022455  0
H  H26  1  0.13704418  0.92238743  0.31262314  1  0  0.073921  0  0.944752  0  0  0.084995  0  1.013961  0  0  0.085288  0  1.014404  0  0  0.119398  0.084637  0  1.013786  0
H  H27  1  0.86296666  0.07761865  0.68737678  1  0  0.073923  0  0.94472  0  0  0.084947  0  1.013989  0  0  0.08524  0  1.01443  0  0  0.119378  0.084589  0  1.013814  0
H  H28  1  0.29657518  0.97806432  0.17177724  1  0  0.072447  0  0.919316  0  0  0.091514  0  0.974772  0  0  0.091912  0  0.974809  0  0  0.117669  0.090995  0  0.9751  0
H  H29  1  0.70343359  0.02194169  0.82821512  1  0  0.072439  0  0.919422  0  0  0.091517  0  0.974855  0  0  0.091914  0  0.974893  0  0  0.117656  0.090997  0  0.975184  0
H  H30  1  0.33081903  0.71074912  0.25518699  1  0  0.109162  0  0.961033  0  0  0.132748  0  1.019279  0  0  0.133826  0  1.019609  0  0  0.092129  0.131798  0  1.019223  0
H  H31  1  0.66918986  0.28925591  0.74481785  1  0  0.10917  0  0.96118  0  0  0.132778  0  1.019381  0  0  0.133852  0  1.019718  0  0  0.092155  0.131826  0  1.019323  0
H  H32  1  0.34127883  0.78980789  0.06913825  1  0  0.096421  0  0.96691  0  0  0.116477  0  1.029832  0  0  0.116965  0  1.031439  0  0  0.083984  0.116015  0  1.028814  0
H  H33  1  0.65872447  0.21018958  0.93086733  1  0  0.09653  0  0.966859  0  0  0.116514  0  1.02985  0  0  0.117003  0  1.031455  0  0  0.083975  0.116053  0  1.028831  0
H  H34  1  0.17306422  0.73997184  0.20093845  1  0  0.099365  0  0.953118  0  0  0.120431  0  1.014978  0  0  0.121499  0  1.015599  0  0  0.08682  0.119595  0  1.014546  0
H  H35  1  0.82693919  0.26002892  0.79907405  1  0  0.0995  0  0.953104  0  0  0.120504  0  1.014993  0  0  0.121575  0  1.015607  0  0  0.08687  0.119664  0  1.014565  0
C  C36  1  0.43819421  0.20813981  0.60565929  1  0  0.672606  0  3.886656  0  0  0.627759  0  4.178037  0  0  0.664123  0  4.170913  0  0  0.220398  0.602638  0  4.182063  0
C  C37  1  0.56180195  0.79185218  0.39433834  1  0  0.672608  0  3.886693  0  0  0.627833  0  4.178044  0  0  0.664206  0  4.170911  0  0  0.22041  0.60271  0  4.182072  0
C  C38  1  0.32891038  0.34673184  0.62150966  1  0  -0.061518  0  3.737626  0  0  -0.038955  0  3.966432  0  0  -0.045534  0  3.98726  0  0  -0.010168  -0.034911  0  3.952803  0
C  C39  1  0.67109010  0.65326020  0.37849097  1  0  -0.061385  0  3.737427  0  0  -0.039038  0  3.966469  0  0  -0.045633  0  3.987323  0  0  -0.010187  -0.034991  0  3.952839  0
C  C40  1  0.37384535  0.43954658  0.64813922  1  0  -0.065087  0  3.730089  0  0  -0.085776  0  3.976126  0  0  -0.086199  0  3.995311  0  0  -0.076087  -0.085044  0  3.963348  0
C  C41  1  0.62615241  0.56044331  0.35186337  1  0  -0.065059  0  3.730055  0  0  -0.085644  0  3.976116  0  0  -0.086065  0  3.995305  0  0  -0.076016  -0.084914  0  3.96333  0
C  C42  1  0.28101535  0.57586351  0.64747709  1  0  -0.075226  0  3.727927  0  0  -0.099995  0  3.982277  0  0  -0.101046  0  4.001856  0  0  -0.079552  -0.099551  0  3.969469  0
C  C43  1  0.71898325  0.42412744  0.35252286  1  0  -0.075428  0  3.727963  0  0  -0.10019  0  3.982242  0  0  -0.101245  0  4.001831  0  0  -0.079621  -0.099713  0  3.969461  0
C  C44  1  0.14079955  0.62085370  0.62130222  1  0  -0.06411  0  3.734624  0  0  -0.041623  0  3.961309  0  0  -0.0478  0  3.982415  0  0  -0.009825  -0.037196  0  3.946779  0
C  C45  1  0.85920035  0.37914473  0.37869119  1  0  -0.06427  0  3.734825  0  0  -0.041734  0  3.961478  0  0  -0.047914  0  3.982583  0  0  -0.00982  -0.037303  0  3.946941  0
C  C46  1  0.09130580  0.52469906  0.60415916  1  0  -0.074133  0  3.733848  0  0  -0.093352  0  3.973729  0  0  -0.094877  0  3.994577  0  0  -0.081486  -0.091926  0  3.959176  0
C  C47  1  0.90869245  0.47530150  0.39583209  1  0  -0.074059  0  3.733659  0  0  -0.093367  0  3.973577  0  0  -0.094888  0  3.99442  0  0  -0.081564  -0.091944  0  3.959026  0
C  C48  1  0.18500655  0.38892623  0.60318520  1  0  -0.072418  0  3.724194  0  0  -0.094981  0  3.972128  0  0  -0.095467  0  3.992121  0  0  -0.078129  -0.094506  0  3.95848  0
C  C49  1  0.81499332  0.61107648  0.39680451  1  0  -0.072296  0  3.723919  0  0  -0.094801  0  3.971896  0  0  -0.095284  0  3.991891  0  0  -0.077976  -0.094326  0  3.958251  0
C  C50  1  0.95185290  0.22670787  0.39617139  1  0  0.700498  0  3.875575  0  0  0.656762  0  4.167791  0  0  0.694025  0  4.157491  0  0  0.236048  0.6306  0  4.173949  0
C  C51  1  0.04814694  0.77329060  0.60382669  1  0  0.700543  0  3.87566  0  0  0.656806  0  4.167896  0  0  0.694068  0  4.157595  0  0  0.236042  0.630648  0  4.174048  0
C  C52  1  0.52042280  0.22906737  0.23387681  1  0  0.687075  0  3.880864  0  0  0.643435  0  4.173788  0  0  0.680331  0  4.164202  0  0  0.229866  0.617924  0  4.179275  0
C  C53  1  0.47957864  0.77093326  0.76612066  1  0  0.687036  0  3.880865  0  0  0.643435  0  4.173763  0  0  0.680333  0  4.164176  0  0  0.229836  0.617923  0  4.179246  0
C  C54  1  0.50950188  0.37006732  0.11398213  1  0  -0.06153  0  3.743868  0  0  -0.039914  0  3.972567  0  0  -0.046049  0  3.993294  0  0  -0.013685  -0.036245  0  3.95886  0
C  C55  1  0.49049392  0.62993763  0.88602118  1  0  -0.061557  0  3.743867  0  0  -0.039945  0  3.972569  0  0  -0.046079  0  3.993295  0  0  -0.013655  -0.036271  0  3.958851  0
C  C56  1  0.37536937  0.43988046  0.07406332  1  0  -0.071829  0  3.728901  0  0  -0.093389  0  3.973174  0  0  -0.09415  0  3.99314  0  0  -0.080813  -0.092545  0  3.959625  0
C  C57  1  0.62462565  0.56012340  0.92593890  1  0  -0.071759  0  3.728895  0  0  -0.09334  0  3.973196  0  0  -0.0941  0  3.993163  0  0  -0.080799  -0.092496  0  3.959652  0
C  C58  1  0.63378937  0.43143336  0.03952602  1  0  -0.073167  0  3.743508  0  0  -0.095387  0  3.993071  0  0  -0.096619  0  4.013589  0  0  -0.082703  -0.094435  0  3.979405  0
C  C59  1  0.36620394  0.56857266  0.96047870  1  0  -0.073141  0  3.743439  0  0  -0.095379  0  3.993001  0  0  -0.096608  0  4.013521  0  0  -0.082733  -0.094409  0  3.979337  0
C  C60  1  0.96057416  0.02798181  0.15420743  1  0  0.416216  0  3.825383  0  0  0.33876  0  4.127791  0  0  0.368094  0  4.128033  0  0  0.18435  0.31893  0  4.127286  0
C  C61  1  0.03943278  0.97201457  0.84579353  1  0  0.416178  0  3.82527  0  0  0.338699  0  4.12765  0  0  0.368033  0  4.127893  0  0  0.184356  0.318858  0  4.127142  0
C  C62  1  0.15949864  0.14794925  0.98118888  1  0  0.045232  0  3.670421  0  0  -0.016631  0  3.942929  0  0  -0.01172  0  3.956168  0  0  -0.056703  -0.019867  0  3.933831  0
C  C63  1  0.84050076  0.85205463  0.01881260  1  0  0.045438  0  3.67021  0  0  -0.016495  0  3.942736  0  0  -0.011584  0  3.955979  0  0  -0.056629  -0.019733  0  3.933644  0
C  C64  1  0.15967119  0.26905201  0.02020365  1  0  -0.314666  0  3.688449  0  0  -0.388795  0  3.929555  0  0  -0.391738  0  3.940753  0  0  -0.245962  -0.386326  0  3.921779  0
C  C65  1  0.84032680  0.73095295  0.97979976  1  0  -0.314831  0  3.688589  0  0  -0.389  0  3.92977  0  0  -0.391951  0  3.940956  0  0  -0.246007  -0.386536  0  3.921989  0
C  C66  1  0.20388084  0.93105226  0.19968198  1  0  0.051843  0  3.632938  0  0  -0.004179  0  3.893138  0  0  0.001605  0  3.904415  0  0  -0.052019  -0.007968  0  3.885632  0
C  C67  1  0.79612561  0.06895807  0.80031311  1  0  0.05185  0  3.633129  0  0  -0.004181  0  3.893332  0  0  0.001613  0  3.904585  0  0  -0.052026  -0.007971  0  3.885824  0
C  C68  1  0.26565483  0.78454194  0.17910243  1  0  -0.303537  0  3.697478  0  0  -0.380667  0  3.939383  0  0  -0.383717  0  3.950312  0  0  -0.244194  -0.378137  0  3.931852  0
C  C69  1  0.73434946  0.21545985  0.82090370  1  0  -0.303755  0  3.697784  0  0  -0.380774  0  3.939653  0  0  -0.383829  0  3.950588  0  0  -0.244227  -0.378238  0  3.93212  0
N  N70  1  0.10435588  0.03296624  0.10978676  1  0  -0.169382  0  3.440361  0  0  -0.07374  0  3.673213  0  0  -0.095111  0  3.697015  0  0  -0.268146  -0.05949  0  3.656987  0
N  N71  1  0.89564959  0.96703551  0.89021335  1  0  -0.169448  0  3.440262  0  0  -0.073729  0  3.673028  0  0  -0.095101  0  3.696828  0  0  -0.26817  -0.05948  0  3.65681  0
O  O72  1  0.56664281  0.17213740  0.62558949  1  0  -0.661119  0  1.952866  0  0  -0.617245  0  2.196582  0  0  -0.648499  0  2.189907  0  0  -0.361527  -0.594494  0  2.200733  0
O  O73  1  0.43334619  0.82784819  0.37442107  1  0  -0.661095  0  1.953207  0  0  -0.617175  0  2.196852  0  0  -0.648436  0  2.19018  0  0  -0.361418  -0.59442  0  2.200999  0
O  O74  1  0.40374842  0.13110953  0.56475852  1  0  -0.7643  0  2.134595  0  0  -0.712819  0  2.404405  0  0  -0.751921  0  2.396751  0  0  -0.409893  -0.683937  0  2.408425  0
O  O75  1  0.59625015  0.86888994  0.43523122  1  0  -0.764457  0  2.134414  0  0  -0.713015  0  2.404249  0  0  -0.752114  0  2.396572  0  0  -0.410009  -0.68413  0  2.408264  0
O  O76  1  0.08405116  0.19418951  0.40724966  1  0  -0.706279  0  1.999777  0  0  -0.663228  0  2.265207  0  0  -0.696429  0  2.252011  0  0  -0.392172  -0.638537  0  2.274439  0
O  O77  1  0.91595190  0.80580900  0.59275183  1  0  -0.706295  0  1.999981  0  0  -0.663241  0  2.265423  0  0  -0.696438  0  2.25222  0  0  -0.39215  -0.638552  0  2.274652  0
O  O78  1  0.89281863  0.13792799  0.40120685  1  0  -0.706136  0  2.03048  0  0  -0.662512  0  2.299994  0  0  -0.695983  0  2.289138  0  0  -0.385736  -0.638044  0  2.307384  0
O  O79  1  0.10718091  0.86206730  0.59879738  1  0  -0.706153  0  2.03044  0  0  -0.662536  0  2.299972  0  0  -0.696006  0  2.28912  0  0  -0.385722  -0.638069  0  2.307368  0
O  O80  1  0.63145683  0.18397181  0.28476255  1  0  -0.70231  0  2.042311  0  0  -0.656967  0  2.300247  0  0  -0.69039  0  2.291023  0  0  -0.377474  -0.632004  0  2.306261  0
O  O81  1  0.36854308  0.81602237  0.71523643  1  0  -0.70228  0  2.04222  0  0  -0.656942  0  2.300094  0  0  -0.690368  0  2.290878  0  0  -0.377431  -0.631983  0  2.306116  0
O  O82  1  0.41865172  0.16377235  0.27625007  1  0  -0.697082  0  2.004349  0  0  -0.655995  0  2.259512  0  0  -0.688486  0  2.248311  0  0  -0.386616  -0.631995  0  2.267322  0
O  O83  1  0.58135515  0.83622498  0.72373466  1  0  -0.697062  0  2.004368  0  0  -0.655987  0  2.259519  0  0  -0.688476  0  2.248319  0  0  -0.386659  -0.631988  0  2.267331  0
O  O84  1  0.90441592  0.93619200  0.26736321  1  0  -0.606917  0  2.081891  0  0  -0.55901  0  2.35305  0  0  -0.589329  0  2.347299  0  0  -0.367573  -0.537025  0  2.356304  0
O  O85  1  0.09559295  0.06380544  0.73263469  1  0  -0.606933  0  2.081743  0  0  -0.559015  0  2.35289  0  0  -0.589334  0  2.347144  0  0  -0.367587  -0.537031  0  2.356159  0
