# generated using pymatgen
data_Dy2H18(C3O8)3
_symmetry_space_group_name_H-M   'P 1'
_cell_length_a   8.77140156
_cell_length_b   8.77141309
_cell_length_c   8.77140836
_cell_angle_alpha   66.32058157
_cell_angle_beta   66.32055478
_cell_angle_gamma   66.32057046
_symmetry_Int_Tables_number   1
_chemical_formula_structural   Dy2H18(C3O8)3
_chemical_formula_sum   'Dy2 H18 C9 O24'
_cell_volume   542.26577425
_cell_formula_units_Z   1
loop_
 _symmetry_equiv_pos_site_id
 _symmetry_equiv_pos_as_xyz
  1  'x, y, z'
loop_
 _atom_site_type_symbol
 _atom_site_label
 _atom_site_symmetry_multiplicity
 _atom_site_fract_x
 _atom_site_fract_y
 _atom_site_fract_z
 _atom_site_occupancy
 _atom_site_hle17_bader_spin_density
 _atom_site_hle17_ddec_charge
 _atom_site_hle17_ddec_spin_density
 _atom_site_hle17_ddec_sum_bond_order
 _atom_site_hle17_magmom
 _atom_site_hse06_10hf_bader_spin_density
 _atom_site_hse06_10hf_ddec_charge
 _atom_site_hse06_10hf_ddec_spin_density
 _atom_site_hse06_10hf_ddec_sum_bond_order
 _atom_site_hse06_10hf_magmom
 _atom_site_hse06_bader_spin_density
 _atom_site_hse06_ddec_charge
 _atom_site_hse06_ddec_spin_density
 _atom_site_hse06_ddec_sum_bond_order
 _atom_site_hse06_magmom
 _atom_site_pbe_bader_spin_density
 _atom_site_pbe_cm5_charge
 _atom_site_pbe_ddec_charge
 _atom_site_pbe_ddec_spin_density
 _atom_site_pbe_ddec_sum_bond_order
 _atom_site_pbe_magmom
Dy  Dy0  1  0.26757134  0.26757110  0.26757207  1  0  2.297959  0  1.5919  0  0  2.220475  0  1.911631  0  0  2.262207  0  1.874388  0  0  1.50696  2.103869  0  2.101694  0
Dy  Dy1  1  0.73242853  0.73242942  0.73242815  1  0  2.297942  0  1.591931  0  0  2.220454  0  1.911665  0  0  2.262187  0  1.874421  0  0  1.506953  2.103825  0  2.101769  0
H  H2  1  0.30966372  0.17566645  0.94912555  1  0  0.418743  0  0.877397  0  0  0.385383  0  0.953543  0  0  0.397834  0  0.935615  0  0  0.308513  0.376459  0  0.966203  0
H  H3  1  0.94912445  0.30966454  0.17566719  1  0  0.418742  0  0.877399  0  0  0.385381  0  0.953546  0  0  0.397833  0  0.935617  0  0  0.308508  0.376458  0  0.966206  0
H  H4  1  0.17566868  0.94912459  0.30966382  1  0  0.418795  0  0.877394  0  0  0.385444  0  0.953471  0  0  0.397894  0  0.935544  0  0  0.308532  0.376521  0  0.966129  0
H  H5  1  0.05087546  0.82433289  0.69033586  1  0  0.41875  0  0.877383  0  0  0.385392  0  0.953529  0  0  0.397844  0  0.935598  0  0  0.308515  0.376469  0  0.966187  0
H  H6  1  0.82433336  0.69033582  0.05087509  1  0  0.418749  0  0.877381  0  0  0.385387  0  0.953535  0  0  0.39784  0  0.935605  0  0  0.308513  0.376464  0  0.966194  0
H  H7  1  0.69033594  0.05087465  0.82433338  1  0  0.418826  0  0.877355  0  0  0.385477  0  0.953422  0  0  0.397927  0  0.935495  0  0  0.308545  0.376555  0  0.966081  0
H  H8  1  0.27274376  0.21677025  0.63691435  1  0  0.447634  0  0.846994  0  0  0.415623  0  0.909716  0  0  0.427358  0  0.892549  0  0  0.300671  0.406678  0  0.922739  0
H  H9  1  0.63691493  0.27274338  0.21676886  1  0  0.447627  0  0.847003  0  0  0.415618  0  0.909724  0  0  0.427351  0  0.89256  0  0  0.300663  0.406673  0  0.922747  0
H  H10  1  0.21676993  0.63691477  0.27274289  1  0  0.447638  0  0.846988  0  0  0.41563  0  0.909706  0  0  0.427365  0  0.89254  0  0  0.300666  0.406686  0  0.922729  0
H  H11  1  0.36308431  0.78323033  0.72725545  1  0  0.447638  0  0.84699  0  0  0.415626  0  0.909714  0  0  0.427362  0  0.892547  0  0  0.300659  0.406682  0  0.922737  0
H  H12  1  0.78323102  0.72725705  0.36308404  1  0  0.447652  0  0.846968  0  0  0.415637  0  0.909697  0  0  0.427374  0  0.892528  0  0  0.300669  0.406692  0  0.922722  0
H  H13  1  0.72725604  0.36308446  0.78322859  1  0  0.447636  0  0.846993  0  0  0.415618  0  0.909728  0  0  0.427356  0  0.892556  0  0  0.300653  0.406672  0  0.922755  0
H  H14  1  0.45664827  0.12543054  0.52375149  1  0  0.44324  0  0.844289  0  0  0.414902  0  0.905482  0  0  0.425301  0  0.889926  0  0  0.31133  0.407169  0  0.91678  0
H  H15  1  0.52375354  0.45664685  0.12542800  1  0  0.44325  0  0.844256  0  0  0.4149  0  0.905475  0  0  0.4253  0  0.889919  0  0  0.31133  0.407168  0  0.916774  0
H  H16  1  0.12543049  0.52375190  0.45664675  1  0  0.443249  0  0.844265  0  0  0.414908  0  0.905466  0  0  0.425306  0  0.889912  0  0  0.311332  0.407175  0  0.916764  0
H  H17  1  0.47624742  0.87456999  0.54335255  1  0  0.443236  0  0.844273  0  0  0.414894  0  0.905486  0  0  0.425291  0  0.889933  0  0  0.311316  0.40716  0  0.916786  0
H  H18  1  0.87457051  0.54335359  0.47624659  1  0  0.443245  0  0.844266  0  0  0.414903  0  0.905471  0  0  0.425301  0  0.889918  0  0  0.31133  0.407171  0  0.91677  0
H  H19  1  0.54335224  0.47624738  0.87456895  1  0  0.443262  0  0.844262  0  0  0.414923  0  0.905451  0  0  0.425321  0  0.889897  0  0  0.311335  0.407189  0  0.91675  0
C  C20  1  0.50000083  0.96409318  0.03590633  1  0  0.330023  0  3.681797  0  0  0.30663  0  3.952342  0  0  0.313934  0  3.953835  0  0  0.158648  0.300492  0  3.947875  0
C  C21  1  0.03590545  0.49999970  0.96409436  1  0  0.329934  0  3.682068  0  0  0.306648  0  3.952392  0  0  0.313951  0  3.953887  0  0  0.158664  0.300507  0  3.947924  0
C  C22  1  0.96409409  0.03590595  0.49999962  1  0  0.33002  0  3.681792  0  0  0.306631  0  3.952332  0  0  0.313936  0  3.953825  0  0  0.158653  0.300492  0  3.947865  0
C  C23  1  0.58196696  0.91502024  0.18423823  1  0  0.620604  0  3.810927  0  0  0.564346  0  4.115623  0  0  0.596741  0  4.108176  0  0  0.233521  0.541938  0  4.11833  0
C  C24  1  0.18423837  0.58196602  0.91502189  1  0  0.620612  0  3.810885  0  0  0.564344  0  4.115551  0  0  0.596739  0  4.108104  0  0  0.233529  0.541945  0  4.118242  0
C  C25  1  0.91502017  0.18423949  0.58196582  1  0  0.62061  0  3.810852  0  0  0.564345  0  4.115566  0  0  0.596741  0  4.108119  0  0  0.233514  0.541944  0  4.118262  0
C  C26  1  0.81576153  0.08497890  0.41803342  1  0  0.620615  0  3.810798  0  0  0.564357  0  4.115503  0  0  0.59675  0  4.108056  0  0  0.233536  0.541955  0  4.118198  0
C  C27  1  0.08497980  0.41803334  0.81576085  1  0  0.620578  0  3.810953  0  0  0.564327  0  4.115589  0  0  0.596724  0  4.108139  0  0  0.233525  0.541925  0  4.118285  0
C  C28  1  0.41803353  0.81576096  0.08497892  1  0  0.620628  0  3.810704  0  0  0.564363  0  4.115417  0  0  0.596758  0  4.10797  0  0  0.233532  0.541962  0  4.118113  0
O  O29  1  0.37800264  0.12721055  0.03768840  1  0  -0.702555  0  2.242982  0  0  -0.663142  0  2.482349  0  0  -0.67978  0  2.465082  0  0  -0.435581  -0.640775  0  2.496092  0
O  O30  1  0.03768793  0.37800281  0.12721190  1  0  -0.70254  0  2.243036  0  0  -0.663166  0  2.482375  0  0  -0.679803  0  2.465108  0  0  -0.435596  -0.640799  0  2.496118  0
O  O31  1  0.12721256  0.03768751  0.37800240  1  0  -0.70264  0  2.243013  0  0  -0.663244  0  2.482361  0  0  -0.679881  0  2.465092  0  0  -0.435625  -0.640877  0  2.496106  0
O  O32  1  0.96231176  0.87278990  0.62199614  1  0  -0.702563  0  2.242987  0  0  -0.663152  0  2.482358  0  0  -0.679791  0  2.465088  0  0  -0.435587  -0.640781  0  2.4961  0
O  O33  1  0.87278868  0.62199772  0.96231101  1  0  -0.702539  0  2.243037  0  0  -0.663158  0  2.482373  0  0  -0.679795  0  2.465106  0  0  -0.435585  -0.640787  0  2.496116  0
O  O34  1  0.62199766  0.96231175  0.87278839  1  0  -0.702648  0  2.24299  0  0  -0.663254  0  2.482334  0  0  -0.679889  0  2.465063  0  0  -0.435614  -0.640883  0  2.496078  0
O  O35  1  0.33318931  0.18038521  0.52794094  1  0  -0.938058  0  1.912714  0  0  -0.900152  0  2.10955  0  0  -0.918464  0  2.075016  0  0  -0.667867  -0.875628  0  2.141213  0
O  O36  1  0.52794243  0.33318790  0.18038425  1  0  -0.938051  0  1.912671  0  0  -0.900141  0  2.109548  0  0  -0.918451  0  2.075016  0  0  -0.667859  -0.875621  0  2.141208  0
O  O37  1  0.18038546  0.52794072  0.33318844  1  0  -0.938058  0  1.912674  0  0  -0.900148  0  2.109533  0  0  -0.918458  0  2.074999  0  0  -0.667859  -0.875626  0  2.141192  0
O  O38  1  0.47205950  0.81961534  0.66681150  1  0  -0.938053  0  1.912681  0  0  -0.900138  0  2.109553  0  0  -0.918449  0  2.075021  0  0  -0.667846  -0.875614  0  2.141216  0
O  O39  1  0.81961562  0.66681125  0.47206002  1  0  -0.938064  0  1.912655  0  0  -0.90016  0  2.109543  0  0  -0.918471  0  2.075006  0  0  -0.667861  -0.875634  0  2.141205  0
O  O40  1  0.66681103  0.47206112  0.81961400  1  0  -0.938073  0  1.912687  0  0  -0.900166  0  2.109527  0  0  -0.918478  0  2.074994  0  0  -0.667849  -0.875637  0  2.141194  0
O  O41  1  0.49258654  0.99044501  0.30192032  1  0  -0.662071  0  2.080905  0  0  -0.614077  0  2.324145  0  0  -0.638874  0  2.314625  0  0  -0.351983  -0.587256  0  2.332075  0
O  O42  1  0.30191954  0.49258597  0.99044540  1  0  -0.662059  0  2.080932  0  0  -0.614059  0  2.324158  0  0  -0.638854  0  2.314638  0  0  -0.351965  -0.587239  0  2.332083  0
O  O43  1  0.99044505  0.30192079  0.49258518  1  0  -0.662087  0  2.080906  0  0  -0.614072  0  2.324117  0  0  -0.638869  0  2.314596  0  0  -0.351984  -0.587253  0  2.332043  0
O  O44  1  0.69808193  0.00955287  0.50741268  1  0  -0.662072  0  2.080932  0  0  -0.614075  0  2.324173  0  0  -0.638869  0  2.314649  0  0  -0.351984  -0.587251  0  2.332099  0
O  O45  1  0.00955521  0.50741339  0.69807998  1  0  -0.662046  0  2.080918  0  0  -0.614068  0  2.324156  0  0  -0.638867  0  2.314638  0  0  -0.351982  -0.587245  0  2.332083  0
O  O46  1  0.50741295  0.69808222  0.00955241  1  0  -0.66209  0  2.080909  0  0  -0.61406  0  2.324111  0  0  -0.638855  0  2.314588  0  0  -0.351966  -0.587239  0  2.33204  0
O  O47  1  0.72624238  0.79876509  0.18225809  1  0  -0.558524  0  2.010261  0  0  -0.496338  0  2.213504  0  0  -0.521138  0  2.201632  0  0  -0.280245  -0.480105  0  2.223083  0
O  O48  1  0.18225853  0.72624242  0.79876422  1  0  -0.558531  0  2.010154  0  0  -0.496369  0  2.213411  0  0  -0.521168  0  2.201539  0  0  -0.280268  -0.480139  0  2.222986  0
O  O49  1  0.79876442  0.18225846  0.72624213  1  0  -0.558521  0  2.010211  0  0  -0.496346  0  2.213454  0  0  -0.521146  0  2.201583  0  0  -0.280231  -0.480114  0  2.223031  0
O  O50  1  0.81774218  0.20123532  0.27375698  1  0  -0.558534  0  2.010185  0  0  -0.496356  0  2.213441  0  0  -0.521155  0  2.201571  0  0  -0.280256  -0.480125  0  2.223017  0
O  O51  1  0.20123594  0.27375692  0.81774101  1  0  -0.558505  0  2.010216  0  0  -0.496339  0  2.213457  0  0  -0.521138  0  2.201584  0  0  -0.280248  -0.480108  0  2.223032  0
O  O52  1  0.27375654  0.81774204  0.20123517  1  0  -0.558554  0  2.010136  0  0  -0.496389  0  2.213392  0  0  -0.521186  0  2.201521  0  0  -0.280273  -0.480158  0  2.222968  0
