# generated using pymatgen
data_KH4C3N6ClO2
_symmetry_space_group_name_H-M   'P 1'
_cell_length_a   8.60007508
_cell_length_b   10.04764952
_cell_length_c   10.17503510
_cell_angle_alpha   90.00000338
_cell_angle_beta   109.37315944
_cell_angle_gamma   90.00007653
_symmetry_Int_Tables_number   1
_chemical_formula_structural   KH4C3N6ClO2
_chemical_formula_sum   'K4 H16 C12 N24 Cl4 O8'
_cell_volume   829.44664206
_cell_formula_units_Z   4
loop_
 _symmetry_equiv_pos_site_id
 _symmetry_equiv_pos_as_xyz
  1  'x, y, z'
loop_
 _atom_site_type_symbol
 _atom_site_label
 _atom_site_symmetry_multiplicity
 _atom_site_fract_x
 _atom_site_fract_y
 _atom_site_fract_z
 _atom_site_occupancy
 _atom_site_hle17_bader_spin_density
 _atom_site_hle17_ddec_charge
 _atom_site_hle17_ddec_spin_density
 _atom_site_hle17_ddec_sum_bond_order
 _atom_site_hle17_magmom
 _atom_site_hse06_10hf_bader_spin_density
 _atom_site_hse06_10hf_ddec_charge
 _atom_site_hse06_10hf_ddec_spin_density
 _atom_site_hse06_10hf_ddec_sum_bond_order
 _atom_site_hse06_10hf_magmom
 _atom_site_hse06_bader_spin_density
 _atom_site_hse06_ddec_charge
 _atom_site_hse06_ddec_spin_density
 _atom_site_hse06_ddec_sum_bond_order
 _atom_site_hse06_magmom
 _atom_site_pbe_bader_spin_density
 _atom_site_pbe_cm5_charge
 _atom_site_pbe_ddec_charge
 _atom_site_pbe_ddec_spin_density
 _atom_site_pbe_ddec_sum_bond_order
 _atom_site_pbe_magmom
K  K0  1  0.05108637  0.68891341  0.57542700  1  0  0.898658  0  0.492035  0  0  0.828279  0  0.705033  0  0  0.84539  0  0.68065  0  0  0.833043  0.815886  0  0.722364  0
K  K1  1  0.44891689  0.18890714  0.42456075  1  0  0.898643  0  0.492036  0  0  0.828301  0  0.704979  0  0  0.845364  0  0.680681  0  0  0.833036  0.815902  0  0.72231  0
K  K2  1  0.94891267  0.31109720  0.42456091  1  0  0.898649  0  0.492017  0  0  0.828284  0  0.704993  0  0  0.845382  0  0.680633  0  0  0.833045  0.815887  0  0.722323  0
K  K3  1  0.55109079  0.81109053  0.57542763  1  0  0.898662  0  0.492008  0  0  0.828283  0  0.705012  0  0  0.845391  0  0.680633  0  0  0.833035  0.81589  0  0.722342  0
H  H4  1  0.85285221  0.18602910  0.84663610  1  0  0.099409  0  0.953199  0  0  0.10372  0  1.033427  0  0  0.105262  0  1.032259  0  0  0.11309  0.1026  0  1.034568  0
H  H5  1  0.64714606  0.68602948  0.15336374  1  0  0.099393  0  0.953145  0  0  0.103724  0  1.033367  0  0  0.105266  0  1.032199  0  0  0.113086  0.102603  0  1.034513  0
H  H6  1  0.14714802  0.81397056  0.15336590  1  0  0.099375  0  0.953202  0  0  0.103731  0  1.033409  0  0  0.105273  0  1.03224  0  0  0.113089  0.102607  0  1.034556  0
H  H7  1  0.35285294  0.31397018  0.84663791  1  0  0.099395  0  0.953183  0  0  0.103749  0  1.033387  0  0  0.105292  0  1.032218  0  0  0.113082  0.102625  0  1.034535  0
H  H8  1  0.64109080  0.21103681  0.82621820  1  0  0.097431  0  0.957717  0  0  0.099562  0  1.040782  0  0  0.102305  0  1.037458  0  0  0.117023  0.097608  0  1.043114  0
H  H9  1  0.85890874  0.71103644  0.17378201  1  0  0.097411  0  0.957719  0  0  0.099548  0  1.040793  0  0  0.102293  0  1.037467  0  0  0.117022  0.097595  0  1.043125  0
H  H10  1  0.35890943  0.78896284  0.17378282  1  0  0.097406  0  0.957725  0  0  0.099536  0  1.040808  0  0  0.102281  0  1.037482  0  0  0.117015  0.097584  0  1.043138  0
H  H11  1  0.14109149  0.28896321  0.82622000  1  0  0.097427  0  0.957706  0  0  0.099569  0  1.040774  0  0  0.102314  0  1.037449  0  0  0.117034  0.097616  0  1.043107  0
H  H12  1  0.93794413  0.32098307  0.06657840  1  0  0.08907  0  0.974156  0  0  0.090964  0  1.055902  0  0  0.092656  0  1.054754  0  0  0.099348  0.089823  0  1.056553  0
H  H13  1  0.56205438  0.82098340  0.93342152  1  0  0.089057  0  0.974147  0  0  0.09095  0  1.055894  0  0  0.092642  0  1.054747  0  0  0.099345  0.089809  0  1.056546  0
H  H14  1  0.06205487  0.67901758  0.93342228  1  0  0.089075  0  0.974143  0  0  0.090962  0  1.0559  0  0  0.092654  0  1.054753  0  0  0.099349  0.089823  0  1.05655  0
H  H15  1  0.43794339  0.17901525  0.06657880  1  0  0.089059  0  0.974156  0  0  0.090946  0  1.055914  0  0  0.092638  0  1.054765  0  0  0.099349  0.089804  0  1.056566  0
H  H16  1  0.81087917  0.18284920  0.07640694  1  0  0.098035  0  0.937152  0  0  0.109401  0  1.001219  0  0  0.110347  0  1.001712  0  0  0.102543  0.10827  0  1.001828  0
H  H17  1  0.68911785  0.68285067  0.92359354  1  0  0.09801  0  0.937202  0  0  0.109384  0  1.001254  0  0  0.110329  0  1.001745  0  0  0.102536  0.108254  0  1.001863  0
H  H18  1  0.18911982  0.81715145  0.92359472  1  0  0.098039  0  0.937152  0  0  0.109418  0  1.001199  0  0  0.110365  0  1.001694  0  0  0.102538  0.108289  0  1.001808  0
H  H19  1  0.31088115  0.31714998  0.07640812  1  0  0.098018  0  0.937167  0  0  0.109405  0  1.001213  0  0  0.110351  0  1.001703  0  0  0.102543  0.108273  0  1.001823  0
C  C20  1  0.63593101  0.45486299  0.71753486  1  0  0.419234  0  3.81697  0  0  0.375174  0  4.115295  0  0  0.39517  0  4.123981  0  0  0.333988  0.361481  0  4.110113  0
C  C21  1  0.86406651  0.95486363  0.28246381  1  0  0.41927  0  3.816938  0  0  0.375285  0  4.115158  0  0  0.39528  0  4.123845  0  0  0.33401  0.361591  0  4.109976  0
C  C22  1  0.36406923  0.54513567  0.28246617  1  0  0.419225  0  3.816883  0  0  0.375174  0  4.115201  0  0  0.395169  0  4.12389  0  0  0.333976  0.361481  0  4.110017  0
C  C23  1  0.13593373  0.04513603  0.71753623  1  0  0.419162  0  3.817022  0  0  0.375148  0  4.115292  0  0  0.395143  0  4.123979  0  0  0.333974  0.361455  0  4.110113  0
C  C24  1  0.76451217  0.25441818  0.86814453  1  0  -0.029221  0  3.651789  0  0  -0.09234  0  3.909575  0  0  -0.088726  0  3.919127  0  0  -0.055902  -0.09468  0  3.903058  0
C  C25  1  0.73548622  0.75441766  0.13185535  1  0  -0.029144  0  3.651725  0  0  -0.092291  0  3.909517  0  0  -0.088681  0  3.919071  0  0  -0.055883  -0.094626  0  3.90299  0
C  C26  1  0.23548806  0.74558247  0.13185649  1  0  -0.029132  0  3.651725  0  0  -0.092318  0  3.909558  0  0  -0.088705  0  3.919109  0  0  -0.055902  -0.094666  0  3.903067  0
C  C27  1  0.26451402  0.24558199  0.86814567  1  0  -0.029179  0  3.651693  0  0  -0.092366  0  3.909531  0  0  -0.088756  0  3.919081  0  0  -0.05592  -0.094696  0  3.902987  0
C  C28  1  0.81482386  0.27730114  0.02390274  1  0  -0.056673  0  3.613587  0  0  -0.104528  0  3.891809  0  0  -0.101349  0  3.89896  0  0  -0.12142  -0.106249  0  3.88673  0
C  C29  1  0.68517580  0.77730162  0.97609751  1  0  -0.056658  0  3.613612  0  0  -0.104511  0  3.891851  0  0  -0.10133  0  3.899006  0  0  -0.121441  -0.106232  0  3.886777  0
C  C30  1  0.18517637  0.72269951  0.97609730  1  0  -0.056667  0  3.613593  0  0  -0.104519  0  3.891826  0  0  -0.101343  0  3.898984  0  0  -0.121391  -0.106239  0  3.886746  0
C  C31  1  0.31482443  0.22269903  0.02390351  1  0  -0.056639  0  3.613549  0  0  -0.1045  0  3.891791  0  0  -0.101328  0  3.898966  0  0  -0.121415  -0.106219  0  3.886714  0
N  N32  1  0.76531153  0.37725486  0.79323424  1  0  -0.036461  0  3.485165  0  0  0.049943  0  3.707677  0  0  0.035543  0  3.730735  0  0  -0.11837  0.059442  0  3.692423  0
N  N33  1  0.73468585  0.87725435  0.20676634  1  0  -0.036468  0  3.48518  0  0  0.049917  0  3.707689  0  0  0.035518  0  3.730746  0  0  -0.118343  0.059415  0  3.692437  0
N  N34  1  0.23468747  0.62274479  0.20676741  1  0  -0.036458  0  3.485174  0  0  0.049951  0  3.707702  0  0  0.03555  0  3.730762  0  0  -0.118346  0.059449  0  3.692446  0
N  N35  1  0.26531438  0.12274530  0.79323566  1  0  -0.036421  0  3.485102  0  0  0.049986  0  3.707606  0  0  0.035588  0  3.730662  0  0  -0.118333  0.059485  0  3.692354  0
N  N36  1  0.90746450  0.43926149  0.80252056  1  0  -0.08938  0  2.888008  0  0  -0.092182  0  3.175142  0  0  -0.089811  0  3.184296  0  0  -0.07161  -0.093593  0  3.169084  0
N  N37  1  0.59253422  0.93926181  0.19747943  1  0  -0.089452  0  2.88804  0  0  -0.09226  0  3.17519  0  0  -0.08989  0  3.184339  0  0  -0.071669  -0.093672  0  3.169131  0
N  N38  1  0.09253573  0.56073817  0.19748046  1  0  -0.089379  0  2.888093  0  0  -0.092174  0  3.175222  0  0  -0.089802  0  3.184374  0  0  -0.071619  -0.093585  0  3.169163  0
N  N39  1  0.40746602  0.06073785  0.80252061  1  0  -0.089467  0  2.888049  0  0  -0.092283  0  3.175204  0  0  -0.089911  0  3.184354  0  0  -0.071669  -0.093694  0  3.169146  0
N  N40  1  0.86661028  0.55092340  0.73482974  1  0  -0.1021  0  3.050929  0  0  -0.09272  0  3.372645  0  0  -0.091006  0  3.380609  0  0  -0.134636  -0.093597  0  3.367408  0
N  N41  1  0.63339022  0.05092372  0.26516974  1  0  -0.102097  0  3.050941  0  0  -0.092723  0  3.372661  0  0  -0.091003  0  3.380617  0  0  -0.13466  -0.093599  0  3.36742  0
N  N42  1  0.13338996  0.44907626  0.26516931  1  0  -0.102171  0  3.050976  0  0  -0.0928  0  3.372701  0  0  -0.091085  0  3.380658  0  0  -0.134701  -0.093675  0  3.36746  0
N  N43  1  0.36661002  0.94907693  0.73482932  1  0  -0.102076  0  3.050911  0  0  -0.092694  0  3.372624  0  0  -0.09098  0  3.380583  0  0  -0.134632  -0.093571  0  3.367386  0
N  N44  1  0.70038254  0.56565112  0.68135493  1  0  -0.385726  0  2.977666  0  0  -0.367321  0  3.280841  0  0  -0.380318  0  3.291376  0  0  -0.305794  -0.35864  0  3.274273  0
N  N45  1  0.79961675  0.06565164  0.31864421  1  0  -0.385705  0  2.977631  0  0  -0.367331  0  3.280795  0  0  -0.380323  0  3.291319  0  0  -0.30577  -0.358648  0  3.274222  0
N  N46  1  0.29961769  0.43434853  0.31864511  1  0  -0.385698  0  2.977639  0  0  -0.367303  0  3.28082  0  0  -0.380293  0  3.291349  0  0  -0.305769  -0.35862  0  3.274248  0
N  N47  1  0.20038349  0.93434901  0.68135583  1  0  -0.385695  0  2.977726  0  0  -0.367303  0  3.280889  0  0  -0.3803  0  3.291422  0  0  -0.305784  -0.358621  0  3.274321  0
N  N48  1  0.48077587  0.40499651  0.68960309  1  0  -0.442635  0  2.867834  0  0  -0.444782  0  3.170619  0  0  -0.459192  0  3.17402  0  0  -0.24027  -0.434893  0  3.168668  0
N  N49  1  0.01922157  0.90499675  0.31039678  1  0  -0.442639  0  2.867845  0  0  -0.444795  0  3.170576  0  0  -0.45921  0  3.17398  0  0  -0.24028  -0.434906  0  3.168624  0
N  N50  1  0.51922436  0.59500315  0.31039891  1  0  -0.442598  0  2.867756  0  0  -0.444735  0  3.170502  0  0  -0.459149  0  3.173909  0  0  -0.240254  -0.434846  0  3.16855  0
N  N51  1  0.98077866  0.09500191  0.68960522  1  0  -0.442568  0  2.86786  0  0  -0.44472  0  3.170599  0  0  -0.459132  0  3.174003  0  0  -0.240229  -0.434833  0  3.16865  0
N  N52  1  0.35393044  0.48386563  0.62999389  1  0  0.660138  0  4.04341  0  0  0.683667  0  4.346582  0  0  0.708448  0  4.356324  0  0  0.085121  0.666957  0  4.340115  0
N  N53  1  0.14606590  0.98386503  0.37000666  1  0  0.660248  0  4.043453  0  0  0.683779  0  4.34662  0  0  0.708561  0  4.356358  0  0  0.08521  0.667069  0  4.340153  0
N  N54  1  0.64606856  0.51613403  0.37000678  1  0  0.660201  0  4.043472  0  0  0.683735  0  4.346638  0  0  0.708515  0  4.356381  0  0  0.085156  0.667025  0  4.340172  0
N  N55  1  0.85393434  0.01613463  0.62999436  1  0  0.660219  0  4.043527  0  0  0.683755  0  4.34669  0  0  0.708534  0  4.356432  0  0  0.085187  0.667045  0  4.340224  0
Cl  Cl56  1  0.67810226  0.39040214  0.06876913  1  0  -0.126051  0  1.270051  0  0  -0.091425  0  1.525655  0  0  -0.098121  0  1.519599  0  0  -0.018935  -0.086832  0  1.5312  0
Cl  Cl57  1  0.82189760  0.89040277  0.93123118  1  0  -0.126056  0  1.270072  0  0  -0.091419  0  1.525663  0  0  -0.098116  0  1.519608  0  0  -0.018919  -0.086822  0  1.531209  0
Cl  Cl58  1  0.32189797  0.60959751  0.93123189  1  0  -0.126076  0  1.270112  0  0  -0.091444  0  1.525711  0  0  -0.098142  0  1.519657  0  0  -0.018941  -0.086848  0  1.531258  0
Cl  Cl59  1  0.17810140  0.10959688  0.06876949  1  0  -0.126072  0  1.270059  0  0  -0.091438  0  1.525669  0  0  -0.098131  0  1.519616  0  0  -0.018937  -0.086845  0  1.531213  0
O  O60  1  0.21210699  0.43275011  0.60502770  1  0  -0.546591  0  1.771443  0  0  -0.530641  0  2.014169  0  0  -0.546367  0  2.008242  0  0  -0.299428  -0.519507  0  2.018361  0
O  O61  1  0.28788926  0.93274867  0.39497380  1  0  -0.546607  0  1.771347  0  0  -0.530663  0  2.014074  0  0  -0.546387  0  2.008147  0  0  -0.299453  -0.519526  0  2.018266  0
O  O62  1  0.78789201  0.56724955  0.39497297  1  0  -0.5466  0  1.77141  0  0  -0.530638  0  2.014099  0  0  -0.546365  0  2.008173  0  0  -0.299449  -0.519503  0  2.018291  0
O  O63  1  0.71211098  0.06725098  0.60502722  1  0  -0.546582  0  1.771379  0  0  -0.530645  0  2.014114  0  0  -0.546367  0  2.008189  0  0  -0.299439  -0.519509  0  2.018306  0
O  O64  1  0.36730258  0.60497754  0.60031045  1  0  -0.54714  0  1.80011  0  0  -0.524799  0  2.037887  0  0  -0.540245  0  2.032567  0  0  -0.317775  -0.514107  0  2.042077  0
O  O65  1  0.13269555  0.10497688  0.39968862  1  0  -0.547208  0  1.800204  0  0  -0.524869  0  2.037971  0  0  -0.540311  0  2.032646  0  0  -0.317815  -0.514179  0  2.042158  0
O  O66  1  0.63269642  0.39502311  0.39968826  1  0  -0.5472  0  1.800235  0  0  -0.524866  0  2.038008  0  0  -0.540303  0  2.032688  0  0  -0.317811  -0.514172  0  2.042196  0
O  O67  1  0.86730345  0.89502278  0.60031107  1  0  -0.547229  0  1.800237  0  0  -0.524886  0  2.038016  0  0  -0.540332  0  2.032694  0  0  -0.317857  -0.514195  0  2.042207  0
