# generated using pymatgen
data_HgH9C9S(NO)2
_symmetry_space_group_name_H-M   'P 1'
_cell_length_a   8.03303732
_cell_length_b   9.13148684
_cell_length_c   9.21946653
_cell_angle_alpha   117.07026742
_cell_angle_beta   107.42151431
_cell_angle_gamma   96.76687666
_symmetry_Int_Tables_number   1
_chemical_formula_structural   HgH9C9S(NO)2
_chemical_formula_sum   'Hg2 H18 C18 S2 N4 O4'
_cell_volume   548.27437886
_cell_formula_units_Z   2
loop_
 _symmetry_equiv_pos_site_id
 _symmetry_equiv_pos_as_xyz
  1  'x, y, z'
loop_
 _atom_site_type_symbol
 _atom_site_label
 _atom_site_symmetry_multiplicity
 _atom_site_fract_x
 _atom_site_fract_y
 _atom_site_fract_z
 _atom_site_occupancy
 _atom_site_hle17_bader_spin_density
 _atom_site_hle17_ddec_charge
 _atom_site_hle17_ddec_spin_density
 _atom_site_hle17_ddec_sum_bond_order
 _atom_site_hle17_magmom
 _atom_site_hse06_10hf_bader_spin_density
 _atom_site_hse06_10hf_ddec_charge
 _atom_site_hse06_10hf_ddec_spin_density
 _atom_site_hse06_10hf_ddec_sum_bond_order
 _atom_site_hse06_10hf_magmom
 _atom_site_hse06_bader_spin_density
 _atom_site_hse06_ddec_charge
 _atom_site_hse06_ddec_spin_density
 _atom_site_hse06_ddec_sum_bond_order
 _atom_site_hse06_magmom
 _atom_site_pbe_bader_spin_density
 _atom_site_pbe_cm5_charge
 _atom_site_pbe_ddec_charge
 _atom_site_pbe_ddec_spin_density
 _atom_site_pbe_ddec_sum_bond_order
 _atom_site_pbe_magmom
Hg  Hg0  1  0.32733828  0.78490467  0.24815126  1  0  0.70519  0  2.02702  0  0  0.544871  0  2.507526  0  0  0.592213  0  2.474077  0  0  0.569811  0.512588  0  2.529816  0
Hg  Hg1  1  0.67266178  0.21509486  0.75184780  1  0  0.705139  0  2.027093  0  0  0.544806  0  2.507602  0  0  0.592154  0  2.474149  0  0  0.569793  0.512522  0  2.529888  0
H  H2  1  0.50925655  0.62689018  0.99309553  1  0  0.083107  0  0.968972  0  0  0.087088  0  1.045579  0  0  0.089293  0  1.042635  0  0  0.1095  0.085386  0  1.04781  0
H  H3  1  0.49074168  0.37311192  0.00690313  1  0  0.083121  0  0.968925  0  0  0.087104  0  1.045529  0  0  0.08931  0  1.042584  0  0  0.109515  0.085402  0  1.047759  0
H  H4  1  0.72340367  0.69978412  0.87827295  1  0  0.114831  0  0.958813  0  0  0.126947  0  1.016094  0  0  0.129903  0  1.015548  0  0  0.107818  0.124741  0  1.016787  0
H  H5  1  0.27659363  0.30021925  0.12172497  1  0  0.114793  0  0.958834  0  0  0.126929  0  1.016112  0  0  0.129888  0  1.015554  0  0  0.1078  0.124723  0  1.016804  0
H  H6  1  0.80194023  0.23804541  0.23589850  1  0  0.098721  0  0.969823  0  0  0.109093  0  1.034291  0  0  0.111512  0  1.033812  0  0  0.103636  0.107313  0  1.03484  0
H  H7  1  0.19806346  0.76195682  0.76411024  1  0  0.098726  0  0.969788  0  0  0.109058  0  1.034309  0  0  0.111479  0  1.033827  0  0  0.103595  0.10728  0  1.034861  0
H  H8  1  0.57961431  0.14112972  0.34028195  1  0  0.0824  0  0.974132  0  0  0.089422  0  1.042876  0  0  0.091659  0  1.040649  0  0  0.110317  0.087691  0  1.044544  0
H  H9  1  0.42038761  0.85887119  0.65972359  1  0  0.082345  0  0.974187  0  0  0.089369  0  1.042938  0  0  0.091605  0  1.040713  0  0  0.110291  0.087639  0  1.044606  0
H  H10  1  0.95117757  0.16805350  0.03612916  1  0  0.068557  0  0.963315  0  0  0.079939  0  1.037806  0  0  0.08067  0  1.037685  0  0  0.084427  0.079419  0  1.037861  0
H  H11  1  0.04882081  0.83194868  0.96387501  1  0  0.068528  0  0.963213  0  0  0.079911  0  1.037709  0  0  0.080642  0  1.037588  0  0  0.084391  0.079392  0  1.037765  0
H  H12  1  0.84185601  0.96620597  0.83392592  1  0  0.094911  0  0.963996  0  0  0.108723  0  1.030894  0  0  0.110957  0  1.029588  0  0  0.090072  0.107039  0  1.031915  0
H  H13  1  0.15814403  0.03379746  0.16607704  1  0  0.094871  0  0.964035  0  0  0.108662  0  1.030947  0  0  0.110916  0  1.029625  0  0  0.090062  0.106984  0  1.031957  0
H  H14  1  0.72171865  0.46559013  0.38925835  1  0  0.124635  0  0.962867  0  0  0.143393  0  1.023952  0  0  0.145314  0  1.023762  0  0  0.08891  0.142077  0  1.024041  0
H  H15  1  0.27828091  0.53440807  0.61073673  1  0  0.124612  0  0.962905  0  0  0.143385  0  1.02397  0  0  0.145306  0  1.023779  0  0  0.088912  0.14207  0  1.02406  0
H  H16  1  0.73119760  0.58670438  0.60881454  1  0  0.135241  0  0.947621  0  0  0.155281  0  1.006635  0  0  0.157514  0  1.006201  0  0  0.095733  0.153734  0  1.006913  0
H  H17  1  0.26880682  0.41329257  0.39118334  1  0  0.13523  0  0.947614  0  0  0.155273  0  1.006613  0  0  0.157505  0  1.006179  0  0  0.095718  0.153725  0  1.006893  0
H  H18  1  0.88844543  0.67285770  0.54630778  1  0  0.128757  0  0.958584  0  0  0.145683  0  1.023288  0  0  0.147809  0  1.023246  0  0  0.09032  0.144323  0  1.02314  0
H  H19  1  0.11155375  0.32713923  0.45368773  1  0  0.128767  0  0.958576  0  0  0.145672  0  1.023301  0  0  0.147795  0  1.023261  0  0  0.090325  0.144313  0  1.023152  0
C  C20  1  0.57923342  0.76119253  0.04670041  1  0  0.122687  0  3.710733  0  0  0.083222  0  3.969203  0  0  0.091802  0  3.988581  0  0  0.040599  0.077742  0  3.956054  0
C  C21  1  0.42076441  0.23880828  0.95329759  1  0  0.122649  0  3.710671  0  0  0.083186  0  3.969155  0  0  0.091766  0  3.98854  0  0  0.040585  0.077708  0  3.956005  0
C  C22  1  0.70015366  0.80430367  0.98251772  1  0  -0.156423  0  3.686422  0  0  -0.176241  0  3.935298  0  0  -0.184916  0  3.956494  0  0  -0.083154  -0.170732  0  3.921214  0
C  C23  1  0.29984419  0.19569716  0.01748137  1  0  -0.156374  0  3.686455  0  0  -0.176239  0  3.935353  0  0  -0.184913  0  3.956555  0  0  -0.08314  -0.170729  0  3.921269  0
C  C24  1  0.78467781  0.97802366  0.04921913  1  0  0.167607  0  3.701548  0  0  0.186801  0  3.933879  0  0  0.192763  0  3.955515  0  0  0.01753  0.183001  0  3.919071  0
C  C25  1  0.21532048  0.02197848  0.95078173  1  0  0.167607  0  3.701551  0  0  0.186814  0  3.933852  0  0  0.192775  0  3.95549  0  0  0.017496  0.183014  0  3.91905  0
C  C26  1  0.74192163  0.10110374  0.18111348  1  0  -0.175991  0  3.720879  0  0  -0.196816  0  3.97205  0  0  -0.205967  0  3.994313  0  0  -0.087876  -0.190963  0  3.957151  0
C  C27  1  0.25807768  0.89889716  0.81889143  1  0  -0.175899  0  3.720738  0  0  -0.19671  0  3.971905  0  0  -0.205861  0  3.994167  0  0  -0.087783  -0.190858  0  3.957011  0
C  C28  1  0.61923236  0.04971274  0.24014989  1  0  0.118865  0  3.722996  0  0  0.083031  0  3.977164  0  0  0.092499  0  3.995599  0  0  0.040373  0.077026  0  3.964557  0
C  C29  1  0.38076898  0.95029070  0.75985339  1  0  0.118816  0  3.723011  0  0  0.082982  0  3.977157  0  0  0.092453  0  3.995599  0  0  0.040352  0.076978  0  3.964553  0
C  C30  1  0.91324413  0.02794605  0.97929717  1  0  -0.165378  0  3.686857  0  0  -0.204913  0  3.925879  0  0  -0.207232  0  3.937971  0  0  -0.164507  -0.203074  0  3.917375  0
C  C31  1  0.08675501  0.97205868  0.02070614  1  0  -0.165515  0  3.686861  0  0  -0.204936  0  3.925728  0  0  -0.207269  0  3.937803  0  0  -0.164514  -0.203098  0  3.917223  0
C  C32  1  0.84237056  0.45850743  0.07866515  1  0  -0.10692  0  2.783969  0  0  -0.121436  0  3.058185  0  0  -0.111137  0  3.062195  0  0  0.037636  -0.128386  0  3.055541  0
C  C33  1  0.15762273  0.54147527  0.92131933  1  0  -0.107037  0  2.784611  0  0  -0.121571  0  3.058793  0  0  -0.111271  0  3.062804  0  0  0.037587  -0.128517  0  3.056149  0
C  C34  1  0.61493863  0.68332015  0.44066017  1  0  0.732313  0  3.858913  0  0  0.693443  0  4.150118  0  0  0.728235  0  4.143489  0  0  0.190272  0.669816  0  4.153469  0
C  C35  1  0.38506485  0.31668196  0.55934087  1  0  0.732374  0  3.858795  0  0  0.693463  0  4.150067  0  0  0.728253  0  4.143438  0  0  0.190272  0.669836  0  4.153415  0
C  C36  1  0.74752081  0.59562397  0.49864875  1  0  -0.440657  0  3.641261  0  0  -0.510082  0  3.863306  0  0  -0.517987  0  3.867113  0  0  -0.248609  -0.504485  0  3.860263  0
C  C37  1  0.25247887  0.40437430  0.50135074  1  0  -0.440648  0  3.641255  0  0  -0.510055  0  3.86331  0  0  -0.517956  0  3.86712  0  0  -0.248593  -0.504459  0  3.860266  0
S  S38  1  0.06557290  0.80176270  0.33018270  1  0  -0.059981  0  2.205517  0  0  -0.045781  0  2.550715  0  0  -0.058877  0  2.551337  0  0  0.037115  -0.037778  0  2.551026  0
S  S39  1  0.93442511  0.19823040  0.66981299  1  0  -0.060049  0  2.205324  0  0  -0.045871  0  2.550492  0  0  -0.058967  0  2.55112  0  0  0.03705  -0.037871  0  2.550804  0
N  N40  1  0.53942519  0.88189289  0.17317670  1  0  -0.270273  0  3.322267  0  0  -0.175864  0  3.577965  0  0  -0.199818  0  3.602155  0  0  -0.311161  -0.159962  0  3.561211  0
N  N41  1  0.46057533  0.11810797  0.82682523  1  0  -0.270181  0  3.322248  0  0  -0.17576  0  3.577924  0  0  -0.199721  0  3.602124  0  0  -0.31111  -0.159859  0  3.56117  0
N  N42  1  0.93826522  0.60122168  0.18481463  1  0  -0.10333  0  3.797442  0  0  -0.03273  0  4.071291  0  0  -0.043028  0  4.09607  0  0  -0.252399  -0.02614  0  4.054597  0
N  N43  1  0.06173848  0.39878163  0.81518048  1  0  -0.103166  0  3.79785  0  0  -0.032516  0  4.071599  0  0  -0.042822  0  4.096381  0  0  -0.252305  -0.025925  0  4.054904  0
O  O44  1  0.63770814  0.84067858  0.54551791  1  0  -0.66713  0  1.935493  0  0  -0.608953  0  2.174325  0  0  -0.636494  0  2.163428  0  0  -0.342595  -0.589295  0  2.180834  0
O  O45  1  0.36229508  0.15932233  0.45448796  1  0  -0.667185  0  1.93552  0  0  -0.609026  0  2.174407  0  0  -0.636565  0  2.163517  0  0  -0.342625  -0.589367  0  2.180915  0
O  O46  1  0.48428716  0.58978969  0.28598642  1  0  -0.631641  0  1.968349  0  0  -0.564064  0  2.212185  0  0  -0.596626  0  2.205728  0  0  -0.323736  -0.541028  0  2.215257  0
O  O47  1  0.51571966  0.41021495  0.71401331  1  0  -0.631623  0  1.968236  0  0  -0.563986  0  2.212027  0  0  -0.596562  0  2.205606  0  0  -0.323705  -0.540954  0  2.215105  0
