# generated using pymatgen
data_ZnH20C18NO6
_symmetry_space_group_name_H-M   'P 1'
_cell_length_a   8.47572054
_cell_length_b   9.25507264
_cell_length_c   17.59065691
_cell_angle_alpha   89.98767697
_cell_angle_beta   93.18500588
_cell_angle_gamma   89.98150772
_symmetry_Int_Tables_number   1
_chemical_formula_structural   ZnH20C18NO6
_chemical_formula_sum   'Zn2 H40 C36 N2 O12'
_cell_volume   1377.73955547
_cell_formula_units_Z   2
loop_
 _symmetry_equiv_pos_site_id
 _symmetry_equiv_pos_as_xyz
  1  'x, y, z'
loop_
 _atom_site_type_symbol
 _atom_site_label
 _atom_site_symmetry_multiplicity
 _atom_site_fract_x
 _atom_site_fract_y
 _atom_site_fract_z
 _atom_site_occupancy
 _atom_site_pbe_bader_charge
 _atom_site_pbe_bader_spin_density
 _atom_site_pbe_cm5_charge
 _atom_site_pbe_ddec_charge
 _atom_site_pbe_ddec_spin_density
 _atom_site_pbe_ddec_sum_bond_order
 _atom_site_pbe_magmom
Zn  Zn0  1  0.65455011  0.51653309  0.50262789  1  1.288096  0  0.688988  0.858002  0  2.37607  0
Zn  Zn1  1  0.34535660  0.51661489  0.49733316  1  1.30394  0  0.689034  0.857951  0  2.376424  0
H  H2  1  0.87990648  0.33728964  0.85156126  1  0.068541  0  0.094545  0.127818  0  1.032569  0
H  H3  1  0.84218211  0.45960522  0.92598687  1  0.03093  0  0.090693  0.123454  0  1.00481  0
H  H4  1  0.77400669  0.27988613  0.93136007  1  0.044158  0  0.092093  0.130082  0  0.999474  0
H  H5  1  0.12022255  0.33717933  0.14839701  1  0.06931  0  0.09454  0.127821  0  1.032477  0
H  H6  1  0.15791687  0.45950906  0.07394422  1  0.032187  0  0.090663  0.12325  0  1.004481  0
H  H7  1  0.22618794  0.27979063  0.06862558  1  0.058808  0  0.092125  0.130096  0  0.999577  0
H  H8  1  0.89777353  0.45969389  0.15040006  1  0.052682  0  0.094654  0.12468  0  1.047067  0
H  H9  1  0.83850599  0.30335713  0.09734738  1  0.025618  0  0.092532  0.127026  0  0.992463  0
H  H10  1  0.78448324  0.47565314  0.06222897  1  0.050678  0  0.090852  0.127844  0  1.008186  0
H  H11  1  0.21564108  0.47582067  0.93776768  1  0.048922  0  0.090871  0.127948  0  1.007823  0
H  H12  1  0.10229960  0.45987202  0.84962502  1  0.055659  0  0.094693  0.124844  0  1.04723  0
H  H13  1  0.16163210  0.30353806  0.90272993  1  0.026317  0  0.092467  0.127088  0  0.992565  0
H  H14  1  0.96518252  0.62014357  0.75280682  1  0.051792  0  0.106913  0.081506  0  0.977142  0
H  H15  1  0.84236729  0.62650959  0.83202707  1  -0.000844  0  0.091977  0.048864  0  1.010436  0
H  H16  1  0.77234354  0.76116453  0.67435724  1  0.012781  0  0.090162  0.093365  0  0.978964  0
H  H17  1  0.62500481  0.73503894  0.74004043  1  0.051538  0  0.089573  0.085032  0  0.987175  0
H  H18  1  0.76899028  0.88731290  0.83714316  1  0.024264  0  0.081596  0.103303  0  1.010365  0
H  H19  1  0.74531379  0.98649327  0.75080106  1  0.045745  0  0.089441  0.120147  0  0.995989  0
H  H20  1  0.93052816  0.90793709  0.77795056  1  0.041027  0  0.082289  0.102658  0  1.035276  0
H  H21  1  0.03471676  0.61995580  0.24714507  1  0.051233  0  0.106976  0.081521  0  0.977477  0
H  H22  1  0.15737523  0.62622828  0.16786469  1  -0.002486  0  0.091997  0.049003  0  1.010334  0
H  H23  1  0.22754550  0.76107636  0.32543466  1  0.016211  0  0.090422  0.093941  0  0.979142  0
H  H24  1  0.37480623  0.73484257  0.25973104  1  0.051212  0  0.08971  0.085302  0  0.986659  0
H  H25  1  0.23059426  0.88710326  0.16259368  1  0.022118  0  0.081479  0.103216  0  1.010676  0
H  H26  1  0.25446534  0.98627248  0.24889724  1  0.003791  0  0.089583  0.120241  0  0.996607  0
H  H27  1  0.06918065  0.90787472  0.22185941  1  0.038872  0  0.082487  0.103138  0  1.035032  0
H  H28  1  0.99811189  0.31793462  0.29561680  1  0.096288  0  0.105082  0.081608  0  0.986471  0
H  H29  1  0.86756687  0.24078276  0.22379769  1  0.021594  0  0.093684  0.054364  0  1.011137  0
H  H30  1  0.81504578  0.24297852  0.39500261  1  0.039394  0  0.085881  0.090146  0  1.010481  0
H  H31  1  0.67380320  0.18563971  0.32465938  1  0.00012  0  0.087837  0.083474  0  0.979456  0
H  H32  1  0.85372188  0.98796850  0.28445850  1  -0.002422  0  0.081001  0.101122  0  1.020359  0
H  H33  1  0.82537593  0.97552410  0.38338746  1  0.020741  0  0.088682  0.122216  0  1.000423  0
H  H34  1  0.00423681  0.04748504  0.35151485  1  0.01422  0  0.086886  0.114628  0  1.000978  0
H  H35  1  0.00196866  0.31810893  0.70435166  1  0.096671  0  0.105055  0.081523  0  0.986767  0
H  H36  1  0.13237919  0.24096811  0.77626197  1  0.021895  0  0.093682  0.054332  0  1.01119  0
H  H37  1  0.18527791  0.24292029  0.60509352  1  0.039091  0  0.085697  0.089932  0  1.010717  0
H  H38  1  0.32636602  0.18561602  0.67554508  1  -0.000871  0  0.087945  0.083388  0  0.979214  0
H  H39  1  0.14641528  0.98814880  0.71579980  1  -0.003959  0  0.081026  0.101167  0  1.02033  0
H  H40  1  0.17504590  0.97545559  0.61691446  1  0.023326  0  0.088544  0.121994  0  1.000403  0
H  H41  1  0.99600399  0.04752219  0.64860096  1  0.016814  0  0.086845  0.114313  0  1.001354  0
C  C42  1  0.49994750  0.79404184  0.49997650  1  1.68563  0  0.23045  0.670013  0  4.215019  0
C  C43  1  0.49995345  0.23666316  0.50000058  1  1.649897  0  0.230551  0.664221  0  4.218129  0
C  C44  1  0.49990740  0.94975429  0.49998273  1  -0.202942  0  -0.022006  -0.115547  0  3.928337  0
C  C45  1  0.49992361  0.08084050  0.49998821  1  0.016764  0  -0.015629  -0.103564  0  3.920736  0
C  C46  1  0.50899034  0.49486403  0.35483773  1  1.556153  0  0.217667  0.626597  0  4.122861  0
C  C47  1  0.49094396  0.49488396  0.64512477  1  1.556323  0  0.217328  0.626332  0  4.12358  0
C  C48  1  0.63925882  0.40609610  0.84933714  1  0.07691  0  -0.018073  0.011467  0  3.963526  0
C  C49  1  0.36082475  0.40597092  0.15063663  1  0.076876  0  -0.017967  0.011949  0  3.963282  0
C  C50  1  0.65162401  0.41060463  0.15605564  1  0.035953  0  -0.019586  0.008805  0  3.95796  0
C  C51  1  0.34844849  0.41069409  0.84394456  1  0.039315  0  -0.019663  0.008856  0  3.958451  0
C  C52  1  0.63498639  0.45154731  0.77327595  1  0.487388  0  0.08685  0.189038  0  4.016603  0
C  C53  1  0.36504228  0.45141691  0.22669345  1  0.489171  0  0.086709  0.188787  0  4.01689  0
C  C54  1  0.65211245  0.43238474  0.23516923  1  0.487241  0  0.089192  0.192907  0  4.013683  0
C  C55  1  0.34793003  0.43245443  0.76482889  1  0.489059  0  0.08916  0.192788  0  4.014917  0
C  C56  1  0.49051696  0.46063056  0.72833561  1  0.052151  0  -0.027594  -0.235192  0  3.920831  0
C  C57  1  0.50948497  0.46055610  0.27164338  1  0.05331  0  -0.027495  -0.235004  0  3.92031  0
C  C58  1  0.49488629  0.39430373  0.88531345  1  0.058402  0  -0.004807  0.043401  0  4.104775  0
C  C59  1  0.50523373  0.39422052  0.11468086  1  0.061723  0  -0.004776  0.043546  0  4.104453  0
C  C60  1  0.49831723  0.37615064  0.96519475  1  -0.341956  0  -0.035911  -0.083454  0  4.104611  0
C  C61  1  0.50182697  0.37611241  0.03480781  1  -0.117268  0  -0.035948  -0.083359  0  4.104515  0
C  C62  1  0.79221126  0.36928566  0.89175591  1  -0.081078  0  -0.24088  -0.400357  0  4.002987  0
C  C63  1  0.20792769  0.36917848  0.10820669  1  -0.098102  0  -0.240872  -0.400359  0  4.002708  0
C  C64  1  0.80166302  0.41195624  0.11476178  1  -0.05359  0  -0.242056  -0.402098  0  4.005468  0
C  C65  1  0.19843595  0.41210960  0.88525849  1  -0.054988  0  -0.241996  -0.402322  0  4.005668  0
C  C66  1  0.84201764  0.62227970  0.76926840  1  0.436514  0  -0.066147  0.032864  0  3.862997  0
C  C67  1  0.75270612  0.75239254  0.73547531  1  8.4e-05  0  -0.171691  -0.134525  0  3.960102  0
C  C68  1  0.80211964  0.89116341  0.77758521  1  -0.11773  0  -0.243777  -0.349935  0  3.985542  0
C  C69  1  0.15781857  0.62208653  0.23062253  1  0.438915  0  -0.065959  0.033054  0  3.863987  0
C  C70  1  0.24708939  0.75221694  0.26431203  1  -0.003837  0  -0.171942  -0.13534  0  3.961098  0
C  C71  1  0.19756682  0.89098903  0.22216617  1  -0.070269  0  -0.24412  -0.350487  0  3.986507  0
C  C72  1  0.87377551  0.29247644  0.28038020  1  0.381862  0  -0.068586  0.026506  0  3.86921  0
C  C73  1  0.80203668  0.19380978  0.33826704  1  0.013217  0  -0.17685  -0.140033  0  3.982158  0
C  C74  1  0.87560571  0.04306196  0.33943645  1  -0.026829  0  -0.24314  -0.347115  0  3.967103  0
C  C75  1  0.12628554  0.29260910  0.71965330  1  0.38264  0  -0.068519  0.02666  0  3.869853  0
C  C76  1  0.19816411  0.19382941  0.66185872  1  0.013923  0  -0.176854  -0.139968  0  3.981786  0
C  C77  1  0.12462368  0.04310469  0.66076573  1  -0.030645  0  -0.243037  -0.346528  0  3.966887  0
N  N78  1  0.06469409  0.51898937  0.49672825  1  -0.041076  0  0.093664  0.117344  0  2.879198  0
N  N79  1  0.93524267  0.51894301  0.50321638  1  0.103976  0  0.093805  0.117605  0  2.879098  0
O  O80  1  0.63096835  0.73313181  0.51963416  1  -1.134002  0  -0.306545  -0.539182  0  2.260711  0
O  O81  1  0.36926416  0.29733950  0.51289019  1  -1.13602  0  -0.298629  -0.531941  0  2.301261  0
O  O82  1  0.63065689  0.29724356  0.48712063  1  -1.136005  0  -0.298622  -0.532092  0  2.300802  0
O  O83  1  0.36895786  0.73317431  0.48031668  1  -1.134211  0  -0.306821  -0.539493  0  2.260687  0
O  O84  1  0.63535267  0.54404358  0.38885613  1  -1.142168  0  -0.322351  -0.55083  0  2.319781  0
O  O85  1  0.36458571  0.54416069  0.61110742  1  -1.142479  0  -0.322214  -0.550524  0  2.320313  0
O  O86  1  0.61897163  0.47099389  0.61200525  1  -1.142629  0  -0.315277  -0.546193  0  2.371725  0
O  O87  1  0.38093623  0.47112077  0.38794744  1  -1.143491  0  -0.315409  -0.546221  0  2.371994  0
O  O88  1  0.77674503  0.48500196  0.74286454  1  -1.057074  0  -0.200805  -0.223106  0  2.531403  0
O  O89  1  0.22322811  0.48482938  0.25708755  1  -1.057824  0  -0.201009  -0.223316  0  2.531888  0
O  O90  1  0.79514928  0.43242050  0.27598729  1  -1.061237  0  -0.201649  -0.224202  0  2.526087  0
O  O91  1  0.20488851  0.43252780  0.72401189  1  -1.061951  0  -0.201363  -0.223806  0  2.526291  0
