# generated using pymatgen
data_Ag2H15C11N4O5
_symmetry_space_group_name_H-M   'P 1'
_cell_length_a   12.30350874
_cell_length_b   16.85667837
_cell_length_c   18.40150853
_cell_angle_alpha   73.34033779
_cell_angle_beta   70.47541301
_cell_angle_gamma   68.60243790
_symmetry_Int_Tables_number   1
_chemical_formula_structural   Ag2H15C11N4O5
_chemical_formula_sum   'Ag16 H120 C88 N32 O40'
_cell_volume   3289.46741867
_cell_formula_units_Z   8
loop_
 _symmetry_equiv_pos_site_id
 _symmetry_equiv_pos_as_xyz
  1  'x, y, z'
loop_
 _atom_site_type_symbol
 _atom_site_label
 _atom_site_symmetry_multiplicity
 _atom_site_fract_x
 _atom_site_fract_y
 _atom_site_fract_z
 _atom_site_occupancy
 _atom_site_pbe_bader_charge
 _atom_site_pbe_bader_spin_density
 _atom_site_pbe_cm5_charge
 _atom_site_pbe_ddec_charge
 _atom_site_pbe_ddec_spin_density
 _atom_site_pbe_ddec_sum_bond_order
 _atom_site_pbe_magmom
Ag  Ag0  1  0.12977749  0.60737062  0.06698291  1  0.559572  0  0.461165  0.370063  0  1.796006  0
Ag  Ag1  1  0.26452018  0.56020442  0.91491615  1  0.586766  0  0.410218  0.412251  0  1.843745  0
Ag  Ag2  1  0.35060282  0.88517657  0.87870881  1  0.48742  0  0.518771  0.340788  0  1.538345  0
Ag  Ag3  1  0.80405129  0.89256975  0.43308233  1  0.558806  0  0.460146  0.36923  0  1.79574  0
Ag  Ag4  1  0.73967493  0.93981906  0.58523630  1  0.588187  0  0.410101  0.412224  0  1.843553  0
Ag  Ag5  1  0.11455203  0.61480681  0.62130231  1  0.487315  0  0.51951  0.34092  0  1.537888  0
Ag  Ag6  1  0.87022030  0.39262934  0.93302240  1  0.559687  0  0.461175  0.370102  0  1.796015  0
Ag  Ag7  1  0.73547814  0.43979814  0.08508291  1  0.586869  0  0.410192  0.412196  0  1.843754  0
Ag  Ag8  1  0.64938709  0.11482534  0.12128966  1  0.487526  0  0.518734  0.340763  0  1.538303  0
Ag  Ag9  1  0.19594751  0.10743800  0.56691741  1  0.558922  0  0.460155  0.369164  0  1.795752  0
Ag  Ag10  1  0.26032398  0.06018219  0.41476515  1  0.58811  0  0.410083  0.412201  0  1.84351  0
Ag  Ag11  1  0.88544024  0.38519575  0.37869761  1  0.487308  0  0.519507  0.340907  0  1.537846  0
Ag  Ag12  1  0.34856833  0.74999567  0.25000972  1  0.587293  0  0.416967  0.392487  0  1.826985  0
Ag  Ag13  1  0.58307145  0.75003933  0.24983440  1  0.562252  0  0.422103  0.381171  0  1.843135  0
Ag  Ag14  1  0.65142614  0.25000364  0.74999001  1  0.587295  0  0.416957  0.392457  0  1.827055  0
Ag  Ag15  1  0.41692542  0.24996063  0.75016840  1  0.562384  0  0.42209  0.381206  0  1.843002  0
H  H16  1  0.66232141  0.82019191  0.09748596  1  0.655837  0  0.276252  0.380661  0  0.963725  0
H  H17  1  0.51600586  0.85888810  0.12513836  1  0.648655  0  0.27025  0.363125  0  0.996518  0
H  H18  1  0.35985604  0.41161641  0.01061432  1  0.615151  0  0.276498  0.327235  0  1.040041  0
H  H19  1  0.22864081  0.40364759  0.02547538  1  0.586665  0  0.309285  0.387008  0  0.900702  0
H  H20  1  0.28430432  0.71719066  0.93258775  1  0.118106  0  0.117521  0.098467  0  1.028181  0
H  H21  1  0.17536635  0.78252515  0.00144057  1  0.17535  0  0.120236  0.116108  0  1.025812  0
H  H22  1  0.54826620  0.75142427  0.95301127  1  0.069912  0  0.123643  0.092618  0  0.957754  0
H  H23  1  0.49588108  0.69862996  0.90417423  1  0.145139  0  0.124174  0.113527  0  1.017133  0
H  H24  1  0.40489921  0.84028265  0.04766604  1  0.107492  0  0.126435  0.101937  0  0.979202  0
H  H25  1  0.24633608  0.85383409  0.06863934  1  0.083495  0  0.127781  0.102651  0  0.951893  0
H  H26  1  0.16851685  0.73542121  0.13886081  1  0.086601  0  0.124212  0.099045  0  0.962166  0
H  H27  1  0.26919316  0.63281523  0.17336595  1  0.098195  0  0.124804  0.102335  0  0.979781  0
H  H28  1  0.48021342  0.61330815  0.14352283  1  0.138983  0  0.121258  0.104096  0  1.027493  0
H  H29  1  0.53702313  0.70409066  0.08975500  1  0.11179  0  0.11423  0.088672  0  1.039581  0
H  H30  1  0.41734248  0.58181861  0.97543856  1  0.125004  0  0.111266  0.080032  0  1.061128  0
H  H31  1  0.41250055  0.54261546  0.07864827  1  0.129585  0  0.124172  0.106625  0  0.980902  0
H  H32  1  0.70885935  0.06197598  0.28969013  1  0.094287  0  0.127667  0.099041  0  0.955694  0
H  H33  1  0.80536483  0.97534741  0.23805657  1  0.081152  0  0.130116  0.101996  0  0.948864  0
H  H34  1  0.72119815  0.91329424  0.16964973  1  0.155794  0  0.117866  0.102727  0  1.030567  0
H  H35  1  0.56262832  0.95619158  0.17557556  1  0.12784  0  0.123381  0.106559  0  1.006727  0
H  H36  1  0.43426838  0.06970557  0.24391361  1  0.115807  0  0.12999  0.109549  0  0.969732  0
H  H37  1  0.49216633  0.11742277  0.29297307  1  0.080644  0  0.121733  0.091584  0  0.981206  0
H  H38  1  0.46733675  0.86494736  0.38086639  1  0.071779  0  0.120924  0.090886  0  0.981709  0
H  H39  1  0.41788779  0.92749717  0.29432967  1  0.135131  0  0.126563  0.109093  0  1.012029  0
H  H40  1  0.55595217  0.03511186  0.40848971  1  0.070986  0  0.118323  0.091801  0  0.982359  0
H  H41  1  0.54543104  0.92693299  0.44666807  1  0.126285  0  0.120545  0.10288  0  1.023505  0
H  H42  1  0.78649714  0.83205295  0.28727953  1  0.061966  0  0.124694  0.096617  0  0.952881  0
H  H43  1  0.67777321  0.80919811  0.37625305  1  0.144941  0  0.124829  0.10759  0  1.01669  0
H  H44  1  0.57818418  0.70862472  0.73075653  1  0.075083  0  0.094551  0.099282  0  1.026619  0
H  H45  1  0.67121909  0.53252219  0.53184928  1  0.059755  0  0.096198  0.099137  0  1.020466  0
H  H46  1  0.57996892  0.68001754  0.40234269  1  0.654126  0  0.275138  0.380499  0  0.964611  0
H  H47  1  0.50017376  0.64127480  0.37458494  1  0.646882  0  0.269576  0.361807  0  0.99851  0
H  H48  1  0.78214660  0.08821855  0.48936158  1  0.619528  0  0.275665  0.325955  0  1.041403  0
H  H49  1  0.65777524  0.09621684  0.47457579  1  0.600112  0  0.309874  0.388572  0  0.899237  0
H  H50  1  0.93410901  0.78272258  0.56744617  1  0.123396  0  0.11748  0.098648  0  1.027891  0
H  H51  1  0.95944205  0.71739786  0.49857297  1  0.167864  0  0.12127  0.117806  0  1.024966  0
H  H52  1  0.25263560  0.74874881  0.54701185  1  0.063297  0  0.123711  0.092666  0  0.957496  0
H  H53  1  0.09861895  0.80146751  0.59582705  1  0.171742  0  0.12456  0.113122  0  1.01687  0
H  H54  1  0.29291116  0.65987349  0.45234418  1  0.077183  0  0.126057  0.100983  0  0.978648  0
H  H55  1  0.16900678  0.64614417  0.43138933  1  0.084592  0  0.127126  0.1021  0  0.950761  0
H  H56  1  0.04276492  0.76450293  0.36121034  1  0.080437  0  0.124548  0.099948  0  0.962211  0
H  H57  1  0.07520771  0.86715504  0.32666109  1  0.099303  0  0.125341  0.103338  0  0.978708  0
H  H58  1  0.23681116  0.88682863  0.35647428  1  0.13994  0  0.121541  0.104362  0  1.027624  0
H  H59  1  0.33074509  0.79611955  0.41020721  1  0.107969  0  0.11458  0.089244  0  1.03749  0
H  H60  1  0.97446951  0.91820138  0.52458862  1  0.154114  0  0.111123  0.080042  0  1.060833  0
H  H61  1  0.03356405  0.95742889  0.42137760  1  0.116134  0  0.123399  0.105889  0  0.982551  0
H  H62  1  0.06055731  0.43800838  0.21029738  1  0.070512  0  0.128496  0.100297  0  0.955294  0
H  H63  1  0.01882099  0.52468723  0.26185399  1  0.078719  0  0.130593  0.10235  0  0.950363  0
H  H64  1  0.80418303  0.58678887  0.33024041  1  0.142777  0  0.117213  0.101492  0  1.030581  0
H  H65  1  0.69444939  0.54386860  0.32429613  1  0.117651  0  0.123174  0.106889  0  1.005464  0
H  H66  1  0.74786001  0.43030092  0.25610633  1  0.113274  0  0.130351  0.109447  0  0.970036  0
H  H67  1  0.90251156  0.38250066  0.20709537  1  0.072766  0  0.121096  0.091768  0  0.981657  0
H  H68  1  0.71333718  0.63493142  0.11897432  1  0.069573  0  0.121366  0.091401  0  0.981812  0
H  H69  1  0.63979481  0.57245458  0.20555018  1  0.146667  0  0.126438  0.109642  0  1.012386  0
H  H70  1  0.99965603  0.46464992  0.09157215  1  0.085323  0  0.119099  0.092352  0  0.982823  0
H  H71  1  0.91922711  0.57279159  0.05322581  1  0.13628  0  0.120532  0.103619  0  1.022983  0
H  H72  1  0.90594636  0.66798292  0.21248833  1  0.047866  0  0.123917  0.095262  0  0.952248  0
H  H73  1  0.86332841  0.69068453  0.12353676  1  0.148119  0  0.123968  0.10624  0  1.018636  0
H  H74  1  0.01710867  0.79131903  0.76945082  1  0.090847  0  0.094582  0.099485  0  1.026353  0
H  H75  1  0.73559582  0.96757428  0.96834301  1  0.076398  0  0.096451  0.098701  0  1.02032  0
H  H76  1  0.33767570  0.17980546  0.90251911  1  0.655747  0  0.276296  0.380772  0  0.963565  0
H  H77  1  0.48398936  0.14110732  0.87486223  1  0.648657  0  0.270268  0.363102  0  0.996542  0
H  H78  1  0.64013926  0.58838290  0.98938359  1  0.614945  0  0.276517  0.327253  0  1.040027  0
H  H79  1  0.77135539  0.59635172  0.97452449  1  0.586611  0  0.309228  0.386958  0  0.900662  0
H  H80  1  0.71568733  0.28280931  0.06741409  1  0.118072  0  0.117542  0.098523  0  1.028052  0
H  H81  1  0.82462905  0.21747416  0.99856221  1  0.175401  0  0.120206  0.116035  0  1.025775  0
H  H82  1  0.45173301  0.24857374  0.04698228  1  0.069941  0  0.123631  0.09264  0  0.957702  0
H  H83  1  0.50411068  0.30136741  0.09582338  1  0.145062  0  0.124169  0.113491  0  1.017104  0
H  H84  1  0.59510351  0.15971537  0.95232995  1  0.107462  0  0.126434  0.101956  0  0.979136  0
H  H85  1  0.75366846  0.14616393  0.93136058  1  0.08343  0  0.127775  0.102605  0  0.951944  0
H  H86  1  0.83148633  0.26457810  0.86114125  1  0.086566  0  0.12423  0.099027  0  0.96228  0
H  H87  1  0.73081139  0.36718278  0.82663450  1  0.098229  0  0.124796  0.102304  0  0.979741  0
H  H88  1  0.51979280  0.38668986  0.85647452  1  0.138976  0  0.12126  0.104089  0  1.027508  0
H  H89  1  0.46298162  0.29590865  0.91023909  1  0.111837  0  0.114259  0.088667  0  1.039603  0
H  H90  1  0.58265343  0.41818135  0.02455957  1  0.125039  0  0.111251  0.080026  0  1.061115  0
H  H91  1  0.58749933  0.45738126  0.92135199  1  0.130054  0  0.124177  0.10656  0  0.980966  0
H  H92  1  0.29113742  0.93802398  0.71030781  1  0.094427  0  0.127675  0.099079  0  0.955646  0
H  H93  1  0.19463310  0.02465385  0.76193967  1  0.081162  0  0.130104  0.101974  0  0.948879  0
H  H94  1  0.27879546  0.08670702  0.83034751  1  0.155849  0  0.117847  0.102681  0  1.030601  0
H  H95  1  0.43736158  0.04380838  0.82442560  1  0.127903  0  0.123403  0.10656  0  1.006726  0
H  H96  1  0.56572412  0.93029244  0.75609072  1  0.115706  0  0.130046  0.109675  0  0.969595  0
H  H97  1  0.50783049  0.88257525  0.70703027  1  0.080708  0  0.121738  0.091622  0  0.981236  0
H  H98  1  0.53266574  0.13504936  0.61913434  1  0.071821  0  0.120904  0.090887  0  0.98171  0
H  H99  1  0.58211215  0.07249955  0.70567328  1  0.135137  0  0.12654  0.109071  0  1.012034  0
H  H100  1  0.44404999  0.96488356  0.59151144  1  0.070902  0  0.118287  0.091717  0  0.982396  0
H  H101  1  0.45457509  0.07306114  0.55333142  1  0.12633  0  0.120523  0.102888  0  1.023467  0
H  H102  1  0.21350510  0.16794830  0.71271571  1  0.061842  0  0.124702  0.096615  0  0.952897  0
H  H103  1  0.32223271  0.19080056  0.62374311  1  0.144858  0  0.124848  0.107626  0  1.016594  0
H  H104  1  0.42181444  0.29137524  0.26924750  1  0.075085  0  0.094536  0.099186  0  1.026646  0
H  H105  1  0.32877684  0.46747582  0.46815317  1  0.059773  0  0.096167  0.099056  0  1.020508  0
H  H106  1  0.42002965  0.31998242  0.59765864  1  0.653951  0  0.275096  0.380449  0  0.964686  0
H  H107  1  0.49982132  0.35872322  0.62541825  1  0.64693  0  0.269605  0.361849  0  0.998467  0
H  H108  1  0.21784913  0.91178206  0.51064131  1  0.620016  0  0.275674  0.325948  0  1.041393  0
H  H109  1  0.34221578  0.90378896  0.52542790  1  0.600297  0  0.309884  0.388646  0  0.899242  0
H  H110  1  0.06588875  0.21728127  0.43255158  1  0.123385  0  0.117485  0.098675  0  1.027898  0
H  H111  1  0.04055510  0.28260534  0.50142456  1  0.167853  0  0.121251  0.117756  0  1.025032  0
H  H112  1  0.74736146  0.25124855  0.45299106  1  0.063236  0  0.12373  0.092697  0  0.957493  0
H  H113  1  0.90137905  0.19853180  0.40417566  1  0.17179  0  0.124558  0.113144  0  1.016818  0
H  H114  1  0.70708508  0.34012388  0.54766054  1  0.077609  0  0.126038  0.100995  0  0.978673  0
H  H115  1  0.83099185  0.35385774  0.56861201  1  0.084585  0  0.127121  0.102064  0  0.950769  0
H  H116  1  0.95724084  0.23549833  0.63878734  1  0.080403  0  0.124554  0.100009  0  0.962298  0
H  H117  1  0.92480120  0.13284492  0.67333729  1  0.099081  0  0.125308  0.103257  0  0.978773  0
H  H118  1  0.76319608  0.11316938  0.64353045  1  0.139836  0  0.12153  0.104332  0  1.027628  0
H  H119  1  0.66925637  0.20387782  0.58979848  1  0.108082  0  0.114567  0.089224  0  1.037437  0
H  H120  1  0.02553279  0.08179988  0.47540932  1  0.154095  0  0.111119  0.080033  0  1.060827  0
H  H121  1  0.96644315  0.04257107  0.57862227  1  0.116177  0  0.123421  0.105899  0  0.982533  0
H  H122  1  0.93944009  0.56199418  0.78969918  1  0.070487  0  0.128521  0.1003  0  0.95529  0
H  H123  1  0.98117868  0.47531403  0.73814293  1  0.078683  0  0.130583  0.102301  0  0.950342  0
H  H124  1  0.19581816  0.41321304  0.66975870  1  0.142814  0  0.117213  0.101468  0  1.030493  0
H  H125  1  0.30554956  0.45613460  0.67570478  1  0.117602  0  0.123178  0.106887  0  1.005463  0
H  H126  1  0.25213384  0.56970617  0.74389256  1  0.113317  0  0.130345  0.10952  0  0.970044  0
H  H127  1  0.09748161  0.61750384  0.79290274  1  0.072731  0  0.121131  0.091879  0  0.981515  0
H  H128  1  0.28665468  0.36507438  0.88102863  1  0.069506  0  0.121364  0.091335  0  0.981707  0
H  H129  1  0.36019938  0.42755186  0.79445261  1  0.146823  0  0.126438  0.109495  0  1.012406  0
H  H130  1  0.00033628  0.53535653  0.90842346  1  0.084846  0  0.119111  0.092343  0  0.982613  0
H  H131  1  0.08076364  0.42721680  0.94677508  1  0.136466  0  0.120537  0.103596  0  1.023142  0
H  H132  1  0.09405344  0.33202028  0.78751131  1  0.047891  0  0.123914  0.095217  0  0.952251  0
H  H133  1  0.13666703  0.30931867  0.87646171  1  0.148072  0  0.123932  0.106175  0  1.018677  0
H  H134  1  0.98289930  0.20868937  0.23054445  1  0.090763  0  0.094577  0.099431  0  1.026339  0
H  H135  1  0.26440211  0.03242503  0.03165646  1  0.076475  0  0.096447  0.098741  0  1.020314  0
C  C136  1  0.26754300  0.73810568  0.98757075  1  0.457453  0  -0.00343  -0.046364  0  3.81268  0
C  C137  1  0.48152103  0.71935567  0.95896684  1  0.49868  0  0.012887  -0.025792  0  3.837084  0
C  C138  1  0.33760896  0.80855001  0.05425911  1  0.547561  0  0.022275  -0.005993  0  3.84058  0
C  C139  1  0.25969053  0.68954480  0.12564593  1  0.546694  0  0.018286  -0.014211  0  3.859949  0
C  C140  1  0.47169306  0.67062804  0.09633714  1  0.483097  0  0.007951  -0.033821  0  3.852784  0
C  C141  1  0.40297942  0.60000341  0.03151772  1  0.479793  0  0.014852  -0.008128  0  3.803021  0
C  C142  1  0.71433290  0.00213448  0.27417309  1  0.530671  0  0.023715  -0.005858  0  3.848564  0
C  C143  1  0.63160026  0.94031556  0.20725609  1  0.476756  0  0.005012  -0.034773  0  3.834186  0
C  C144  1  0.49974692  0.05707927  0.27738711  1  0.515733  0  0.014924  -0.014021  0  3.846917  0
C  C145  1  0.48470213  0.91289828  0.32714062  1  0.540126  0  0.015112  -0.016184  0  3.857419  0
C  C146  1  0.56267803  0.97488714  0.39306182  1  0.527517  0  0.012872  -0.01589  0  3.864007  0
C  C147  1  0.69507289  0.85785735  0.32337419  1  0.534507  0  0.014348  -0.013675  0  3.843562  0
C  C148  1  0.49639970  0.57257802  0.79393244  1  1.564725  0  0.187533  0.567992  0  4.252423  0
C  C149  1  0.67855460  0.78494349  0.58611916  1  1.556926  0  0.189151  0.571579  0  4.231314  0
C  C150  1  0.75039202  0.67279899  0.46763051  1  1.604779  0  0.188656  0.580594  0  4.264733  0
C  C151  1  0.57238622  0.45515279  0.67329185  1  1.603396  0  0.200734  0.582738  0  4.233261  0
C  C152  1  0.56824286  0.59288040  0.71041905  1  -0.005283  0  -0.02444  -0.0567  0  3.957099  0
C  C153  1  0.59992357  0.66990451  0.68659389  1  -0.012491  0  -0.090823  -0.125654  0  3.984273  0
C  C154  1  0.65541707  0.69858250  0.60857913  1  -0.005696  0  -0.021271  -0.04639  0  3.971732  0
C  C155  1  0.68323491  0.64793187  0.55211457  1  -0.043372  0  -0.019472  -0.043651  0  3.94646  0
C  C156  1  0.65186026  0.57081630  0.57597193  1  -0.007816  0  -0.092088  -0.137729  0  3.976306  0
C  C157  1  0.59574093  0.54193588  0.65417743  1  -0.063989  0  -0.011262  -0.029421  0  3.933339  0
C  C158  1  0.99326543  0.76183972  0.51245912  1  0.457124  0  -0.002268  -0.047868  0  3.809674  0
C  C159  1  0.15979433  0.78075921  0.54104467  1  0.477071  0  0.012007  -0.027759  0  3.838447  0
C  C160  1  0.20049006  0.69151938  0.44575105  1  0.555901  0  0.023938  -0.004977  0  3.836969  0
C  C161  1  0.07483998  0.81042184  0.37438212  1  0.559001  0  0.017822  -0.017612  0  3.85846  0
C  C162  1  0.23850817  0.82951692  0.40366579  1  0.498462  0  0.008017  -0.034364  0  3.851561  0
C  C163  1  0.03433032  0.90002567  0.46850317  1  0.467806  0  0.015706  -0.008538  0  3.801855  0
C  C164  1  0.99066346  0.49783754  0.22579683  1  0.551491  0  0.02296  -0.008251  0  3.853449  0
C  C165  1  0.77922978  0.55972345  0.29263684  1  0.481743  0  0.005882  -0.03307  0  3.831497  0
C  C166  1  0.83423320  0.44287291  0.22260445  1  0.533084  0  0.015174  -0.014405  0  3.844787  0
C  C167  1  0.72485050  0.58702315  0.17273230  1  0.523596  0  0.014266  -0.018213  0  3.858288  0
C  C168  1  0.93077064  0.52494625  0.10689102  1  0.516485  0  0.013466  -0.018041  0  3.862772  0
C  C169  1  0.87640059  0.64210173  0.17645963  1  0.531439  0  0.017859  -0.007459  0  3.840091  0
C  C170  1  0.86277629  0.92759831  0.70623746  1  1.582028  0  0.187246  0.568961  0  4.249068  0
C  C171  1  0.04926891  0.71501069  0.91404160  1  1.562867  0  0.189195  0.572041  0  4.232864  0
C  C172  1  0.89079741  0.82723095  0.03252996  1  1.597795  0  0.188128  0.576501  0  4.264444  0
C  C173  1  0.70069944  0.04487016  0.82694297  1  1.594566  0  0.204569  0.588686  0  4.233458  0
C  C174  1  0.87136702  0.90718558  0.78976347  1  -0.059852  0  -0.021697  -0.056145  0  3.958302  0
C  C175  1  0.95612555  0.83009341  0.81361777  1  -0.076806  0  -0.093451  -0.128889  0  3.987472  0
C  C176  1  0.96231222  0.80140554  0.89161584  1  0.042255  0  -0.02127  -0.045835  0  3.971879  0
C  C177  1  0.88318290  0.85211577  0.94805530  1  -0.027991  0  -0.016769  -0.040555  0  3.943343  0
C  C178  1  0.79858724  0.92926698  0.92420135  1  -0.016528  0  -0.094442  -0.139672  0  3.976725  0
C  C179  1  0.79175175  0.95814426  0.84600272  1  -0.025381  0  -0.012813  -0.029071  0  3.935659  0
C  C180  1  0.73245327  0.26189363  0.01243182  1  0.457479  0  -0.003393  -0.046306  0  3.812516  0
C  C181  1  0.51847231  0.28064623  0.04103029  1  0.498612  0  0.012875  -0.025827  0  3.837179  0
C  C182  1  0.66239409  0.19144736  0.94573969  1  0.547036  0  0.022329  -0.005843  0  3.840475  0
C  C183  1  0.74031263  0.31045452  0.87435505  1  0.546877  0  0.018233  -0.014216  0  3.859947  0
C  C184  1  0.52831223  0.32936998  0.90365770  1  0.482987  0  0.007843  -0.033928  0  3.852834  0
C  C185  1  0.59701477  0.39999655  0.96848136  1  0.479341  0  0.01485  -0.007956  0  3.802894  0
C  C186  1  0.28566445  0.99786613  0.72582400  1  0.529813  0  0.023726  -0.005859  0  3.848426  0
C  C187  1  0.36839443  0.05968115  0.79274428  1  0.476811  0  0.004966  -0.03473  0  3.834347  0
C  C188  1  0.50024986  0.94291875  0.72261460  1  0.5162  0  0.014905  -0.014177  0  3.846851  0
C  C189  1  0.51529698  0.08710038  0.67286147  1  0.539946  0  0.015139  -0.016289  0  3.857269  0
C  C190  1  0.43732359  0.02510958  0.60693858  1  0.527615  0  0.012917  -0.015843  0  3.863904  0
C  C191  1  0.30492994  0.14214261  0.67662398  1  0.534736  0  0.014334  -0.013744  0  3.843603  0
C  C192  1  0.50359809  0.42742389  0.20606964  1  1.565256  0  0.187541  0.568041  0  4.252287  0
C  C193  1  0.32144208  0.21505712  0.41388732  1  1.556227  0  0.189128  0.571589  0  4.231121  0
C  C194  1  0.24962098  0.32719319  0.53236954  1  1.60459  0  0.188679  0.580783  0  4.26466  0
C  C195  1  0.42761943  0.54484263  0.32671013  1  1.60349  0  0.200754  0.582827  0  4.23296  0
C  C196  1  0.43176327  0.40712021  0.28958361  1  -0.005357  0  -0.024521  -0.056944  0  3.957505  0
C  C197  1  0.40008028  0.33009934  0.31340517  1  -0.012412  0  -0.090695  -0.12528  0  3.984081  0
C  C198  1  0.34458816  0.30141811  0.39142211  1  -0.005738  0  -0.021386  -0.046648  0  3.97172  0
C  C199  1  0.31676826  0.35206939  0.44788371  1  -0.043518  0  -0.019494  -0.043773  0  3.946672  0
C  C200  1  0.34814200  0.42918107  0.42403032  1  -0.007847  0  -0.092086  -0.1376  0  3.976344  0
C  C201  1  0.40424884  0.45806862  0.34582418  1  -0.064167  0  -0.011262  -0.029333  0  3.93366  0
C  C202  1  0.00673261  0.23816348  0.48753929  1  0.457168  0  -0.002322  -0.048031  0  3.80971  0
C  C203  1  0.84020332  0.21923880  0.45895738  1  0.47724  0  0.011932  -0.027943  0  3.838345  0
C  C204  1  0.79950940  0.30848058  0.55425116  1  0.555475  0  0.023979  -0.004925  0  3.836897  0
C  C205  1  0.92516357  0.18958072  0.62561845  1  0.559375  0  0.017793  -0.017735  0  3.858727  0
C  C206  1  0.76149683  0.17047786  0.59633380  1  0.498513  0  0.008045  -0.034269  0  3.851385  0
C  C207  1  0.96567343  0.09997429  0.53149749  1  0.467703  0  0.01568  -0.008587  0  3.801674  0
C  C208  1  0.00933280  0.50216371  0.77420251  1  0.551477  0  0.02299  -0.008125  0  3.853435  0
C  C209  1  0.22076977  0.44028040  0.70736376  1  0.481643  0  0.005908  -0.032891  0  3.831434  0
C  C210  1  0.16576171  0.55713160  0.77739380  1  0.533306  0  0.015165  -0.014586  0  3.844839  0
C  C211  1  0.27514222  0.41298265  0.82726992  1  0.523735  0  0.014326  -0.017809  0  3.857876  0
C  C212  1  0.06922230  0.47506085  0.89310591  1  0.516662  0  0.013418  -0.018012  0  3.862551  0
C  C213  1  0.12360235  0.35790212  0.82353747  1  0.531839  0  0.017903  -0.007252  0  3.840004  0
C  C214  1  0.13722312  0.07240165  0.29376312  1  1.581976  0  0.187144  0.568728  0  4.249599  0
C  C215  1  0.95073744  0.28500160  0.08595302  1  1.563411  0  0.189219  0.572101  0  4.232927  0
C  C216  1  0.10921022  0.17277420  0.96746789  1  1.598529  0  0.188125  0.576511  0  4.264589  0
C  C217  1  0.29929014  0.95512655  0.17306184  1  1.594189  0  0.204641  0.588873  0  4.233412  0
C  C218  1  0.12863616  0.09281373  0.21023804  1  -0.059763  0  -0.021722  -0.05606  0  3.958275  0
C  C219  1  0.04388780  0.16991044  0.18637964  1  -0.076316  0  -0.093309  -0.128585  0  3.987344  0
C  C220  1  0.03769988  0.19860350  0.10838265  1  0.041515  0  -0.021494  -0.046256  0  3.97224  0
C  C221  1  0.11681604  0.14788938  0.05194184  1  -0.02783  0  -0.016767  -0.040458  0  3.943452  0
C  C222  1  0.20140938  0.07073753  0.07579650  1  -0.016638  0  -0.094465  -0.139776  0  3.976894  0
C  C223  1  0.20824732  0.04185635  0.15399397  1  -0.02537  0  -0.012832  -0.029197  0  3.935711  0
N  N224  1  0.34964843  0.73192486  0.11642952  1  -1.023465  0  -0.345841  -0.144058  0  3.475511  0
N  N225  1  0.35781887  0.78302673  0.97767644  1  -0.956368  0  -0.36503  -0.127299  0  3.500829  0
N  N226  1  0.27863644  0.66094076  0.05156120  1  -0.957718  0  -0.355442  -0.137272  0  3.497581  0
N  N227  1  0.49355010  0.64285251  0.02205082  1  -1.025109  0  -0.329079  -0.147645  0  3.393622  0
N  N228  1  0.62535119  0.02295889  0.22713365  1  -0.926915  0  -0.366086  -0.138458  0  3.494997  0
N  N229  1  0.60685945  0.87677059  0.27873251  1  -1.030387  0  -0.349388  -0.140341  0  3.486602  0
N  N230  1  0.68839186  0.93820421  0.34629890  1  -0.968727  0  -0.354209  -0.14679  0  3.464885  0
N  N231  1  0.47511883  0.99348903  0.34855242  1  -1.026566  0  -0.354336  -0.153021  0  3.516865  0
N  N232  1  0.19797432  0.76815010  0.38357521  1  -0.999518  0  -0.346487  -0.144225  0  3.474903  0
N  N233  1  0.11859007  0.71698693  0.52235862  1  -0.961633  0  -0.367338  -0.12538  0  3.498165  0
N  N234  1  0.99108407  0.83900185  0.44847800  1  -0.974876  0  -0.356755  -0.135282  0  3.496034  0
N  N235  1  0.15829582  0.85727456  0.47796867  1  -1.023067  0  -0.328332  -0.145946  0  3.392045  0
N  N236  1  0.87548500  0.47704788  0.27283188  1  -0.932262  0  -0.367007  -0.139147  0  3.496333  0
N  N237  1  0.76245992  0.62321553  0.22111774  1  -1.007517  0  -0.35046  -0.14272  0  3.483926  0
N  N238  1  0.97298333  0.56172469  0.15362002  1  -0.969744  0  -0.354722  -0.146046  0  3.467865  0
N  N239  1  0.81724507  0.50639999  0.15140380  1  -1.018241  0  -0.355418  -0.152109  0  3.511537  0
N  N240  1  0.65035351  0.26807511  0.88356722  1  -1.023078  0  -0.345841  -0.144085  0  3.475489  0
N  N241  1  0.64217731  0.21697258  0.02232235  1  -0.956345  0  -0.365058  -0.127423  0  3.500975  0
N  N242  1  0.72136501  0.33905855  0.94844071  1  -0.95765  0  -0.355394  -0.137267  0  3.49748  0
N  N243  1  0.50644613  0.35714874  0.97794690  1  -1.02501  0  -0.329007  -0.147503  0  3.393649  0
N  N244  1  0.37464500  0.97703848  0.77286891  1  -0.926898  0  -0.366091  -0.138506  0  3.495069  0
N  N245  1  0.39313990  0.12322742  0.72126807  1  -1.030318  0  -0.349387  -0.140358  0  3.486571  0
N  N246  1  0.31160841  0.06179575  0.65370094  1  -0.968211  0  -0.354195  -0.14672  0  3.464847  0
N  N247  1  0.52488082  0.00650834  0.65144934  1  -1.026992  0  -0.354373  -0.152877  0  3.516566  0
N  N248  1  0.80202998  0.23184856  0.61642621  1  -0.999442  0  -0.346455  -0.144215  0  3.474805  0
N  N249  1  0.88140565  0.28301563  0.47764050  1  -0.961709  0  -0.367321  -0.125251  0  3.497906  0
N  N250  1  0.00892093  0.16100136  0.55152205  1  -0.975101  0  -0.35671  -0.135024  0  3.495666  0
N  N251  1  0.84170702  0.14272345  0.52203273  1  -1.023072  0  -0.328242  -0.14583  0  3.392024  0
N  N252  1  0.12450792  0.52295727  0.72716720  1  -0.932291  0  -0.367055  -0.139245  0  3.496612  0
N  N253  1  0.23753656  0.37679156  0.77888271  1  -1.007656  0  -0.350535  -0.143025  0  3.484348  0
N  N254  1  0.02701320  0.43827592  0.84637943  1  -0.969735  0  -0.354715  -0.146096  0  3.467818  0
N  N255  1  0.18274707  0.49360711  0.84859603  1  -1.018571  0  -0.355415  -0.152202  0  3.511313  0
O  O256  1  0.58501193  0.80339024  0.11901454  1  -1.272647  0  -0.597082  -0.751628  0  2.134808  0
O  O257  1  0.26944675  0.44131147  0.02962129  1  -1.201909  0  -0.583054  -0.726419  0  2.137594  0
O  O258  1  0.42702762  0.52634989  0.80606028  1  -1.163242  0  -0.339694  -0.558222  0  2.321482  0
O  O259  1  0.50453192  0.60390121  0.84601433  1  -1.198292  0  -0.348022  -0.590653  0  2.167625  0
O  O260  1  0.73585838  0.79810791  0.62563622  1  -1.144265  0  -0.335736  -0.531338  0  2.241843  0
O  O261  1  0.63608063  0.84048510  0.53097659  1  -1.179435  0  -0.349428  -0.594356  0  2.265007  0
O  O262  1  0.84058527  0.69874465  0.45431510  1  -1.199144  0  -0.358481  -0.603827  0  2.160791  0
O  O263  1  0.71177703  0.66415688  0.41461876  1  -1.213173  0  -0.340759  -0.596116  0  2.234361  0
O  O264  1  0.50363075  0.44826892  0.63864776  1  -1.197198  0  -0.332877  -0.575042  0  2.192851  0
O  O265  1  0.63149614  0.39448390  0.71814499  1  -1.152929  0  -0.339678  -0.548555  0  2.320503  0
O  O266  1  0.50749751  0.69678281  0.38071168  1  -1.268261  0  -0.595479  -0.751312  0  2.136041  0
O  O267  1  0.74037894  0.05853772  0.47039800  1  -1.221028  0  -0.582475  -0.726436  0  2.138384  0
O  O268  1  0.75917890  0.97356336  0.69420250  1  -1.168053  0  -0.339292  -0.558744  0  2.320317  0
O  O269  1  0.95440614  0.89652103  0.65410972  1  -1.207891  0  -0.347706  -0.589793  0  2.164238  0
O  O270  1  0.15922939  0.70183860  0.87447861  1  -1.140696  0  -0.335385  -0.532185  0  2.245253  0
O  O271  1  0.00717883  0.65952476  0.96923241  1  -1.184062  0  -0.350415  -0.594431  0  2.263479  0
O  O272  1  0.99364843  0.80127605  0.04582516  1  -1.194722  0  -0.35791  -0.601907  0  2.159153  0
O  O273  1  0.79056472  0.83590778  0.08554955  1  -1.211004  0  -0.341314  -0.594603  0  2.234283  0
O  O274  1  0.59049684  0.05166652  0.86172061  1  -1.196991  0  -0.334188  -0.577688  0  2.193319  0
O  O275  1  0.74386302  0.10551781  0.78190096  1  -1.157505  0  -0.34079  -0.551106  0  2.322051  0
O  O276  1  0.41498744  0.19660583  0.88098980  1  -1.272596  0  -0.59711  -0.75168  0  2.134712  0
O  O277  1  0.73055027  0.55868589  0.97037946  1  -1.201648  0  -0.583003  -0.726343  0  2.137513  0
O  O278  1  0.57296959  0.47365137  0.19394318  1  -1.163584  0  -0.339691  -0.558235  0  2.321497  0
O  O279  1  0.49547433  0.39609486  0.15398788  1  -1.19844  0  -0.348  -0.590646  0  2.167434  0
O  O280  1  0.26415165  0.20188556  0.37437124  1  -1.144087  0  -0.335756  -0.53131  0  2.242044  0
O  O281  1  0.36394005  0.15950513  0.46902057  1  -1.1788  0  -0.349376  -0.594329  0  2.264767  0
O  O282  1  0.15942375  0.30124494  0.54569200  1  -1.198751  0  -0.358482  -0.603883  0  2.160576  0
O  O283  1  0.28821501  0.33584827  0.58537997  1  -1.213243  0  -0.340755  -0.596184  0  2.234577  0
O  O284  1  0.49636727  0.55172844  0.36135927  1  -1.197428  0  -0.332832  -0.574998  0  2.192573  0
O  O285  1  0.36850866  0.60551152  0.28185773  1  -1.152686  0  -0.3397  -0.548672  0  2.320394  0
O  O286  1  0.49249991  0.30321585  0.61929189  1  -1.268243  0  -0.595468  -0.751296  0  2.135987  0
O  O287  1  0.25961255  0.94146483  0.52960590  1  -1.221667  0  -0.582495  -0.726488  0  2.138328  0
O  O288  1  0.24081837  0.02643530  0.30579404  1  -1.167967  0  -0.339189  -0.558626  0  2.320377  0
O  O289  1  0.04558442  0.10347504  0.34588797  1  -1.208001  0  -0.347639  -0.589664  0  2.164373  0
O  O290  1  0.84079077  0.29816720  0.12551017  1  -1.14101  0  -0.33514  -0.53192  0  2.245818  0
O  O291  1  0.99285439  0.34048947  0.03075927  1  -1.184246  0  -0.350534  -0.594597  0  2.262979  0
O  O292  1  0.00635678  0.19873494  0.95417224  1  -1.195408  0  -0.357928  -0.601932  0  2.159229  0
O  O293  1  0.20943914  0.16408959  0.91444689  1  -1.21113  0  -0.341294  -0.594578  0  2.23435  0
O  O294  1  0.40949077  0.94832631  0.13827917  1  -1.196769  0  -0.334224  -0.577769  0  2.193088  0
O  O295  1  0.25612137  0.89448085  0.21810128  1  -1.157248  0  -0.340807  -0.551149  0  2.32214  0
