# generated using pymatgen
data_AgH5C8(NO2)2
_symmetry_space_group_name_H-M   'P 1'
_cell_length_a   7.05783972
_cell_length_b   10.56316435
_cell_length_c   12.53251833
_cell_angle_alpha   99.82406298
_cell_angle_beta   102.90029738
_cell_angle_gamma   105.89495797
_symmetry_Int_Tables_number   1
_chemical_formula_structural   AgH5C8(NO2)2
_chemical_formula_sum   'Ag4 H20 C32 N8 O16'
_cell_volume   848.74360039
_cell_formula_units_Z   4
loop_
 _symmetry_equiv_pos_site_id
 _symmetry_equiv_pos_as_xyz
  1  'x, y, z'
loop_
 _atom_site_type_symbol
 _atom_site_label
 _atom_site_symmetry_multiplicity
 _atom_site_fract_x
 _atom_site_fract_y
 _atom_site_fract_z
 _atom_site_occupancy
 _atom_site_hle17_bader_spin_density
 _atom_site_hle17_ddec_charge
 _atom_site_hle17_ddec_spin_density
 _atom_site_hle17_ddec_sum_bond_order
 _atom_site_hle17_magmom
 _atom_site_hse06_10hf_bader_spin_density
 _atom_site_hse06_10hf_ddec_charge
 _atom_site_hse06_10hf_ddec_spin_density
 _atom_site_hse06_10hf_ddec_sum_bond_order
 _atom_site_hse06_10hf_magmom
 _atom_site_hse06_bader_spin_density
 _atom_site_hse06_ddec_charge
 _atom_site_hse06_ddec_spin_density
 _atom_site_hse06_ddec_sum_bond_order
 _atom_site_hse06_magmom
 _atom_site_pbe_bader_spin_density
 _atom_site_pbe_cm5_charge
 _atom_site_pbe_ddec_charge
 _atom_site_pbe_ddec_spin_density
 _atom_site_pbe_ddec_sum_bond_order
 _atom_site_pbe_magmom
Ag  Ag0  1  0.38391094  0.78514227  0.07905972  1  0  0.518542  0  1.478135  0  0  0.383913  0  1.930109  0  0  0.409774  0  1.879817  0  0  0.493796  0.366607  0  1.964806  0
Ag  Ag1  1  0.61608775  0.21485467  0.92093768  1  0  0.518523  0  1.478186  0  0  0.383887  0  1.930165  0  0  0.409732  0  1.879899  0  0  0.493802  0.366587  0  1.96486  0
Ag  Ag2  1  0.51992962  0.05640947  0.67187155  1  0  0.509451  0  1.403052  0  0  0.337618  0  1.868463  0  0  0.373552  0  1.814042  0  0  0.467389  0.31382  0  1.905234  0
Ag  Ag3  1  0.48006241  0.94359157  0.32812550  1  0  0.509448  0  1.403114  0  0  0.337644  0  1.868525  0  0  0.373581  0  1.81411  0  0  0.467402  0.313844  0  1.905303  0
H  H4  1  0.80305862  0.00403147  0.09963908  1  0  0.105102  0  0.940728  0  0  0.11372  0  1.004728  0  0  0.115963  0  1.003249  0  0  0.123884  0.111821  0  1.006135  0
H  H5  1  0.19694158  0.99596853  0.90035972  1  0  0.105167  0  0.940788  0  0  0.113792  0  1.004773  0  0  0.116031  0  1.003292  0  0  0.123914  0.111896  0  1.006176  0
H  H6  1  0.16463052  0.00652295  0.10884433  1  0  0.103394  0  0.961385  0  0  0.111289  0  1.026159  0  0  0.113413  0  1.025117  0  0  0.122408  0.109438  0  1.027467  0
H  H7  1  0.83537491  0.99347605  0.89115824  1  0  0.103412  0  0.961418  0  0  0.111314  0  1.026156  0  0  0.11344  0  1.025114  0  0  0.122401  0.109462  0  1.027464  0
H  H8  1  0.97811065  0.58699828  0.07172591  1  0  0.10875  0  0.941931  0  0  0.116385  0  1.00512  0  0  0.118707  0  1.003568  0  0  0.128223  0.114316  0  1.006831  0
H  H9  1  0.02189339  0.41300379  0.92827767  1  0  0.108713  0  0.941847  0  0  0.116375  0  1.005048  0  0  0.118696  0  1.0035  0  0  0.128218  0.114311  0  1.006755  0
H  H10  1  0.62254911  0.58647390  0.06890034  1  0  0.111087  0  0.956155  0  0  0.117671  0  1.020697  0  0  0.120422  0  1.01842  0  0  0.127613  0.115281  0  1.022998  0
H  H11  1  0.37745782  0.41352817  0.93110443  1  0  0.11106  0  0.956136  0  0  0.117639  0  1.020705  0  0  0.120394  0  1.018422  0  0  0.127601  0.115244  0  1.023017  0
H  H12  1  0.28192091  0.26508046  0.66418573  1  0  0.107074  0  0.948942  0  0  0.112879  0  1.014836  0  0  0.115999  0  1.012492  0  0  0.126128  0.110298  0  1.016975  0
H  H13  1  0.71807446  0.73492163  0.33581509  1  0  0.107084  0  0.948949  0  0  0.11287  0  1.014848  0  0  0.115987  0  1.012507  0  0  0.126127  0.11029  0  1.016984  0
H  H14  1  0.92715198  0.26667203  0.66280344  1  0  0.101458  0  0.958931  0  0  0.107183  0  1.025167  0  0  0.11002  0  1.023415  0  0  0.123313  0.104965  0  1.026596  0
H  H15  1  0.07284389  0.73333109  0.33719839  1  0  0.101437  0  0.958954  0  0  0.107155  0  1.025215  0  0  0.109995  0  1.023455  0  0  0.123312  0.104937  0  1.026644  0
H  H16  1  0.73103073  0.84614935  0.61408132  1  0  0.107509  0  0.968643  0  0  0.112718  0  1.033179  0  0  0.115997  0  1.030803  0  0  0.123752  0.110022  0  1.035347  0
H  H17  1  0.26896605  0.15385277  0.38592210  1  0  0.107469  0  0.968656  0  0  0.112702  0  1.033175  0  0  0.115963  0  1.03082  0  0  0.123751  0.11001  0  1.035342  0
H  H18  1  0.08340455  0.84379668  0.61401919  1  0  0.099363  0  0.964668  0  0  0.103912  0  1.032726  0  0  0.106374  0  1.031422  0  0  0.121382  0.102072  0  1.033644  0
H  H19  1  0.91659323  0.15620748  0.38598542  1  0  0.099354  0  0.964675  0  0  0.103906  0  1.032742  0  0  0.106362  0  1.03145  0  0  0.121375  0.102068  0  1.03366  0
H  H20  1  0.19259030  0.44445661  0.54262053  1  0  0.385998  0  0.919414  0  0  0.3523  0  1.001434  0  0  0.365987  0  0.98258  0  0  0.293678  0.342587  0  1.012263  0
H  H21  1  0.80741859  0.55554025  0.45737584  1  0  0.386068  0  0.91935  0  0  0.352382  0  1.001326  0  0  0.366067  0  0.982473  0  0  0.293727  0.342672  0  1.012174  0
H  H22  1  0.37748830  0.69932055  0.46978167  1  0  0.388132  0  0.91788  0  0  0.356049  0  0.996156  0  0  0.369005  0  0.978166  0  0  0.296669  0.346955  0  1.006029  0
H  H23  1  0.62251431  0.30068151  0.53022092  1  0  0.388033  0  0.917955  0  0  0.355949  0  0.996283  0  0  0.368901  0  0.978298  0  0  0.296618  0.346865  0  1.006088  0
C  C24  1  0.84289892  0.91090320  0.09184436  1  0  0.079  0  3.64995  0  0  0.049334  0  3.896387  0  0  0.051287  0  3.916518  0  0  0.055048  0.047537  0  3.884247  0
C  C25  1  0.15710071  0.08909582  0.90815744  1  0  0.078897  0  3.650082  0  0  0.049216  0  3.896513  0  0  0.051175  0  3.916639  0  0  0.055015  0.047405  0  3.884403  0
C  C26  1  0.04166205  0.91193017  0.09602447  1  0  0.065711  0  3.673533  0  0  0.034919  0  3.923616  0  0  0.037522  0  3.942172  0  0  0.048156  0.032581  0  3.912586  0
C  C27  1  0.95833960  0.08806982  0.90397453  1  0  0.065702  0  3.67357  0  0  0.034901  0  3.923662  0  0  0.037514  0  3.942183  0  0  0.048157  0.032574  0  3.912608  0
C  C28  1  0.94005859  0.68036068  0.07644300  1  0  0.098005  0  3.632655  0  0  0.067542  0  3.879348  0  0  0.07133  0  3.895066  0  0  0.063075  0.064066  0  3.870804  0
C  C29  1  0.05994637  0.31964040  0.92356216  1  0  0.098093  0  3.632723  0  0  0.06752  0  3.879517  0  0  0.07131  0  3.895233  0  0  0.06309  0.064043  0  3.870973  0
C  C30  1  0.74151959  0.67950922  0.07371633  1  0  0.096617  0  3.627174  0  0  0.064414  0  3.874441  0  0  0.068315  0  3.889898  0  0  0.062145  0.060856  0  3.866046  0
C  C31  1  0.25848396  0.32049183  0.92628625  1  0  0.096636  0  3.627119  0  0  0.064448  0  3.8744  0  0  0.068346  0  3.88986  0  0  0.062161  0.060891  0  3.866008  0
C  C32  1  0.29788108  0.49173796  0.21299656  1  0  0.208173  0  3.897179  0  0  0.187864  0  4.17803  0  0  0.202869  0  4.189604  0  0  0.100888  0.17804  0  4.168667  0
C  C33  1  0.70211769  0.50826515  0.78700566  1  0  0.208351  0  3.896879  0  0  0.187896  0  4.177942  0  0  0.202919  0  4.189496  0  0  0.100938  0.178087  0  4.168552  0
C  C34  1  0.21174460  0.35166149  0.23309453  1  0  0.216719  0  3.846442  0  0  0.194018  0  4.13723  0  0  0.208413  0  4.147882  0  0  0.109502  0.184229  0  4.128921  0
C  C35  1  0.78825303  0.64834761  0.76689954  1  0  0.216544  0  3.84657  0  0  0.193945  0  4.137268  0  0  0.208334  0  4.147925  0  0  0.109476  0.184154  0  4.128948  0
C  C36  1  0.23364904  0.42141338  0.35281940  1  0  0.173727  0  3.900702  0  0  0.151115  0  4.184639  0  0  0.162555  0  4.19959  0  0  0.087317  0.143463  0  4.174153  0
C  C37  1  0.76634790  0.57858550  0.64717084  1  0  0.173504  0  3.900881  0  0  0.150889  0  4.184807  0  0  0.162322  0  4.199778  0  0  0.087185  0.143242  0  4.174313  0
C  C38  1  0.31581288  0.55111177  0.33007719  1  0  0.137194  0  3.802099  0  0  0.11936  0  4.079941  0  0  0.124448  0  4.095179  0  0  0.078021  0.115774  0  4.06917  0
C  C39  1  0.68417272  0.44887903  0.66991128  1  0  0.137099  0  3.802327  0  0  0.119267  0  4.080229  0  0  0.124347  0  4.095473  0  0  0.077954  0.115678  0  4.069448  0
C  C40  1  0.28235471  0.65253794  0.80386025  1  0  0.214115  0  3.873305  0  0  0.193175  0  4.15198  0  0  0.207275  0  4.164648  0  0  0.10721  0.18354  0  4.142948  0
C  C41  1  0.71764722  0.34745079  0.19613332  1  0  0.214166  0  3.87306  0  0  0.193282  0  4.151646  0  0  0.207382  0  4.164313  0  0  0.107313  0.183652  0  4.142612  0
C  C42  1  0.38022816  0.78939638  0.78365966  1  0  0.223089  0  3.850027  0  0  0.20204  0  4.129498  0  0  0.217948  0  4.13793  0  0  0.106482  0.19135  0  4.12291  0
C  C43  1  0.61977472  0.21059755  0.21634270  1  0  0.223182  0  3.849849  0  0  0.202125  0  4.129317  0  0  0.218032  0  4.137744  0  0  0.106509  0.191434  0  4.122729  0
C  C44  1  0.34896103  0.72057106  0.66425909  1  0  0.165092  0  3.915067  0  0  0.145748  0  4.190339  0  0  0.155643  0  4.206342  0  0  0.083224  0.139011  0  4.179239  0
C  C45  1  0.65104533  0.27942382  0.33573987  1  0  0.164995  0  3.9151  0  0  0.145658  0  4.190404  0  0  0.155551  0  4.206403  0  0  0.083152  0.138924  0  4.179305  0
C  C46  1  0.25729959  0.59092175  0.68493241  1  0  0.15396  0  3.802005  0  0  0.131245  0  4.086946  0  0  0.137215  0  4.104508  0  0  0.088648  0.126816  0  4.075331  0
C  C47  1  0.74272095  0.40907813  0.31506750  1  0  0.153882  0  3.80204  0  0  0.131164  0  4.087004  0  0  0.137137  0  4.104565  0  0  0.088621  0.126733  0  4.075391  0
C  C48  1  0.15929551  0.17153331  0.65393196  1  0  0.074744  0  3.661099  0  0  0.042348  0  3.9146  0  0  0.045757  0  3.930927  0  0  0.051239  0.039365  0  3.905021  0
C  C49  1  0.84070173  0.82846985  0.34607405  1  0  0.074589  0  3.661198  0  0  0.04225  0  3.914641  0  0  0.045681  0  3.930929  0  0  0.051199  0.039268  0  3.905058  0
C  C50  1  0.96269609  0.17231188  0.65337169  1  0  0.076864  0  3.658747  0  0  0.043031  0  3.909905  0  0  0.047003  0  3.926874  0  0  0.048982  0.039799  0  3.899643  0
C  C51  1  0.03730072  0.82769021  0.34663013  1  0  0.077015  0  3.658571  0  0  0.043199  0  3.909667  0  0  0.047168  0  3.926647  0  0  0.049034  0.039967  0  3.8994  0
C  C52  1  0.85433013  0.93995215  0.62626145  1  0  0.085554  0  3.647763  0  0  0.052121  0  3.899003  0  0  0.05604  0  3.914078  0  0  0.054118  0.048842  0  3.890417  0
C  C53  1  0.14566622  0.06005200  0.37374218  1  0  0.085647  0  3.647641  0  0  0.052221  0  3.898921  0  0  0.056159  0  3.913998  0  0  0.054226  0.048941  0  3.890339  0
C  C54  1  0.05110496  0.93922963  0.62655323  1  0  0.083273  0  3.64483  0  0  0.052115  0  3.894464  0  0  0.05546  0  3.911968  0  0  0.053422  0.048911  0  3.884558  0
C  C55  1  0.94888892  0.06077250  0.37344980  1  0  0.083357  0  3.644635  0  0  0.052136  0  3.894362  0  0  0.055483  0  3.911855  0  0  0.053386  0.048929  0  3.88446  0
N  N56  1  0.69368426  0.79482304  0.08271512  1  0  -0.242643  0  3.327476  0  0  -0.156408  0  3.597743  0  0  -0.171229  0  3.614346  0  0  -0.329509  -0.147119  0  3.587593  0
N  N57  1  0.30631687  0.20517594  0.91728447  1  0  -0.242593  0  3.327463  0  0  -0.156346  0  3.59772  0  0  -0.171164  0  3.614318  0  0  -0.329489  -0.147055  0  3.587572  0
N  N58  1  0.09050221  0.79660010  0.08927580  1  0  -0.257047  0  3.369386  0  0  -0.170728  0  3.644257  0  0  -0.1856  0  3.659618  0  0  -0.336676  -0.161406  0  3.635099  0
N  N59  1  0.90950196  0.20340500  0.91072580  1  0  -0.257108  0  3.369552  0  0  -0.170732  0  3.644399  0  0  -0.185601  0  3.65976  0  0  -0.336706  -0.161409  0  3.635244  0
N  N60  1  0.20507612  0.05501799  0.64225304  1  0  -0.253923  0  3.336836  0  0  -0.166886  0  3.613254  0  0  -0.181893  0  3.628861  0  0  -0.332833  -0.157034  0  3.603121  0
N  N61  1  0.79491778  0.94498413  0.35774919  1  0  -0.253967  0  3.33692  0  0  -0.166913  0  3.613324  0  0  -0.181923  0  3.628933  0  0  -0.332832  -0.157061  0  3.603191  0
N  N62  1  0.81017625  0.05668243  0.64148830  1  0  -0.252137  0  3.327982  0  0  -0.163232  0  3.606024  0  0  -0.178065  0  3.6201  0  0  -0.330414  -0.153743  0  3.597238  0
N  N63  1  0.18981864  0.94332174  0.35851593  1  0  -0.252223  0  3.327944  0  0  -0.163384  0  3.606078  0  0  -0.17822  0  3.620154  0  0  -0.330499  -0.153893  0  3.597291  0
O  O64  1  0.23964266  0.60989985  0.88483483  1  0  -0.45468  0  2.068208  0  0  -0.407173  0  2.307595  0  0  -0.428785  0  2.30556  0  0  -0.290302  -0.391186  0  2.308238  0
O  O65  1  0.76035527  0.39008381  0.11515754  1  0  -0.45473  0  2.068285  0  0  -0.407215  0  2.30762  0  0  -0.428825  0  2.305582  0  0  -0.290339  -0.391228  0  2.308264  0
O  O66  1  0.45375954  0.90932545  0.83965429  1  0  -0.484432  0  2.058779  0  0  -0.440609  0  2.312612  0  0  -0.460136  0  2.30438  0  0  -0.291329  -0.425889  0  2.31712  0
O  O67  1  0.54622613  0.09066358  0.16035311  1  0  -0.484552  0  2.058743  0  0  -0.440715  0  2.31256  0  0  -0.460257  0  2.304353  0  0  -0.291387  -0.425994  0  2.317074  0
O  O68  1  0.38913051  0.76750193  0.58194135  1  0  -0.51443  0  2.149453  0  0  -0.454246  0  2.385414  0  0  -0.477964  0  2.379424  0  0  -0.307949  -0.437204  0  2.388097  0
O  O69  1  0.61087904  0.23250205  0.41805604  1  0  -0.514295  0  2.149581  0  0  -0.454117  0  2.385523  0  0  -0.477838  0  2.379563  0  0  -0.307856  -0.437081  0  2.388187  0
O  O70  1  0.17792167  0.46490118  0.62675309  1  0  -0.444853  0  2.230654  0  0  -0.391934  0  2.457653  0  0  -0.413195  0  2.449409  0  0  -0.312277  -0.376786  0  2.46127  0
O  O71  1  0.82208949  0.53509163  0.37324544  1  0  -0.444782  0  2.230877  0  0  -0.391931  0  2.457938  0  0  -0.413189  0  2.449693  0  0  -0.312287  -0.376784  0  2.461573  0
O  O72  1  0.33630982  0.53790759  0.13253475  1  0  -0.478874  0  2.076375  0  0  -0.43457  0  2.320722  0  0  -0.455469  0  2.316952  0  0  -0.292853  -0.418227  0  2.321908  0
O  O73  1  0.66369362  0.46210459  0.86746448  1  0  -0.478939  0  2.076564  0  0  -0.434606  0  2.321012  0  0  -0.455507  0  2.317238  0  0  -0.292909  -0.418267  0  2.322191  0
O  O74  1  0.15076920  0.23271371  0.17775717  1  0  -0.444199  0  2.016135  0  0  -0.408726  0  2.234538  0  0  -0.427096  0  2.236747  0  0  -0.287739  -0.394023  0  2.232091  0
O  O75  1  0.84923188  0.76729014  0.82222710  1  0  -0.444052  0  2.016569  0  0  -0.408594  0  2.234937  0  0  -0.426967  0  2.237152  0  0  -0.287655  -0.393891  0  2.232486  0
O  O76  1  0.19237976  0.37686086  0.43560224  1  0  -0.502875  0  2.136137  0  0  -0.451637  0  2.36248  0  0  -0.474268  0  2.359038  0  0  -0.309426  -0.43525  0  2.363391  0
O  O77  1  0.80762308  0.62312688  0.56439291  1  0  -0.502731  0  2.136361  0  0  -0.451493  0  2.362717  0  0  -0.474125  0  2.359289  0  0  -0.309361  -0.435107  0  2.363627  0
O  O78  1  0.38479791  0.67940685  0.38563527  1  0  -0.467596  0  2.269579  0  0  -0.409868  0  2.513139  0  0  -0.430584  0  2.499307  0  0  -0.324418  -0.3945  0  2.51995  0
O  O79  1  0.61519116  0.32059736  0.61436898  1  0  -0.467459  0  2.270101  0  0  -0.409693  0  2.513657  0  0  -0.430402  0  2.499843  0  0  -0.324333  -0.394334  0  2.520414  0
