# generated using pymatgen
data_SrPH9C2O9
_symmetry_space_group_name_H-M   'P 1'
_cell_length_a   6.98785937
_cell_length_b   11.01840648
_cell_length_c   13.29298844
_cell_angle_alpha   110.04691598
_cell_angle_beta   89.99985847
_cell_angle_gamma   90.00007568
_symmetry_Int_Tables_number   1
_chemical_formula_structural   SrPH9C2O9
_chemical_formula_sum   'Sr4 P4 H36 C8 O36'
_cell_volume   961.48340125
_cell_formula_units_Z   4
loop_
 _symmetry_equiv_pos_site_id
 _symmetry_equiv_pos_as_xyz
  1  'x, y, z'
loop_
 _atom_site_type_symbol
 _atom_site_label
 _atom_site_symmetry_multiplicity
 _atom_site_fract_x
 _atom_site_fract_y
 _atom_site_fract_z
 _atom_site_occupancy
 _atom_site_hle17_bader_spin_density
 _atom_site_hle17_ddec_charge
 _atom_site_hle17_ddec_spin_density
 _atom_site_hle17_ddec_sum_bond_order
 _atom_site_hle17_magmom
 _atom_site_hse06_10hf_bader_spin_density
 _atom_site_hse06_10hf_ddec_charge
 _atom_site_hse06_10hf_ddec_spin_density
 _atom_site_hse06_10hf_ddec_sum_bond_order
 _atom_site_hse06_10hf_magmom
 _atom_site_hse06_bader_spin_density
 _atom_site_hse06_ddec_charge
 _atom_site_hse06_ddec_spin_density
 _atom_site_hse06_ddec_sum_bond_order
 _atom_site_hse06_magmom
 _atom_site_pbe_bader_spin_density
 _atom_site_pbe_cm5_charge
 _atom_site_pbe_ddec_charge
 _atom_site_pbe_ddec_spin_density
 _atom_site_pbe_ddec_sum_bond_order
 _atom_site_pbe_magmom
Sr  Sr0  1  0.93644281  0.84841544  0.34786397  1  0  1.638539  0  1.083877  0  0  1.498554  0  1.451299  0  0  1.532956  0  1.407038  0  0  0.961067  1.473197  0  1.482908  0
Sr  Sr1  1  0.43644390  0.15158219  0.15212890  1  0  1.63858  0  1.083873  0  0  1.498536  0  1.451368  0  0  1.532934  0  1.407106  0  0  0.961105  1.473191  0  1.482977  0
Sr  Sr2  1  0.06356025  0.15158752  0.65213692  1  0  1.638505  0  1.083936  0  0  1.49858  0  1.451263  0  0  1.532981  0  1.407005  0  0  0.961063  1.473222  0  1.48287  0
Sr  Sr3  1  0.56356059  0.84841600  0.84786903  1  0  1.638537  0  1.083914  0  0  1.498551  0  1.451313  0  0  1.532953  0  1.407048  0  0  0.961069  1.473202  0  1.482919  0
P  P4  1  0.78845816  0.63231599  0.59878453  1  0  1.447108  0  4.839074  0  0  1.279622  0  5.359514  0  0  1.330343  0  5.319109  0  0  0.361001  1.244308  0  5.386851  0
P  P5  1  0.28844850  0.36768763  0.90122041  1  0  1.447298  0  4.839124  0  0  1.279794  0  5.359568  0  0  1.330522  0  5.319154  0  0  0.361045  1.244477  0  5.386912  0
P  P6  1  0.21156208  0.36769295  0.40121292  1  0  1.447064  0  4.839283  0  0  1.279556  0  5.359724  0  0  1.330277  0  5.319322  0  0  0.360959  1.244247  0  5.387062  0
P  P7  1  0.71155456  0.63231410  0.09878763  1  0  1.447211  0  4.839393  0  0  1.279735  0  5.359872  0  0  1.33046  0  5.319462  0  0  0.360953  1.244422  0  5.387212  0
H  H8  1  0.51948618  0.73927065  0.55157630  1  0  0.107721  0  0.940381  0  0  0.109636  0  1.007981  0  0  0.113367  0  1.005033  0  0  0.124755  0.106896  0  1.010347  0
H  H9  1  0.01949322  0.26072065  0.94841618  1  0  0.107552  0  0.940489  0  0  0.109481  0  1.0081  0  0  0.113212  0  1.005151  0  0  0.124737  0.106746  0  1.01046  0
H  H10  1  0.48051116  0.26073534  0.44842175  1  0  0.107628  0  0.940375  0  0  0.109518  0  1.008014  0  0  0.113248  0  1.005067  0  0  0.124695  0.10678  0  1.010377  0
H  H11  1  0.98051699  0.73927143  0.05158891  1  0  0.107669  0  0.940356  0  0  0.109658  0  1.007914  0  0  0.113388  0  1.004964  0  0  0.124768  0.10692  0  1.01028  0
H  H12  1  0.69292296  0.62149468  0.39102003  1  0  0.396671  0  0.814096  0  0  0.38328  0  0.864277  0  0  0.391813  0  0.854803  0  0  0.342916  0.377014  0  0.871468  0
H  H13  1  0.19292476  0.37850287  0.10897312  1  0  0.396591  0  0.814281  0  0  0.383208  0  0.864442  0  0  0.39174  0  0.854972  0  0  0.342885  0.376943  0  0.87163  0
H  H14  1  0.30707581  0.37850554  0.60897551  1  0  0.396626  0  0.814186  0  0  0.383245  0  0.864344  0  0  0.391774  0  0.854879  0  0  0.342916  0.376979  0  0.871532  0
H  H15  1  0.80707973  0.62149707  0.89103060  1  0  0.396602  0  0.814238  0  0  0.383216  0  0.8644  0  0  0.391746  0  0.854932  0  0  0.342897  0.376951  0  0.871585  0
H  H16  1  0.84345508  0.44534432  0.46778749  1  0  0.430223  0  0.8821  0  0  0.393325  0  0.955022  0  0  0.405369  0  0.937723  0  0  0.305661  0.384952  0  0.967021  0
H  H17  1  0.34345908  0.55465015  0.03221131  1  0  0.4302  0  0.882128  0  0  0.393279  0  0.955095  0  0  0.405325  0  0.937793  0  0  0.305623  0.384903  0  0.967098  0
H  H18  1  0.15652651  0.55465491  0.53220850  1  0  0.430209  0  0.882096  0  0  0.393235  0  0.955147  0  0  0.405281  0  0.937846  0  0  0.305627  0.38486  0  0.967149  0
H  H19  1  0.65653683  0.44534128  0.96778455  1  0  0.430259  0  0.882031  0  0  0.393323  0  0.955008  0  0  0.40537  0  0.937706  0  0  0.305663  0.384947  0  0.967012  0
H  H20  1  0.70510332  0.09572716  0.46394013  1  0  0.424424  0  0.874026  0  0  0.397533  0  0.931902  0  0  0.407379  0  0.917288  0  0  0.302228  0.390562  0  0.942242  0
H  H21  1  0.20510378  0.90427687  0.03606326  1  0  0.424455  0  0.874002  0  0  0.397564  0  0.931877  0  0  0.407411  0  0.91726  0  0  0.302229  0.390595  0  0.942215  0
H  H22  1  0.29489831  0.90427473  0.53606344  1  0  0.424437  0  0.874012  0  0  0.397555  0  0.931873  0  0  0.407401  0  0.917257  0  0  0.302216  0.390583  0  0.942214  0
H  H23  1  0.79489498  0.09572409  0.96393927  1  0  0.42446  0  0.873983  0  0  0.397564  0  0.931867  0  0  0.40741  0  0.917254  0  0  0.30221  0.390594  0  0.942206  0
H  H24  1  0.29612539  0.89945614  0.25784781  1  0  0.414467  0  0.895456  0  0  0.383221  0  0.960381  0  0  0.394754  0  0.943315  0  0  0.295089  0.375022  0  0.97251  0
H  H25  1  0.79612029  0.10055494  0.24215010  1  0  0.414548  0  0.895348  0  0  0.383308  0  0.96026  0  0  0.39484  0  0.943195  0  0  0.295186  0.375109  0  0.972387  0
H  H26  1  0.70387910  0.10054396  0.74215145  1  0  0.414466  0  0.895457  0  0  0.38322  0  0.960384  0  0  0.394753  0  0.943316  0  0  0.295093  0.375021  0  0.972511  0
H  H27  1  0.20387990  0.89944698  0.75785273  1  0  0.414575  0  0.895311  0  0  0.383335  0  0.960229  0  0  0.394868  0  0.943162  0  0  0.295172  0.375134  0  0.972358  0
H  H28  1  0.26410209  0.68176193  0.41447571  1  0  0.437817  0  0.809818  0  0  0.418808  0  0.863538  0  0  0.427009  0  0.854141  0  0  0.332016  0.41282  0  0.870581  0
H  H29  1  0.76410682  0.31823825  0.08552644  1  0  0.437797  0  0.809876  0  0  0.418825  0  0.863541  0  0  0.427029  0  0.854136  0  0  0.332009  0.412836  0  0.870588  0
H  H30  1  0.73589811  0.31823908  0.58552534  1  0  0.437823  0  0.809874  0  0  0.418839  0  0.863553  0  0  0.42704  0  0.854156  0  0  0.332011  0.412848  0  0.8706  0
H  H31  1  0.23589481  0.68176562  0.91447624  1  0  0.437842  0  0.809923  0  0  0.418877  0  0.863579  0  0  0.427081  0  0.854172  0  0  0.332003  0.412888  0  0.870626  0
H  H32  1  0.34159281  0.75109077  0.19530696  1  0  0.440767  0  0.852484  0  0  0.410829  0  0.911752  0  0  0.421144  0  0.89665  0  0  0.294793  0.403536  0  0.92244  0
H  H33  1  0.84160348  0.24891933  0.30469135  1  0  0.440815  0  0.852414  0  0  0.410884  0  0.911652  0  0  0.421196  0  0.896555  0  0  0.294909  0.403591  0  0.922339  0
H  H34  1  0.65841025  0.24891027  0.80469334  1  0  0.440792  0  0.85244  0  0  0.410861  0  0.911701  0  0  0.421176  0  0.896599  0  0  0.2948  0.403567  0  0.92239  0
H  H35  1  0.15839672  0.75107979  0.69530762  1  0  0.44075  0  0.852503  0  0  0.410823  0  0.911736  0  0  0.421134  0  0.89664  0  0  0.294874  0.403531  0  0.922421  0
H  H36  1  0.11010339  0.72427789  0.50527523  1  0  0.427763  0  0.875949  0  0  0.391524  0  0.948863  0  0  0.401965  0  0.933511  0  0  0.305049  0.384136  0  0.959723  0
H  H37  1  0.61011034  0.27572390  0.99472486  1  0  0.427795  0  0.875894  0  0  0.391568  0  0.948791  0  0  0.402009  0  0.933438  0  0  0.305078  0.384179  0  0.959652  0
H  H38  1  0.88989537  0.27572218  0.49472477  1  0  0.427825  0  0.87586  0  0  0.391607  0  0.948753  0  0  0.402039  0  0.933407  0  0  0.305075  0.384219  0  0.959614  0
H  H39  1  0.38989129  0.72427423  0.00527456  1  0  0.427762  0  0.875947  0  0  0.391531  0  0.94885  0  0  0.401972  0  0.933498  0  0  0.305047  0.384143  0  0.95971  0
H  H40  1  0.57457282  0.03056119  0.36387555  1  0  0.417958  0  0.884494  0  0  0.389558  0  0.944733  0  0  0.398769  0  0.931163  0  0  0.303625  0.383037  0  0.954345  0
H  H41  1  0.07457151  0.96944491  0.13612337  1  0  0.418023  0  0.884411  0  0  0.38958  0  0.944701  0  0  0.398787  0  0.931138  0  0  0.303632  0.383059  0  0.954313  0
H  H42  1  0.42542881  0.96944172  0.63612683  1  0  0.418017  0  0.884404  0  0  0.389636  0  0.944608  0  0  0.398847  0  0.931039  0  0  0.303681  0.383116  0  0.95422  0
H  H43  1  0.92542869  0.03055794  0.86388050  1  0  0.417979  0  0.884469  0  0  0.389542  0  0.944736  0  0  0.398745  0  0.93118  0  0  0.303625  0.383023  0  0.954347  0
C  C44  1  0.67493868  0.74488431  0.54029176  1  0  -0.20797  0  3.680604  0  0  -0.214015  0  3.946974  0  0  -0.219386  0  3.949148  0  0  -0.005759  -0.21045  0  3.945514  0
C  C45  1  0.17494280  0.25510991  0.95970217  1  0  -0.207947  0  3.68045  0  0  -0.213994  0  3.946885  0  0  -0.219358  0  3.949042  0  0  -0.005741  -0.210432  0  3.945427  0
C  C46  1  0.32505293  0.25511688  0.45970407  1  0  -0.207971  0  3.680463  0  0  -0.213978  0  3.946844  0  0  -0.219349  0  3.949017  0  0  -0.005712  -0.210421  0  3.945385  0
C  C47  1  0.82506312  0.74488718  0.04029918  1  0  -0.208119  0  3.680339  0  0  -0.214358  0  3.947025  0  0  -0.219719  0  3.949167  0  0  -0.005828  -0.2108  0  3.945562  0
C  C48  1  0.74242430  0.88173999  0.60256028  1  0  0.704546  0  3.866579  0  0  0.647684  0  4.169934  0  0  0.681898  0  4.161189  0  0  0.238283  0.624453  0  4.175149  0
C  C49  1  0.24243843  0.11825106  0.89744088  1  0  0.704762  0  3.865925  0  0  0.647808  0  4.169437  0  0  0.68202  0  4.160688  0  0  0.238326  0.624575  0  4.174663  0
C  C50  1  0.25757590  0.11825718  0.39743884  1  0  0.704735  0  3.866608  0  0  0.64781  0  4.170043  0  0  0.682027  0  4.161296  0  0  0.238293  0.624574  0  4.175274  0
C  C51  1  0.75756320  0.88174619  0.10255601  1  0  0.704943  0  3.865752  0  0  0.648041  0  4.169198  0  0  0.682254  0  4.16045  0  0  0.238433  0.624825  0  4.174398  0
O  O52  1  0.72317114  0.71204356  0.42961335  1  0  -0.542605  0  2.173772  0  0  -0.492363  0  2.395683  0  0  -0.506089  0  2.383361  0  0  -0.412757  -0.482526  0  2.404287  0
O  O53  1  0.22317436  0.28795290  0.07038320  1  0  -0.542466  0  2.173894  0  0  -0.492226  0  2.395815  0  0  -0.505951  0  2.383488  0  0  -0.412696  -0.482385  0  2.404417  0
O  O54  1  0.27682190  0.28795958  0.57038233  1  0  -0.5425  0  2.173858  0  0  -0.492268  0  2.395765  0  0  -0.505993  0  2.383444  0  0  -0.412728  -0.482429  0  2.404367  0
O  O55  1  0.77683586  0.71204508  0.92962069  1  0  -0.542402  0  2.173863  0  0  -0.492126  0  2.39585  0  0  -0.505851  0  2.383526  0  0  -0.412644  -0.482286  0  2.404447  0
O  O56  1  0.00656066  0.65106641  0.59423427  1  0  -0.868197  0  2.021395  0  0  -0.770344  0  2.247535  0  0  -0.797431  0  2.226467  0  0  -0.358118  -0.751362  0  2.261855  0
O  O57  1  0.50655532  0.34894318  0.90576533  1  0  -0.868406  0  2.021421  0  0  -0.770551  0  2.247565  0  0  -0.797649  0  2.2265  0  0  -0.358198  -0.751566  0  2.261885  0
O  O58  1  0.99343095  0.34894041  0.40576780  1  0  -0.868378  0  2.021087  0  0  -0.770557  0  2.247203  0  0  -0.797646  0  2.226134  0  0  -0.358235  -0.75157  0  2.261512  0
O  O59  1  0.49343916  0.65106187  0.09423169  1  0  -0.868432  0  2.021293  0  0  -0.770579  0  2.247418  0  0  -0.797674  0  2.226354  0  0  -0.358181  -0.751594  0  2.261738  0
O  O60  1  0.73178850  0.49556338  0.51403710  1  0  -0.750101  0  2.007792  0  0  -0.679979  0  2.238989  0  0  -0.701742  0  2.2124  0  0  -0.391683  -0.664566  0  2.257082  0
O  O61  1  0.23178159  0.50443257  0.98596332  1  0  -0.750085  0  2.007942  0  0  -0.679941  0  2.239139  0  0  -0.701702  0  2.212548  0  0  -0.391612  -0.664526  0  2.257238  0
O  O62  1  0.26820598  0.50443298  0.48595726  1  0  -0.749996  0  2.008033  0  0  -0.679831  0  2.239303  0  0  -0.701593  0  2.212718  0  0  -0.391545  -0.664416  0  2.257396  0
O  O63  1  0.76820573  0.49557138  0.01403712  1  0  -0.750036  0  2.007848  0  0  -0.679909  0  2.23913  0  0  -0.701671  0  2.212538  0  0  -0.391598  -0.664493  0  2.257225  0
O  O64  1  0.70149709  0.65160886  0.70641772  1  0  -0.876643  0  1.879135  0  0  -0.804594  0  2.13395  0  0  -0.83015  0  2.112791  0  0  -0.428044  -0.786382  0  2.148254  0
O  O65  1  0.20150223  0.34837959  0.79357367  1  0  -0.87671  0  1.879017  0  0  -0.80466  0  2.133843  0  0  -0.830216  0  2.112682  0  0  -0.428126  -0.786447  0  2.14815  0
O  O66  1  0.29849166  0.34838549  0.29357828  1  0  -0.876629  0  1.879321  0  0  -0.804571  0  2.134168  0  0  -0.830125  0  2.113009  0  0  -0.428075  -0.786362  0  2.148474  0
O  O67  1  0.79849225  0.65161489  0.20641861  1  0  -0.876653  0  1.879348  0  0  -0.804592  0  2.134183  0  0  -0.830147  0  2.113025  0  0  -0.42808  -0.786381  0  2.14849  0
O  O68  1  0.87553245  0.93074426  0.56493785  1  0  -0.677868  0  1.953251  0  0  -0.608637  0  2.189287  0  0  -0.635316  0  2.180741  0  0  -0.350928  -0.589976  0  2.194719  0
O  O69  1  0.37554486  0.06925078  0.93506210  1  0  -0.678006  0  1.953044  0  0  -0.608693  0  2.189111  0  0  -0.635367  0  2.180557  0  0  -0.351005  -0.590032  0  2.19455  0
O  O70  1  0.12446918  0.06925398  0.43505859  1  0  -0.677929  0  1.953253  0  0  -0.608662  0  2.189317  0  0  -0.635345  0  2.180769  0  0  -0.350928  -0.59  0  2.194754  0
O  O71  1  0.62445248  0.93075104  0.06494371  1  0  -0.678082  0  1.953106  0  0  -0.608679  0  2.189031  0  0  -0.635358  0  2.180481  0  0  -0.351022  -0.590038  0  2.19448  0
O  O72  1  0.65840843  0.93619121  0.69252398  1  0  -0.717873  0  2.027274  0  0  -0.64711  0  2.255186  0  0  -0.673907  0  2.243361  0  0  -0.339  -0.628159  0  2.262814  0
O  O73  1  0.15842860  0.06379992  0.80747430  1  0  -0.717868  0  2.027044  0  0  -0.647124  0  2.255034  0  0  -0.673942  0  2.243261  0  0  -0.339011  -0.628167  0  2.262661  0
O  O74  1  0.34159177  0.06380974  0.30747855  1  0  -0.717924  0  2.027421  0  0  -0.647125  0  2.255359  0  0  -0.673917  0  2.243522  0  0  -0.338993  -0.628173  0  2.262994  0
O  O75  1  0.84157589  0.93619146  0.19252306  1  0  -0.718102  0  2.027013  0  0  -0.64731  0  2.254945  0  0  -0.674115  0  2.243134  0  0  -0.339113  -0.628357  0  2.262565  0
O  O76  1  0.66908804  0.01149726  0.41094011  1  0  -0.878135  0  1.826767  0  0  -0.830014  0  2.00015  0  0  -0.848321  0  1.970668  0  0  -0.641034  -0.816929  0  2.020807  0
O  O77  1  0.16908843  0.98850686  0.08906035  1  0  -0.878222  0  1.826735  0  0  -0.830052  0  2.000207  0  0  -0.848357  0  1.970725  0  0  -0.641039  -0.816964  0  2.020863  0
O  O78  1  0.33090644  0.98850557  0.58906450  1  0  -0.87823  0  1.826775  0  0  -0.830115  0  2.000118  0  0  -0.848418  0  1.970633  0  0  -0.641096  -0.81703  0  2.020776  0
O  O79  1  0.83091177  0.01149020  0.91094175  1  0  -0.878185  0  1.826756  0  0  -0.830006  0  2.000247  0  0  -0.848304  0  1.97077  0  0  -0.640999  -0.816918  0  2.020902  0
O  O80  1  0.24685416  0.81016465  0.24240609  1  0  -0.908785  0  1.757553  0  0  -0.852427  0  1.931599  0  0  -0.871519  0  1.898136  0  0  -0.650515  -0.83879  0  1.955188  0
O  O81  1  0.74686922  0.18984467  0.25758608  1  0  -0.908941  0  1.757393  0  0  -0.852572  0  1.931483  0  0  -0.871661  0  1.89802  0  0  -0.650749  -0.838938  0  1.955073  0
O  O82  1  0.75314890  0.18983440  0.75759511  1  0  -0.908803  0  1.757514  0  0  -0.852463  0  1.93153  0  0  -0.871551  0  1.898066  0  0  -0.65053  -0.83883  0  1.955119  0
O  O83  1  0.25313241  0.81014856  0.74241410  1  0  -0.908953  0  1.757432  0  0  -0.852581  0  1.931484  0  0  -0.871668  0  1.898024  0  0  -0.65069  -0.838945  0  1.955076  0
O  O84  1  0.18097790  0.75371578  0.45292395  1  0  -0.859733  0  1.870492  0  0  -0.804016  0  2.05421  0  0  -0.822833  0  2.025711  0  0  -0.588584  -0.790726  0  2.074379  0
O  O85  1  0.68098124  0.24629028  0.04707709  1  0  -0.85974  0  1.870602  0  0  -0.80405  0  2.054218  0  0  -0.822865  0  2.025718  0  0  -0.588597  -0.790758  0  2.07439  0
O  O86  1  0.81902229  0.24629013  0.54707634  1  0  -0.859799  0  1.870528  0  0  -0.804124  0  2.054129  0  0  -0.822923  0  2.025664  0  0  -0.588625  -0.790833  0  2.074302  0
O  O87  1  0.31902326  0.75371357  0.95292633  1  0  -0.85971  0  1.870603  0  0  -0.804071  0  2.054252  0  0  -0.822888  0  2.025751  0  0  -0.588574  -0.790777  0  2.074422  0
