# generated using pymatgen
data_AlH9C16O7
_symmetry_space_group_name_H-M   'P 1'
_cell_length_a   6.77968247
_cell_length_b   23.76093344
_cell_length_c   25.69958200
_cell_angle_alpha   89.98129424
_cell_angle_beta   90.04631960
_cell_angle_gamma   90.02788301
_symmetry_Int_Tables_number   1
_chemical_formula_structural   AlH9C16O7
_chemical_formula_sum   'Al4 H36 C64 O28'
_cell_volume   4139.98430450
_cell_formula_units_Z   4
loop_
 _symmetry_equiv_pos_site_id
 _symmetry_equiv_pos_as_xyz
  1  'x, y, z'
loop_
 _atom_site_type_symbol
 _atom_site_label
 _atom_site_symmetry_multiplicity
 _atom_site_fract_x
 _atom_site_fract_y
 _atom_site_fract_z
 _atom_site_occupancy
 _atom_site_pbe_bader_charge
 _atom_site_pbe_bader_spin_density
 _atom_site_pbe_cm5_charge
 _atom_site_pbe_ddec_charge
 _atom_site_pbe_ddec_spin_density
 _atom_site_pbe_ddec_sum_bond_order
 _atom_site_pbe_magmom
Al  Al0  1  0.00196105  0.00084597  0.49917283  1  2.507856  0  0.408644  1.647976  0  2.564927  0
Al  Al1  1  0.50194869  0.99924454  0.50079105  1  2.507102  0  0.405379  1.65392  0  2.561906  0
Al  Al2  1  0.99812047  0.50076583  0.99921160  1  2.506391  0  0.405279  1.653952  0  2.56209  0
Al  Al3  1  0.49811023  0.49916436  0.00084648  1  2.507857  0  0.408493  1.648171  0  2.564376  0
H  H4  1  0.25016921  0.07536735  0.50102946  1  0.630923  0  0.356718  0.433518  0  0.84656  0
H  H5  1  0.75435749  0.92475548  0.49923912  1  0.633916  0  0.356769  0.433516  0  0.845886  0
H  H6  1  0.24992145  0.42464666  0.99894670  1  0.631306  0  0.356545  0.433442  0  0.846347  0
H  H7  1  0.74571140  0.57525417  0.00076660  1  0.633739  0  0.356661  0.433388  0  0.846136  0
H  H8  1  0.43477151  0.38488012  0.11824679  1  0.132127  0  0.105685  0.115404  0  1.047724  0
H  H9  1  0.43397108  0.31337307  0.18842489  1  0.098335  0  0.10306  0.107863  0  1.010215  0
H  H10  1  0.07197414  0.31361353  0.18798016  1  0.100649  0  0.111264  0.131755  0  0.994857  0
H  H11  1  0.42825756  0.18627226  0.31188703  1  0.10029  0  0.111426  0.132085  0  0.99459  0
H  H12  1  0.06539995  0.11508394  0.38172817  1  0.130579  0  0.105364  0.114883  0  1.047983  0
H  H13  1  0.06626073  0.18653040  0.31149678  1  0.098841  0  0.103212  0.108251  0  1.010145  0
H  H14  1  0.93627294  0.61530145  0.88231436  1  0.13406  0  0.105383  0.114845  0  1.047405  0
H  H15  1  0.93412176  0.68669043  0.81209710  1  0.106404  0  0.103041  0.108036  0  1.009969  0
H  H16  1  0.57214182  0.68620031  0.81154547  1  0.103837  0  0.111316  0.131373  0  0.993956  0
H  H17  1  0.92790996  0.81394724  0.68858323  1  0.101117  0  0.111538  0.131735  0  0.993901  0
H  H18  1  0.56378438  0.88467483  0.61767623  1  0.133735  0  0.105415  0.1148  0  1.047587  0
H  H19  1  0.56592089  0.81332036  0.68792462  1  0.10598  0  0.103133  0.107955  0  1.009664  0
H  H20  1  0.56374644  0.61490196  0.11794689  1  0.136087  0  0.105272  0.114353  0  1.047638  0
H  H21  1  0.56673553  0.68630419  0.18806509  1  0.107591  0  0.103209  0.108344  0  1.010172  0
H  H22  1  0.92874578  0.68665002  0.18829105  1  0.096815  0  0.111451  0.131906  0  0.993961  0
H  H23  1  0.57127877  0.81351326  0.31160025  1  0.097109  0  0.111387  0.131856  0  0.99439  0
H  H24  1  0.93624728  0.88505127  0.38210708  1  0.134938  0  0.105273  0.114299  0  1.047535  0
H  H25  1  0.93329208  0.81367935  0.31196126  1  0.10729  0  0.10326  0.108354  0  1.009981  0
H  H26  1  0.43352435  0.38401446  0.88256827  1  0.15754  0  0.105385  0.114586  0  1.046576  0
H  H27  1  0.43184636  0.31271927  0.81230816  1  0.092715  0  0.103448  0.108257  0  1.01063  0
H  H28  1  0.06974466  0.31409950  0.81138737  1  0.1014  0  0.111956  0.132423  0  0.993914  0
H  H29  1  0.43022514  0.18578149  0.68869774  1  0.098169  0  0.11192  0.132331  0  0.994651  0
H  H30  1  0.06650595  0.11592251  0.61750906  1  0.155907  0  0.105184  0.114535  0  1.046162  0
H  H31  1  0.06813234  0.18719749  0.68778785  1  0.094875  0  0.103279  0.108131  0  1.011026  0
H  H32  1  0.07797692  0.41627206  0.08815431  1  0.62857  0  0.314021  0.353257  0  0.971978  0
H  H33  1  0.42215179  0.08373492  0.41181559  1  0.629034  0  0.314004  0.35317  0  0.972089  0
H  H34  1  0.57990153  0.58259867  0.91048908  1  0.652389  0  0.314153  0.352607  0  0.972761  0
H  H35  1  0.92015447  0.91745378  0.58956026  1  0.656112  0  0.314077  0.352498  0  0.972816  0
H  H36  1  0.91955186  0.58324871  0.08939867  1  0.65405  0  0.31397  0.351899  0  0.97298  0
H  H37  1  0.58047567  0.91684806  0.41053816  1  0.651916  0  0.314031  0.352234  0  0.972537  0
H  H38  1  0.07737336  0.41768969  0.91005739  1  0.635429  0  0.314173  0.351969  0  0.973969  0
H  H39  1  0.42264361  0.08225571  0.58997986  1  0.633993  0  0.314188  0.352317  0  0.973327  0
C  C40  1  0.75419609  0.06866710  0.57065684  1  1.48059  0  0.263565  0.657876  0  4.06602  0
C  C41  1  0.75463843  0.06863976  0.42932811  1  1.477766  0  0.264594  0.658694  0  4.069841  0
C  C42  1  0.24941414  0.93147170  0.42931204  1  1.479675  0  0.265046  0.658921  0  4.067947  0
C  C43  1  0.25140258  0.93145968  0.57064567  1  1.479631  0  0.263391  0.656648  0  4.071026  0
C  C44  1  0.74585308  0.43129329  0.92938465  1  1.481831  0  0.263815  0.658123  0  4.065708  0
C  C45  1  0.74548418  0.43136032  0.07067209  1  1.478266  0  0.26433  0.658672  0  4.070124  0
C  C46  1  0.25061962  0.56855409  0.07069139  1  1.482455  0  0.265051  0.658784  0  4.068232  0
C  C47  1  0.24864473  0.56854705  0.92936286  1  1.48012  0  0.263662  0.657397  0  4.0708  0
C  C48  1  0.75133967  0.38990359  0.11291637  1  0.048048  0  -0.038752  -0.210024  0  3.992522  0
C  C49  1  0.57346316  0.36905351  0.13362807  1  -0.05389  0  -0.079946  -0.05341  0  4.004793  0
C  C50  1  0.57236420  0.32922970  0.17273094  1  -0.059662  0  -0.09357  -0.155382  0  3.96144  0
C  C51  1  0.75322771  0.30856036  0.19278971  1  0.200075  0  0.009633  0.171896  0  4.133299  0
C  C52  1  0.93201090  0.32902277  0.17282875  1  -0.019828  0  -0.094933  -0.251445  0  3.885985  0
C  C53  1  0.93295907  0.36947625  0.13327362  1  0.452755  0  0.098043  0.326206  0  4.061015  0
C  C54  1  0.75242142  0.26760937  0.23270718  1  -0.083207  0  -0.036151  -0.095174  0  4.088963  0
C  C55  1  0.74782475  0.23224933  0.26715569  1  -0.301186  0  -0.035657  -0.096054  0  4.08852  0
C  C56  1  0.74700671  0.19132738  0.30709301  1  0.197442  0  0.010431  0.174015  0  4.130701  0
C  C57  1  0.56821027  0.17087970  0.32706252  1  -0.02086  0  -0.095363  -0.252535  0  3.886158  0
C  C58  1  0.56722385  0.13047419  0.36665188  1  0.457554  0  0.097578  0.325714  0  4.061537  0
C  C59  1  0.74881675  0.11005610  0.38704298  1  0.046351  0  -0.038627  -0.20988  0  3.991803  0
C  C60  1  0.92671389  0.13089524  0.36631767  1  -0.054208  0  -0.079413  -0.052516  0  4.004528  0
C  C61  1  0.92784523  0.17068034  0.32718873  1  -0.059682  0  -0.094107  -0.156667  0  3.961899  0
C  C62  1  0.25305656  0.60997140  0.88706429  1  -0.005149  0  -0.038118  -0.208852  0  3.991491  0
C  C63  1  0.07475491  0.63102608  0.86672866  1  -0.061207  0  -0.080545  -0.054647  0  4.005584  0
C  C64  1  0.07288170  0.67083871  0.82759827  1  -0.06074  0  -0.093874  -0.155587  0  3.961085  0
C  C65  1  0.25333550  0.69146335  0.80724717  1  0.198301  0  0.009838  0.172011  0  4.132901  0
C  C66  1  0.43244458  0.67086339  0.82689602  1  -0.02479  0  -0.095114  -0.250675  0  3.886042  0
C  C67  1  0.43420112  0.63022246  0.86627477  1  0.508331  0  0.097987  0.325565  0  4.061984  0
C  C68  1  0.25210033  0.73239398  0.76730032  1  -0.083436  0  -0.035938  -0.09554  0  4.088672  0
C  C69  1  0.24792209  0.76769270  0.73278446  1  -0.303002  0  -0.035622  -0.095226  0  4.088517  0
C  C70  1  0.24670755  0.80861155  0.69282672  1  0.18641  0  0.009876  0.17219  0  4.13228  0
C  C71  1  0.06759409  0.82923550  0.67319654  1  -0.008988  0  -0.095561  -0.251447  0  3.885864  0
C  C72  1  0.06584633  0.86984782  0.63378939  1  0.508003  0  0.097933  0.325419  0  4.061584  0
C  C73  1  0.24699226  0.89005217  0.61296292  1  -0.005973  0  -0.037926  -0.208517  0  3.991306  0
C  C74  1  0.42530126  0.86898023  0.63328493  1  -0.059095  0  -0.080905  -0.054957  0  4.005978  0
C  C75  1  0.42715092  0.82918822  0.67243593  1  -0.061246  0  -0.093535  -0.155015  0  3.960241  0
C  C76  1  0.24691131  0.61001123  0.11295725  1  -0.010242  0  -0.037798  -0.208446  0  3.990713  0
C  C77  1  0.42541774  0.63080507  0.13340739  1  -0.064723  0  -0.080136  -0.053955  0  4.00451  0
C  C78  1  0.42779312  0.67063752  0.17251759  1  0.001926  0  -0.093981  -0.156227  0  3.958889  0
C  C79  1  0.24759952  0.69148940  0.19277431  1  0.135658  0  0.01066  0.173256  0  4.130934  0
C  C80  1  0.06829665  0.67114232  0.17302988  1  -0.01933  0  -0.095295  -0.251816  0  3.88716  0
C  C81  1  0.06603532  0.63054944  0.13364509  1  0.518076  0  0.097258  0.324938  0  4.062324  0
C  C82  1  0.24863336  0.73240234  0.23271147  1  -0.085889  0  -0.035595  -0.095053  0  4.087385  0
C  C83  1  0.25140476  0.76769332  0.26722502  1  -0.303027  0  -0.035683  -0.095085  0  4.087707  0
C  C84  1  0.25244156  0.80858396  0.30717931  1  0.134488  0  0.010285  0.172666  0  4.131578  0
C  C85  1  0.43173998  0.82896514  0.32689610  1  -0.019655  0  -0.095364  -0.252094  0  3.887104  0
C  C86  1  0.43398806  0.86953570  0.36630152  1  0.517692  0  0.09731  0.325642  0  4.061647  0
C  C87  1  0.25311505  0.89002213  0.38703333  1  -0.008696  0  -0.037863  -0.209046  0  3.990613  0
C  C88  1  0.07460423  0.86918999  0.36661161  1  -0.063797  0  -0.080024  -0.053617  0  4.00398  0
C  C89  1  0.07225391  0.82937565  0.32748507  1  0.001986  0  -0.093741  -0.155736  0  3.958828  0
C  C90  1  0.75027823  0.38983705  0.88711418  1  -0.000955  0  -0.038787  -0.210911  0  3.989455  0
C  C91  1  0.57210374  0.36851249  0.86690852  1  -0.042228  0  -0.080002  -0.052867  0  4.001508  0
C  C92  1  0.57045992  0.32875377  0.82775052  1  -0.05935  0  -0.094149  -0.156842  0  3.960512  0
C  C93  1  0.75101196  0.30842171  0.80729725  1  0.194387  0  0.009926  0.174231  0  4.130764  0
C  C94  1  0.92998291  0.32924227  0.82681862  1  -0.011026  0  -0.095709  -0.252677  0  3.887702  0
C  C95  1  0.93152732  0.36986077  0.86615547  1  0.471421  0  0.09762  0.325562  0  4.063582  0
C  C96  1  0.75084542  0.26754335  0.76734187  1  -0.088526  0  -0.03524  -0.095552  0  4.088668  0
C  C97  1  0.74908141  0.23230801  0.73279145  1  -0.301628  0  -0.03535  -0.094916  0  4.088249  0
C  C98  1  0.74894730  0.19145196  0.69281934  1  0.193901  0  0.010413  0.174033  0  4.131349  0
C  C99  1  0.56999846  0.17064151  0.67328046  1  -0.008296  0  -0.095978  -0.252727  0  3.88878  0
C  C100  1  0.56847910  0.13004953  0.63392142  1  0.471866  0  0.097973  0.325745  0  4.062773  0
C  C101  1  0.74974884  0.11008672  0.61295960  1  0.000496  0  -0.038406  -0.210299  0  3.988717  0
C  C102  1  0.92790714  0.13140623  0.63318161  1  -0.041938  0  -0.080222  -0.053235  0  4.001404  0
C  C103  1  0.92952147  0.17114769  0.67235362  1  -0.06149  0  -0.093965  -0.156511  0  3.961336  0
O  O104  1  0.91872687  0.05313839  0.55177533  1  -1.267613  0  -0.234355  -0.586272  0  2.338525  0
O  O105  1  0.58644734  0.05173641  0.44794982  1  -1.258951  0  -0.243879  -0.621589  0  2.388369  0
O  O106  1  0.41907595  0.94934930  0.44634616  1  -1.260727  0  -0.243456  -0.622101  0  2.392783  0
O  O107  1  0.08282645  0.94981812  0.55361957  1  -1.258905  0  -0.240251  -0.615011  0  2.389574  0
O  O108  1  0.08491111  0.94755686  0.44781409  1  -1.266935  0  -0.233931  -0.585959  0  2.340375  0
O  O109  1  0.41701021  0.94698322  0.55215894  1  -1.269218  0  -0.236277  -0.59184  0  2.343841  0
O  O110  1  0.58466878  0.05024569  0.55400181  1  -1.260868  0  -0.242074  -0.620925  0  2.39219  0
O  O111  1  0.92082589  0.05173016  0.44625260  1  -1.266137  0  -0.23399  -0.587732  0  2.343902  0
O  O112  1  0.25336642  0.03461267  0.49998785  1  -1.436834  0  -0.448961  -0.99079  0  2.161951  0
O  O113  1  0.75227789  0.96552124  0.50001857  1  -1.438873  0  -0.448898  -0.990778  0  2.1614  0
O  O114  1  0.91537743  0.44972564  0.94602800  1  -1.260896  0  -0.242326  -0.621094  0  2.391782  0
O  O115  1  0.57929084  0.44828423  0.05375732  1  -1.266864  0  -0.233838  -0.587626  0  2.343735  0
O  O116  1  0.41514775  0.55244494  0.05221309  1  -1.267702  0  -0.234006  -0.585991  0  2.340162  0
O  O117  1  0.08303703  0.55299406  0.94782197  1  -1.269345  0  -0.236407  -0.592113  0  2.344172  0
O  O118  1  0.08098286  0.55068575  0.05363899  1  -1.261624  0  -0.243467  -0.622022  0  2.392822  0
O  O119  1  0.41722238  0.55020418  0.94640841  1  -1.258746  0  -0.240264  -0.615286  0  2.389357  0
O  O120  1  0.58133999  0.44685778  0.94824942  1  -1.267896  0  -0.234145  -0.586024  0  2.338408  0
O  O121  1  0.91364727  0.44828934  0.05205971  1  -1.259139  0  -0.243675  -0.621555  0  2.38917  0
O  O122  1  0.24672109  0.46540103  0.00003184  1  -1.436986  0  -0.448632  -0.990733  0  2.161627  0
O  O123  1  0.74778538  0.53449039  0.99998447  1  -1.438817  0  -0.44874  -0.990838  0  2.16176  0
O  O124  1  0.10936310  0.38784525  0.11572684  1  -1.137093  0  -0.343411  -0.437441  0  2.306316  0
O  O125  1  0.39079799  0.11213143  0.38421583  1  -1.138979  0  -0.343327  -0.437216  0  2.306041  0
O  O126  1  0.61088952  0.61153347  0.88331841  1  -1.160488  0  -0.343092  -0.436288  0  2.306222  0
O  O127  1  0.88915769  0.88854380  0.61675505  1  -1.164799  0  -0.342903  -0.435977  0  2.306036  0
O  O128  1  0.88893293  0.61221445  0.11654143  1  -1.164244  0  -0.343165  -0.436281  0  2.30649  0
O  O129  1  0.61108425  0.88790715  0.38336933  1  -1.161997  0  -0.343327  -0.43683  0  2.306042  0
O  O130  1  0.10836257  0.38874080  0.88294229  1  -1.148051  0  -0.343175  -0.436301  0  2.30668  0
O  O131  1  0.39166031  0.11118649  0.61711519  1  -1.146798  0  -0.343268  -0.436626  0  2.306097  0
