# generated using pymatgen
data_ZnH4C6(N3O2)2
_symmetry_space_group_name_H-M   'P 1'
_cell_length_a   15.01844483
_cell_length_b   15.01844995
_cell_length_c   15.01843307
_cell_angle_alpha   109.47126604
_cell_angle_beta   109.47114553
_cell_angle_gamma   109.47123374
_symmetry_Int_Tables_number   1
_chemical_formula_structural   ZnH4C6(N3O2)2
_chemical_formula_sum   'Zn6 H24 C36 N36 O24'
_cell_volume   2607.67159814
_cell_formula_units_Z   6
loop_
 _symmetry_equiv_pos_site_id
 _symmetry_equiv_pos_as_xyz
  1  'x, y, z'
loop_
 _atom_site_type_symbol
 _atom_site_label
 _atom_site_symmetry_multiplicity
 _atom_site_fract_x
 _atom_site_fract_y
 _atom_site_fract_z
 _atom_site_occupancy
 _atom_site_pbe_bader_charge
 _atom_site_pbe_bader_spin_density
 _atom_site_pbe_cm5_charge
 _atom_site_pbe_ddec_charge
 _atom_site_pbe_ddec_spin_density
 _atom_site_pbe_ddec_sum_bond_order
 _atom_site_pbe_magmom
Zn  Zn0  1  0.75000368  0.25000524  0.50000586  1  1.259503  0  0.720738  0.679568  0  2.476272  0
Zn  Zn1  1  0.25000784  0.75000273  0.50000926  1  1.25946  0  0.72086  0.679725  0  2.476186  0
Zn  Zn2  1  0.49999037  0.74999709  0.24998974  1  1.259393  0  0.720742  0.679497  0  2.476329  0
Zn  Zn3  1  0.49999345  0.24999214  0.74999792  1  1.259371  0  0.720816  0.679658  0  2.476273  0
Zn  Zn4  1  0.75000252  0.49999994  0.24999418  1  1.259375  0  0.720755  0.679577  0  2.476237  0
Zn  Zn5  1  0.24999909  0.50000301  0.74999792  1  1.259464  0  0.720793  0.679683  0  2.476252  0
H  H6  1  0.87552032  0.11324770  0.47201870  1  0.109972  0  0.119769  0.106818  0  1.00303  0
H  H7  1  0.12447267  0.59649677  0.23772594  1  0.141494  0  0.119799  0.106861  0  1.003045  0
H  H8  1  0.35877386  0.88674688  0.76227483  1  0.108161  0  0.119773  0.106801  0  1.003002  0
H  H9  1  0.64122554  0.40349558  0.52797456  1  0.112878  0  0.11975  0.106814  0  1.002973  0
H  H10  1  0.23772567  0.59650044  0.12447695  1  0.141622  0  0.11977  0.106822  0  1.00302  0
H  H11  1  0.47202380  0.11325208  0.87552793  1  0.10985  0  0.11978  0.106831  0  1.003004  0
H  H12  1  0.52797474  0.40349818  0.64122707  1  0.112818  0  0.11977  0.106834  0  1.003015  0
H  H13  1  0.76226621  0.88674486  0.35876541  1  0.108298  0  0.119792  0.106891  0  1.002991  0
H  H14  1  0.23773487  0.12449096  0.59651347  1  0.141775  0  0.119773  0.106834  0  1.003145  0
H  H15  1  0.47201877  0.87552003  0.11324855  1  0.110004  0  0.119766  0.106818  0  1.003026  0
H  H16  1  0.76226701  0.35876786  0.88674194  1  0.108147  0  0.119786  0.106819  0  1.00293  0
H  H17  1  0.52797474  0.64122740  0.40349770  1  0.112815  0  0.119726  0.106765  0  1.003004  0
H  H18  1  0.88674991  0.35877533  0.76227519  1  0.108246  0  0.119763  0.106837  0  1.00303  0
H  H19  1  0.11325181  0.87552246  0.47202605  1  0.109911  0  0.119752  0.106764  0  1.003061  0
H  H20  1  0.40349833  0.64122886  0.52797499  1  0.11287  0  0.119792  0.106863  0  1.002909  0
H  H21  1  0.59649863  0.12447717  0.23772657  1  0.141494  0  0.119784  0.106856  0  1.003037  0
H  H22  1  0.88674958  0.76226781  0.35877481  1  0.108327  0  0.119744  0.106801  0  1.003054  0
H  H23  1  0.40349918  0.52797650  0.64122857  1  0.112842  0  0.119748  0.106801  0  1.002998  0
H  H24  1  0.59649901  0.23772993  0.12447734  1  0.141507  0  0.119782  0.106856  0  1.003033  0
H  H25  1  0.11325251  0.47202546  0.87552859  1  0.10984  0  0.119819  0.106893  0  1.002998  0
H  H26  1  0.12448835  0.23773719  0.59651202  1  0.141618  0  0.119801  0.106852  0  1.003183  0
H  H27  1  0.87551823  0.47201844  0.11324782  1  0.110011  0  0.119753  0.106835  0  1.003046  0
H  H28  1  0.64122881  0.52797731  0.40349747  1  0.112851  0  0.119742  0.106797  0  1.00302  0
H  H29  1  0.35876775  0.76226964  0.88674428  1  0.10822  0  0.119802  0.106865  0  1.00293  0
C  C30  1  0.61767066  0.00000052  0.36165787  1  1.360693  0  0.286246  0.253635  0  4.029186  0
C  C31  1  0.38232495  0.74399081  0.38232511  1  1.360174  0  0.286299  0.253828  0  4.028949  0
C  C32  1  0.36166367  0.99999813  0.61767466  1  1.360713  0  0.286295  0.253933  0  4.028861  0
C  C33  1  0.63833840  0.25600847  0.63833607  1  1.345312  0  0.286232  0.253773  0  4.028976  0
C  C34  1  0.38233886  0.38233853  0.74400167  1  1.360098  0  0.286314  0.253822  0  4.028987  0
C  C35  1  0.36166152  0.61767090  0.99999828  1  1.360692  0  0.286306  0.253841  0  4.028892  0
C  C36  1  0.61766915  0.36165946  0.99999756  1  1.360623  0  0.28631  0.253864  0  4.028804  0
C  C37  1  0.63833555  0.63833640  0.25600676  1  1.344668  0  0.286289  0.253932  0  4.028788  0
C  C38  1  0.00000005  0.36166456  0.61767590  1  1.360859  0  0.286285  0.253861  0  4.028933  0
C  C39  1  0.00000104  0.61766914  0.36166217  1  1.360645  0  0.286262  0.253865  0  4.028884  0
C  C40  1  0.25601241  0.63834229  0.63834104  1  1.344163  0  0.286239  0.253663  0  4.029165  0
C  C41  1  0.74399129  0.38232819  0.38232664  1  1.360172  0  0.286246  0.25372  0  4.028901  0
C  C42  1  0.78852828  0.05687662  0.42817211  1  0.412287  0  0.020733  0.014814  0  3.919583  0
C  C43  1  0.21146446  0.63964518  0.26834995  1  0.482438  0  0.020736  0.014778  0  3.919314  0
C  C44  1  0.37129675  0.94311964  0.73165408  1  0.473449  0  0.020756  0.014877  0  3.919539  0
C  C45  1  0.62870033  0.36035189  0.57182404  1  0.36215  0  0.020799  0.014887  0  3.919443  0
C  C46  1  0.26834583  0.63964419  0.21146941  1  0.341009  0  0.020756  0.014827  0  3.919332  0
C  C47  1  0.42817625  0.05687931  0.78853442  1  0.412297  0  0.020765  0.014863  0  3.919513  0
C  C48  1  0.57182216  0.36035281  0.62870545  1  0.503629  0  0.020774  0.014849  0  3.919405  0
C  C49  1  0.73165155  0.94312216  0.37129577  1  0.47309  0  0.020724  0.01472  0  3.919581  0
C  C50  1  0.26835501  0.21147152  0.63965514  1  0.340736  0  0.020761  0.014806  0  3.919016  0
C  C51  1  0.42817062  0.78852734  0.05687359  1  0.412306  0  0.020753  0.014844  0  3.919748  0
C  C52  1  0.73164992  0.37129695  0.94311898  1  0.47317  0  0.020781  0.014967  0  3.919506  0
C  C53  1  0.57182190  0.62869945  0.36035090  1  0.503417  0  0.020816  0.014935  0  3.919549  0
C  C54  1  0.94312162  0.37129792  0.73165372  1  0.444802  0  0.02075  0.014796  0  3.9197  0
C  C55  1  0.05688139  0.78853106  0.42818009  1  0.440892  0  0.020771  0.014966  0  3.919516  0
C  C56  1  0.36035680  0.62870590  0.57182812  1  0.503615  0  0.020702  0.014802  0  3.919497  0
C  C57  1  0.63964473  0.21146911  0.26834883  1  0.470523  0  0.020749  0.014791  0  3.919597  0
C  C58  1  0.94312207  0.73164998  0.37129898  1  0.444552  0  0.020844  0.014918  0  3.919488  0
C  C59  1  0.36035625  0.57182798  0.62870462  1  0.362099  0  0.020771  0.014877  0  3.919509  0
C  C60  1  0.63964416  0.26834916  0.21146931  1  0.352798  0  0.02074  0.01479  0  3.919622  0
C  C61  1  0.05688167  0.42818054  0.78853455  1  0.440902  0  0.020698  0.014771  0  3.919585  0
C  C62  1  0.21146822  0.26835750  0.63965408  1  0.482152  0  0.020811  0.014936  0  3.919076  0
C  C63  1  0.78852467  0.42816854  0.05687159  1  0.412402  0  0.020735  0.014734  0  3.919839  0
C  C64  1  0.62869981  0.57182416  0.36035216  1  0.362079  0  0.020803  0.014888  0  3.91966  0
C  C65  1  0.37129565  0.73165064  0.94311832  1  0.473086  0  0.020729  0.014791  0  3.919541  0
N  N66  1  0.71542424  0.09233598  0.42139754  1  -1.216018  0  -0.345041  -0.309179  0  3.564862  0
N  N67  1  0.28457100  0.70597504  0.37691061  1  -1.213733  0  -0.345107  -0.309299  0  3.564814  0
N  N68  1  0.32906740  0.90766370  0.62309434  1  -1.21159  0  -0.345154  -0.309427  0  3.565178  0
N  N69  1  0.67093285  0.29402509  0.57859953  1  -1.198525  0  -0.345111  -0.309413  0  3.565217  0
N  N70  1  0.37690542  0.70597430  0.28457268  1  -1.213616  0  -0.345122  -0.309352  0  3.565093  0
N  N71  1  0.42140016  0.09233431  0.71542810  1  -1.215945  0  -0.345123  -0.309429  0  3.565115  0
N  N72  1  0.57859809  0.29402304  0.67093660  1  -1.198544  0  -0.345092  -0.3093  0  3.564648  0
N  N73  1  0.62308800  0.90766352  0.32906113  1  -1.211358  0  -0.345089  -0.309248  0  3.564874  0
N  N74  1  0.37691434  0.28458380  0.70598448  1  -1.213727  0  -0.345141  -0.309367  0  3.564993  0
N  N75  1  0.42139839  0.71542453  0.09233126  1  -1.215902  0  -0.345137  -0.309366  0  3.565231  0
N  N76  1  0.62308675  0.32906275  0.90765952  1  -1.211386  0  -0.34515  -0.309427  0  3.564921  0
N  N77  1  0.57859747  0.67093425  0.29402178  1  -1.197682  0  -0.345121  -0.309419  0  3.564751  0
N  N78  1  0.90766618  0.32906891  0.62309511  1  -1.211788  0  -0.345109  -0.309404  0  3.565165  0
N  N79  1  0.09233642  0.71542595  0.42140272  1  -1.215977  0  -0.345139  -0.309479  0  3.564808  0
N  N80  1  0.29402598  0.67093767  0.57860061  1  -1.19803  0  -0.345098  -0.309346  0  3.565119  0
N  N81  1  0.70597487  0.28457443  0.37691044  1  -1.213343  0  -0.34507  -0.30926  0  3.564859  0
N  N82  1  0.90766736  0.62308870  0.32906596  1  -1.211306  0  -0.345089  -0.309377  0  3.564938  0
N  N83  1  0.29402635  0.57860222  0.67093775  1  -1.197941  0  -0.345087  -0.309323  0  3.565005  0
N  N84  1  0.70597410  0.37691029  0.28457330  1  -1.213742  0  -0.345108  -0.309329  0  3.564929  0
N  N85  1  0.09233796  0.42140399  0.71542931  1  -1.215938  0  -0.345112  -0.309354  0  3.564959  0
N  N86  1  0.28458421  0.37691894  0.70598566  1  -1.213011  0  -0.345124  -0.309357  0  3.565001  0
N  N87  1  0.71542312  0.42139683  0.09233162  1  -1.215922  0  -0.345103  -0.30936  0  3.564993  0
N  N88  1  0.67093221  0.57859802  0.29402307  1  -1.198422  0  -0.345063  -0.309351  0  3.564914  0
N  N89  1  0.32906376  0.62308731  0.90766057  1  -1.211458  0  -0.345114  -0.309362  0  3.56495  0
N  N90  1  0.51745858  0.00000036  0.33584922  1  0.2805  0  0.044008  0.45961  0  4.264364  0
N  N91  1  0.48254127  0.81839274  0.48253089  1  0.270045  0  0.044036  0.459712  0  4.263933  0
N  N92  1  0.33585560  0.99999219  0.51745958  1  0.280292  0  0.043901  0.459544  0  4.263945  0
N  N93  1  0.66414995  0.18160322  0.66413975  1  0.277677  0  0.043952  0.459563  0  4.264367  0
N  N94  1  0.48255263  0.48254581  0.81840062  1  0.269944  0  0.043891  0.459332  0  4.264677  0
N  N95  1  0.33585975  0.51746191  0.00000665  1  0.280989  0  0.04395  0.45965  0  4.264055  0
N  N96  1  0.51745892  0.33585491  0.00000610  1  0.281068  0  0.043891  0.459557  0  4.264447  0
N  N97  1  0.66415019  0.66414608  0.18160434  1  0.277633  0  0.043855  0.459324  0  4.264688  0
N  N98  1  0.99999229  0.33585536  0.51746031  1  0.280444  0  0.044028  0.459695  0  4.263892  0
N  N99  1  0.99999548  0.51745413  0.33585025  1  0.280377  0  0.043813  0.459378  0  4.264511  0
N  N100  1  0.18160333  0.66414599  0.66414463  1  0.277655  0  0.043922  0.459599  0  4.264498  0
N  N101  1  0.81839079  0.48254138  0.48253601  1  0.269904  0  0.043973  0.459565  0  4.264296  0
O  O102  1  0.43144361  0.90988886  0.27977199  1  -0.473956  0  -0.14074  -0.3389  0  1.971169  0
O  O103  1  0.56857088  0.84834247  0.47844781  1  -0.469059  0  -0.140768  -0.33897  0  1.970615  0
O  O104  1  0.36989030  0.09010703  0.52156159  1  -0.473827  0  -0.140717  -0.338934  0  1.971087  0
O  O105  1  0.63010584  0.15166763  0.72020729  1  -0.473181  0  -0.14068  -0.338871  0  1.971504  0
O  O106  1  0.47842869  0.84832056  0.56853425  1  -0.46853  0  -0.140798  -0.339018  0  1.971307  0
O  O107  1  0.27978442  0.90987982  0.43143864  1  -0.475278  0  -0.140699  -0.338872  0  1.970738  0
O  O108  1  0.72023399  0.15165837  0.63010812  1  -0.473919  0  -0.140759  -0.338928  0  1.9708  0
O  O109  1  0.52155710  0.09011390  0.36988353  1  -0.472653  0  -0.140795  -0.338937  0  1.971086  0
O  O110  1  0.47845187  0.56855955  0.84833419  1  -0.468771  0  -0.140679  -0.338798  0  1.971353  0
O  O111  1  0.27978866  0.43145560  0.90989487  1  -0.475641  0  -0.140675  -0.338895  0  1.971245  0
O  O112  1  0.52154967  0.36988984  0.09012083  1  -0.472834  0  -0.140784  -0.338962  0  1.970822  0
O  O113  1  0.72023070  0.63011453  0.15166693  1  -0.473667  0  -0.140751  -0.338887  0  1.971207  0
O  O114  1  0.09010755  0.36989479  0.52156717  1  -0.47249  0  -0.140854  -0.339065  0  1.971159  0
O  O115  1  0.90988218  0.43142969  0.27976761  1  -0.473969  0  -0.14078  -0.33889  0  1.970851  0
O  O116  1  0.15166108  0.63010430  0.72021639  1  -0.473495  0  -0.140675  -0.338878  0  1.971241  0
O  O117  1  0.84833379  0.56856178  0.47844502  1  -0.468899  0  -0.140801  -0.338932  0  1.971013  0
O  O118  1  0.09010670  0.52155766  0.36988908  1  -0.473923  0  -0.140593  -0.338787  0  1.971449  0
O  O119  1  0.15166337  0.72022263  0.63010970  1  -0.473562  0  -0.140717  -0.338887  0  1.971118  0
O  O120  1  0.84832317  0.47843838  0.56854713  1  -0.468609  0  -0.140706  -0.338898  0  1.971264  0
O  O121  1  0.90988094  0.27978021  0.43143440  1  -0.475332  0  -0.14068  -0.338881  0  1.970669  0
O  O122  1  0.56857581  0.47845778  0.84834378  1  -0.468969  0  -0.140754  -0.338849  0  1.971024  0
O  O123  1  0.43145402  0.27978017  0.90989464  1  -0.474341  0  -0.140621  -0.33884  0  1.971586  0
O  O124  1  0.63011501  0.72022292  0.15167043  1  -0.473343  0  -0.140643  -0.338754  0  1.971409  0
O  O125  1  0.36989370  0.52155181  0.09012114  1  -0.474218  0  -0.140766  -0.338967  0  1.970819  0
