# generated using pymatgen
data_ZnH2C3N3O2
_symmetry_space_group_name_H-M   'P 1'
_cell_length_a   7.67054083
_cell_length_b   9.74964749
_cell_length_c   13.49223316
_cell_angle_alpha   89.99985222
_cell_angle_beta   90.00010106
_cell_angle_gamma   89.99999958
_symmetry_Int_Tables_number   1
_chemical_formula_structural   ZnH2C3N3O2
_chemical_formula_sum   'Zn8 H16 C24 N24 O16'
_cell_volume   1009.01758894
_cell_formula_units_Z   8
loop_
 _symmetry_equiv_pos_site_id
 _symmetry_equiv_pos_as_xyz
  1  'x, y, z'
loop_
 _atom_site_type_symbol
 _atom_site_label
 _atom_site_symmetry_multiplicity
 _atom_site_fract_x
 _atom_site_fract_y
 _atom_site_fract_z
 _atom_site_occupancy
 _atom_site_hle17_bader_spin_density
 _atom_site_hle17_ddec_charge
 _atom_site_hle17_ddec_spin_density
 _atom_site_hle17_ddec_sum_bond_order
 _atom_site_hle17_magmom
 _atom_site_hse06_10hf_bader_spin_density
 _atom_site_hse06_10hf_ddec_charge
 _atom_site_hse06_10hf_ddec_spin_density
 _atom_site_hse06_10hf_ddec_sum_bond_order
 _atom_site_hse06_10hf_magmom
 _atom_site_hse06_bader_spin_density
 _atom_site_hse06_ddec_charge
 _atom_site_hse06_ddec_spin_density
 _atom_site_hse06_ddec_sum_bond_order
 _atom_site_hse06_magmom
 _atom_site_pbe_bader_spin_density
 _atom_site_pbe_cm5_charge
 _atom_site_pbe_ddec_charge
 _atom_site_pbe_ddec_spin_density
 _atom_site_pbe_ddec_sum_bond_order
 _atom_site_pbe_magmom
Zn  Zn0  1  0.57490861  0.94186482  0.00084063  1  0  0.990683  0  1.906302  0  0  0.81504  0  2.35953  0  0  0.859334  0  2.311758  0  0  0.681842  0.783131  0  2.392626  0
Zn  Zn1  1  0.42508945  0.05813454  0.50084164  1  0  0.99071  0  1.906291  0  0  0.815057  0  2.359527  0  0  0.859352  0  2.311754  0  0  0.681838  0.783144  0  2.392621  0
Zn  Zn2  1  0.92509122  0.44186315  0.00084054  1  0  0.990725  0  1.906284  0  0  0.81506  0  2.35953  0  0  0.859355  0  2.311757  0  0  0.681854  0.783152  0  2.392623  0
Zn  Zn3  1  0.07491205  0.55813518  0.50084100  1  0  0.990738  0  1.906244  0  0  0.815083  0  2.359472  0  0  0.859377  0  2.311701  0  0  0.681856  0.783171  0  2.392565  0
Zn  Zn4  1  0.98694197  0.74451895  0.73009910  1  0  0.991725  0  1.855803  0  0  0.789531  0  2.325499  0  0  0.833578  0  2.276329  0  0  0.74544  0.758525  0  2.359128  0
Zn  Zn5  1  0.01305811  0.25548062  0.23010030  1  0  0.991707  0  1.855779  0  0  0.789469  0  2.325496  0  0  0.833519  0  2.276327  0  0  0.745415  0.758469  0  2.359133  0
Zn  Zn6  1  0.51305883  0.24451728  0.73010007  1  0  0.991739  0  1.855855  0  0  0.789456  0  2.325653  0  0  0.833502  0  2.276486  0  0  0.745445  0.758471  0  2.359251  0
Zn  Zn7  1  0.48694125  0.75548126  0.23010007  1  0  0.991706  0  1.855842  0  0  0.789478  0  2.325586  0  0  0.833527  0  2.276416  0  0  0.745436  0.758488  0  2.359196  0
H  H8  1  0.26248483  0.17863098  0.05025777  1  0  0.099185  0  0.929487  0  0  0.108544  0  0.991548  0  0  0.110278  0  0.990063  0  0  0.137521  0.107227  0  0.992661  0
H  H9  1  0.73751469  0.82137025  0.55025840  1  0  0.099202  0  0.929484  0  0  0.108563  0  0.991542  0  0  0.110297  0  0.990057  0  0  0.137535  0.107246  0  0.992654  0
H  H10  1  0.23751657  0.67862957  0.05025729  1  0  0.099195  0  0.929502  0  0  0.108558  0  0.991558  0  0  0.110292  0  0.990069  0  0  0.137533  0.107241  0  0.99267  0
H  H11  1  0.76248164  0.32136858  0.55025888  1  0  0.099235  0  0.929495  0  0  0.108582  0  0.991565  0  0  0.110317  0  0.990078  0  0  0.137555  0.107265  0  0.992679  0
H  H12  1  0.35639061  0.60752834  0.73653595  1  0  0.094345  0  0.938924  0  0  0.10409  0  1.002138  0  0  0.106367  0  0.999625  0  0  0.128803  0.102292  0  1.004185  0
H  H13  1  0.64360687  0.39247120  0.23653530  1  0  0.094329  0  0.93892  0  0  0.10408  0  1.002124  0  0  0.106356  0  0.999613  0  0  0.128822  0.102283  0  1.004171  0
H  H14  1  0.14361031  0.10753078  0.73653557  1  0  0.094361  0  0.938946  0  0  0.104107  0  1.002148  0  0  0.106384  0  0.999638  0  0  0.128817  0.102307  0  1.004193  0
H  H15  1  0.85639239  0.89247082  0.23653568  1  0  0.094345  0  0.938909  0  0  0.104087  0  1.002128  0  0  0.106365  0  0.999616  0  0  0.128799  0.102286  0  1.004173  0
H  H16  1  0.16702874  0.93589683  0.90755765  1  0  0.091138  0  0.9347  0  0  0.101393  0  0.998197  0  0  0.103327  0  0.996106  0  0  0.132638  0.099775  0  1.000065  0
H  H17  1  0.83297188  0.06410210  0.40755854  1  0  0.091148  0  0.934691  0  0  0.101394  0  0.998194  0  0  0.103329  0  0.996102  0  0  0.132639  0.099779  0  1.000061  0
H  H18  1  0.33297532  0.43589824  0.90755745  1  0  0.091139  0  0.934678  0  0  0.101392  0  0.998177  0  0  0.103328  0  0.996083  0  0  0.132617  0.099773  0  1.000046  0
H  H19  1  0.66702661  0.56410172  0.40755799  1  0  0.091117  0  0.934679  0  0  0.101369  0  0.998182  0  0  0.103304  0  0.996089  0  0  0.132632  0.099753  0  1.000049  0
H  H20  1  0.19682495  0.97040374  0.32081488  1  0  0.101372  0  0.968293  0  0  0.107615  0  1.037982  0  0  0.109954  0  1.034359  0  0  0.136805  0.105674  0  1.040912  0
H  H21  1  0.80317671  0.02959755  0.82081483  1  0  0.10141  0  0.968231  0  0  0.107591  0  1.037975  0  0  0.10993  0  1.034352  0  0  0.136802  0.105648  0  1.040905  0
H  H22  1  0.30317469  0.47040310  0.32081466  1  0  0.101398  0  0.968323  0  0  0.107641  0  1.038012  0  0  0.109979  0  1.03439  0  0  0.136823  0.1057  0  1.040942  0
H  H23  1  0.69682306  0.52959512  0.82081579  1  0  0.101415  0  0.96823  0  0  0.107584  0  1.037998  0  0  0.109923  0  1.034376  0  0  0.136796  0.105643  0  1.040928  0
C  C24  1  0.27658562  0.10564875  0.11056291  1  0  0.216825  0  3.682696  0  0  0.161371  0  3.948992  0  0  0.174449  0  3.963295  0  0  0.14646  0.152647  0  3.939327  0
C  C25  1  0.72341408  0.89435124  0.61056339  1  0  0.216815  0  3.682671  0  0  0.161347  0  3.948966  0  0  0.174427  0  3.963269  0  0  0.14644  0.152621  0  3.939303  0
C  C26  1  0.22341336  0.60564939  0.11056390  1  0  0.216813  0  3.682729  0  0  0.161347  0  3.949017  0  0  0.174433  0  3.963317  0  0  0.146428  0.152622  0  3.939355  0
C  C27  1  0.77658374  0.39434855  0.61056463  1  0  0.216785  0  3.682768  0  0  0.161308  0  3.949047  0  0  0.174386  0  3.963348  0  0  0.146398  0.152583  0  3.939388  0
C  C28  1  0.34951374  0.69022765  0.79056695  1  0  0.174552  0  3.733508  0  0  0.128033  0  4.004997  0  0  0.138403  0  4.020327  0  0  0.124831  0.12117  0  3.994727  0
C  C29  1  0.65048392  0.30977068  0.29056647  1  0  0.17455  0  3.733499  0  0  0.128021  0  4.005004  0  0  0.138393  0  4.020332  0  0  0.124796  0.121156  0  3.994736  0
C  C30  1  0.15048866  0.19022906  0.79056584  1  0  0.174474  0  3.733547  0  0  0.127967  0  4.005039  0  0  0.138337  0  4.02037  0  0  0.124796  0.121099  0  3.994768  0
C  C31  1  0.84951421  0.80976927  0.29056610  1  0  0.174566  0  3.733591  0  0  0.128046  0  4.005073  0  0  0.138413  0  4.020409  0  0  0.124829  0.12118  0  3.994797  0
C  C32  1  0.25174371  0.85779458  0.87638649  1  0  0.205242  0  3.715452  0  0  0.148351  0  3.983273  0  0  0.161906  0  3.996833  0  0  0.136571  0.139324  0  3.974153  0
C  C33  1  0.74825551  0.14220447  0.37638642  1  0  0.205253  0  3.715515  0  0  0.148368  0  3.983321  0  0  0.161925  0  3.996881  0  0  0.13661  0.139345  0  3.974204  0
C  C34  1  0.24825765  0.35779599  0.87638548  1  0  0.205135  0  3.71547  0  0  0.148256  0  3.983292  0  0  0.16181  0  3.996852  0  0  0.13652  0.13922  0  3.974177  0
C  C35  1  0.75174549  0.64220306  0.37638521  1  0  0.205346  0  3.715427  0  0  0.148465  0  3.983228  0  0  0.162022  0  3.996788  0  0  0.136643  0.139438  0  3.974107  0
C  C36  1  0.82373350  0.72145205  0.96599624  1  0  0.532293  0  3.925576  0  0  0.485984  0  4.222338  0  0  0.516104  0  4.214071  0  0  0.202363  0.465311  0  4.227396  0
C  C37  1  0.17626469  0.27854873  0.46599682  1  0  0.532299  0  3.925538  0  0  0.485989  0  4.222275  0  0  0.516102  0  4.214016  0  0  0.202339  0.465322  0  4.22733  0
C  C38  1  0.67626542  0.22145038  0.96600256  1  0  0.532183  0  3.925717  0  0  0.485878  0  4.222458  0  0  0.515996  0  4.214196  0  0  0.202274  0.465209  0  4.227515  0
C  C39  1  0.32373409  0.77855039  0.46599939  1  0  0.532272  0  3.925708  0  0  0.486004  0  4.222395  0  0  0.516119  0  4.214142  0  0  0.202336  0.465337  0  4.227453  0
C  C40  1  0.71500312  0.67448377  0.05717336  1  0  0.547825  0  3.868733  0  0  0.50108  0  4.156291  0  0  0.53068  0  4.149311  0  0  0.211447  0.480941  0  4.160419  0
C  C41  1  0.28499772  0.32551642  0.55717224  1  0  0.547818  0  3.868675  0  0  0.501093  0  4.156178  0  0  0.530696  0  4.149195  0  0  0.211437  0.480954  0  4.160306  0
C  C42  1  0.78499819  0.17448620  0.05717609  1  0  0.547943  0  3.86879  0  0  0.50118  0  4.156341  0  0  0.53078  0  4.149357  0  0  0.211514  0.481039  0  4.160467  0
C  C43  1  0.21500004  0.82551603  0.55717248  1  0  0.547842  0  3.868724  0  0  0.501077  0  4.156288  0  0  0.530678  0  4.149307  0  0  0.211431  0.480934  0  4.160414  0
C  C44  1  0.24307973  0.00063855  0.24834374  1  0  0.24256  0  3.677546  0  0  0.181122  0  3.945878  0  0  0.196016  0  3.958311  0  0  0.155205  0.171389  0  3.937443  0
C  C45  1  0.75692041  0.99936198  0.74834332  1  0  0.242469  0  3.677645  0  0  0.181094  0  3.945978  0  0  0.195988  0  3.958413  0  0  0.155156  0.171355  0  3.937541  0
C  C46  1  0.25691969  0.50063714  0.24834402  1  0  0.242531  0  3.677593  0  0  0.181079  0  3.945922  0  0  0.195978  0  3.958356  0  0  0.155165  0.171342  0  3.937486  0
C  C47  1  0.74307914  0.49935928  0.74834378  1  0  0.242542  0  3.677494  0  0  0.181148  0  3.945822  0  0  0.196038  0  3.958253  0  0  0.155239  0.171412  0  3.937385  0
N  N48  1  0.48018388  0.72768838  0.84900505  1  0  -0.265108  0  2.955385  0  0  -0.241748  0  3.233718  0  0  -0.252388  0  3.252821  0  0  -0.246771  -0.234288  0  3.220602  0
N  N49  1  0.51981656  0.27231281  0.34900524  1  0  -0.265086  0  2.955371  0  0  -0.241737  0  3.233723  0  0  -0.252376  0  3.252826  0  0  -0.24678  -0.234281  0  3.220605  0
N  N50  1  0.01981609  0.22769492  0.84900084  1  0  -0.265  0  2.955403  0  0  -0.241641  0  3.233737  0  0  -0.25228  0  3.252842  0  0  -0.246714  -0.234184  0  3.220619  0
N  N51  1  0.98018436  0.77231140  0.34900352  1  0  -0.265129  0  2.955421  0  0  -0.241775  0  3.233768  0  0  -0.252415  0  3.252872  0  0  -0.246761  -0.23431  0  3.220645  0
N  N52  1  0.38574611  0.00011571  0.10876499  1  0  -0.271538  0  3.179118  0  0  -0.211085  0  3.46061  0  0  -0.226907  0  3.478063  0  0  -0.243367  -0.200709  0  3.448671  0
N  N53  1  0.61425489  0.99988429  0.60876591  1  0  -0.271545  0  3.179121  0  0  -0.211077  0  3.460602  0  0  -0.226896  0  3.478056  0  0  -0.243358  -0.200699  0  3.448661  0
N  N54  1  0.11425287  0.50011737  0.10876513  1  0  -0.271518  0  3.17912  0  0  -0.211063  0  3.460618  0  0  -0.226883  0  3.478066  0  0  -0.243347  -0.200686  0  3.448675  0
N  N55  1  0.88574813  0.49988160  0.60876725  1  0  -0.271527  0  3.179078  0  0  -0.211064  0  3.460583  0  0  -0.226886  0  3.478036  0  0  -0.243334  -0.20069  0  3.448642  0
N  N56  1  0.20350841  0.76803454  0.80507738  1  0  -0.42743  0  3.317511  0  0  -0.335776  0  3.618756  0  0  -0.358277  0  3.627414  0  0  -0.373333  -0.320862  0  3.612679  0
N  N57  1  0.79648929  0.23196374  0.30507644  1  0  -0.427379  0  3.31747  0  0  -0.335714  0  3.618705  0  0  -0.358217  0  3.627363  0  0  -0.373305  -0.320802  0  3.612635  0
N  N58  1  0.29649403  0.26803390  0.80507715  1  0  -0.427361  0  3.31745  0  0  -0.335727  0  3.618727  0  0  -0.35823  0  3.627387  0  0  -0.37333  -0.320813  0  3.612653  0
N  N59  1  0.70350758  0.73196335  0.30507593  1  0  -0.427488  0  3.317583  0  0  -0.335821  0  3.618813  0  0  -0.358324  0  3.627472  0  0  -0.373378  -0.320907  0  3.612738  0
N  N60  1  0.36435792  0.93287132  0.19763969  1  0  -0.27652  0  3.20159  0  0  -0.198832  0  3.493402  0  0  -0.216626  0  3.50728  0  0  -0.254198  -0.186565  0  3.483584  0
N  N61  1  0.63564466  0.06712836  0.69763940  1  0  -0.276465  0  3.201699  0  0  -0.198779  0  3.493495  0  0  -0.216577  0  3.507378  0  0  -0.254174  -0.18651  0  3.483673  0
N  N62  1  0.13564133  0.43287171  0.19763930  1  0  -0.276485  0  3.20162  0  0  -0.1988  0  3.493446  0  0  -0.216592  0  3.507321  0  0  -0.254181  -0.186532  0  3.483622  0
N  N63  1  0.86435865  0.56712592  0.69763979  1  0  -0.276517  0  3.201531  0  0  -0.198877  0  3.493384  0  0  -0.216666  0  3.507257  0  0  -0.254232  -0.186606  0  3.483558  0
N  N64  1  0.41677253  0.83620195  0.90362078  1  0  -0.3011  0  3.253146  0  0  -0.228469  0  3.55108  0  0  -0.246722  0  3.568113  0  0  -0.257752  -0.216032  0  3.539094  0
N  N65  1  0.58322938  0.16379802  0.40362272  1  0  -0.30117  0  3.253208  0  0  -0.228527  0  3.551128  0  0  -0.24678  0  3.568162  0  0  -0.257775  -0.216087  0  3.539137  0
N  N66  1  0.08322630  0.33620644  0.90361738  1  0  -0.301095  0  3.253239  0  0  -0.228467  0  3.551178  0  0  -0.246718  0  3.568211  0  0  -0.257712  -0.216017  0  3.539183  0
N  N67  1  0.91677301  0.66379559  0.40362094  1  0  -0.301122  0  3.25309  0  0  -0.228503  0  3.551043  0  0  -0.246754  0  3.568075  0  0  -0.257771  -0.216058  0  3.53905  0
N  N68  1  0.18497553  0.11003132  0.19671983  1  0  -0.424043  0  3.273658  0  0  -0.337004  0  3.580382  0  0  -0.36009  0  3.588759  0  0  -0.360967  -0.321374  0  3.574405  0
N  N69  1  0.81502575  0.88996939  0.69671968  1  0  -0.424056  0  3.273684  0  0  -0.337014  0  3.580375  0  0  -0.360103  0  3.588758  0  0  -0.360952  -0.321378  0  3.574393  0
N  N70  1  0.31502633  0.61002991  0.19672092  1  0  -0.42408  0  3.27358  0  0  -0.337018  0  3.580276  0  0  -0.360116  0  3.588664  0  0  -0.36096  -0.321387  0  3.574301  0
N  N71  1  0.68496843  0.38996773  0.69672082  1  0  -0.424106  0  3.273827  0  0  -0.336959  0  3.580413  0  0  -0.360041  0  3.588791  0  0  -0.360978  -0.321331  0  3.574439  0
O  O72  1  0.81101597  0.84440219  0.93842396  1  0  -0.563934  0  2.054279  0  0  -0.511605  0  2.308775  0  0  -0.535008  0  2.297728  0  0  -0.298626  -0.494884  0  2.315838  0
O  O73  1  0.18898084  0.15560074  0.43842255  1  0  -0.563917  0  2.054268  0  0  -0.51159  0  2.308738  0  0  -0.535004  0  2.297724  0  0  -0.298596  -0.494871  0  2.3158  0
O  O74  1  0.68898286  0.34439539  0.93842436  1  0  -0.563862  0  2.054406  0  0  -0.511517  0  2.308854  0  0  -0.534922  0  2.297827  0  0  -0.298547  -0.494798  0  2.315916  0
O  O75  1  0.31101786  0.65560343  0.43842289  1  0  -0.563893  0  2.054389  0  0  -0.511555  0  2.308813  0  0  -0.534963  0  2.297791  0  0  -0.298561  -0.494837  0  2.315877  0
O  O76  1  0.73411656  0.55587532  0.09060383  1  0  -0.540236  0  2.051593  0  0  -0.49183  0  2.295906  0  0  -0.514274  0  2.287508  0  0  -0.291263  -0.475973  0  2.301227  0
O  O77  1  0.26588569  0.44412475  0.59060543  1  0  -0.540217  0  2.051526  0  0  -0.491827  0  2.295837  0  0  -0.514269  0  2.287429  0  0  -0.29124  -0.475968  0  2.301155  0
O  O78  1  0.76588747  0.05587775  0.09060653  1  0  -0.540199  0  2.051512  0  0  -0.491811  0  2.29585  0  0  -0.514245  0  2.287431  0  0  -0.291241  -0.47595  0  2.301166  0
O  O79  1  0.23411609  0.94412436  0.59060569  1  0  -0.540203  0  2.051459  0  0  -0.491806  0  2.295791  0  0  -0.514247  0  2.287384  0  0  -0.291224  -0.475947  0  2.301108  0
O  O80  1  0.61144334  0.76574957  0.09245575  1  0  -0.61641  0  2.249157  0  0  -0.533149  0  2.537048  0  0  -0.561619  0  2.52253  0  0  -0.307747  -0.512938  0  2.54632  0
O  O81  1  0.38855631  0.23424844  0.59245564  1  0  -0.616429  0  2.249136  0  0  -0.533143  0  2.536994  0  0  -0.561612  0  2.522473  0  0  -0.307726  -0.51293  0  2.546255  0
O  O82  1  0.88855548  0.26575303  0.09245635  1  0  -0.616543  0  2.249315  0  0  -0.533189  0  2.537086  0  0  -0.561678  0  2.522614  0  0  -0.307768  -0.51298  0  2.546363  0
O  O83  1  0.11144286  0.73424805  0.59245504  1  0  -0.616446  0  2.249235  0  0  -0.533149  0  2.537094  0  0  -0.561627  0  2.522594  0  0  -0.30774  -0.512937  0  2.546362  0
O  O84  1  0.92027813  0.63050730  0.92618829  1  0  -0.601442  0  2.104009  0  0  -0.542666  0  2.374547  0  0  -0.568499  0  2.363695  0  0  -0.305936  -0.523803  0  2.381139  0
O  O85  1  0.07972124  0.36949568  0.42618711  1  0  -0.601482  0  2.104004  0  0  -0.542688  0  2.374503  0  0  -0.568514  0  2.363647  0  0  -0.305945  -0.523822  0  2.381093  0
O  O86  1  0.57972327  0.13050255  0.92619006  1  0  -0.601445  0  2.103977  0  0  -0.54265  0  2.374471  0  0  -0.568477  0  2.3636  0  0  -0.305934  -0.523785  0  2.381062  0
O  O87  1  0.42027871  0.86949837  0.42618978  1  0  -0.601469  0  2.103992  0  0  -0.542718  0  2.374529  0  0  -0.568534  0  2.363637  0  0  -0.30597  -0.523858  0  2.381124  0
