# generated using pymatgen
data_NaH7C3S(NO)4
_symmetry_space_group_name_H-M   'P 1'
_cell_length_a   6.44969877
_cell_length_b   8.67281805
_cell_length_c   8.59627672
_cell_angle_alpha   108.92319601
_cell_angle_beta   90.03065605
_cell_angle_gamma   111.83552490
_symmetry_Int_Tables_number   1
_chemical_formula_structural   NaH7C3S(NO)4
_chemical_formula_sum   'Na2 H14 C6 S2 N8 O8'
_cell_volume   418.19009551
_cell_formula_units_Z   2
loop_
 _symmetry_equiv_pos_site_id
 _symmetry_equiv_pos_as_xyz
  1  'x, y, z'
loop_
 _atom_site_type_symbol
 _atom_site_label
 _atom_site_symmetry_multiplicity
 _atom_site_fract_x
 _atom_site_fract_y
 _atom_site_fract_z
 _atom_site_occupancy
 _atom_site_pbe_bader_spin_density
 _atom_site_pbe_cm5_charge
 _atom_site_pbe_ddec_charge
 _atom_site_pbe_ddec_spin_density
 _atom_site_pbe_ddec_sum_bond_order
 _atom_site_pbe_magmom
Na  Na0  1  0.78350981  0.00003780  0.00003344  1  0  0.640416  0.865643  0  0.522896  0
Na  Na1  1  0.21649182  0.99996205  0.99996326  1  0  0.6404  0.865619  0  0.522911  0
H  H2  1  0.41459766  0.82839984  0.44127635  1  0  0.099688  0.107029  0  1.013691  0
H  H3  1  0.58539975  0.17160399  0.55872398  1  0  0.09967  0.107008  0  1.013602  0
H  H4  1  0.32290408  0.92501903  0.31327616  1  0  0.101632  0.092506  0  1.049637  0
H  H5  1  0.39718481  0.07471034  0.68655228  1  0  0.101765  0.092492  0  1.048354  0
H  H6  1  0.67709422  0.07498347  0.68672141  1  0  0.10163  0.092487  0  1.049712  0
H  H7  1  0.60281438  0.92529084  0.31344952  1  0  0.10178  0.092501  0  1.048361  0
H  H8  1  0.82598650  0.65160339  0.95706729  1  0  0.280242  0.360449  0  0.995358  0
H  H9  1  0.17401269  0.34839779  0.04293450  1  0  0.280248  0.360477  0  0.995316  0
H  H10  1  0.04626457  0.09225457  0.32696131  1  0  0.279221  0.32541  0  1.045401  0
H  H11  1  0.95373483  0.90774394  0.67303379  1  0  0.279208  0.325422  0  1.04538  0
H  H12  1  0.82405778  0.64789074  0.77371242  1  0  0.284225  0.354015  0  0.999499  0
H  H13  1  0.17594384  0.35210912  0.22628778  1  0  0.284219  0.354001  0  0.999523  0
H  H14  1  0.94143502  0.88204129  0.27104479  1  0  0.281252  0.347142  0  1.012441  0
H  H15  1  0.05856283  0.11795723  0.72895149  1  0  0.281235  0.347105  0  1.012494  0
C  C16  1  0.23417832  0.46877805  0.77302901  1  0  0.245695  0.302924  0  4.116531  0
C  C17  1  0.76581954  0.53122047  0.22696843  1  0  0.245713  0.302935  0  4.116424  0
C  C18  1  0.33497059  0.66963785  0.03887680  1  0  0.32284  0.685307  0  4.163658  0
C  C19  1  0.66502771  0.33036466  0.96112775  1  0  0.322823  0.685351  0  4.163484  0
C  C20  1  0.42633374  0.85194142  0.32347188  1  0  -0.144098  -0.176749  0  3.903419  0
C  C21  1  0.57366700  0.14805976  0.67652992  1  0  -0.144071  -0.176702  0  3.903371  0
S  S22  1  0.30983413  0.61950120  0.66845810  1  0  0.232048  0.167544  0  2.904359  0
S  S23  1  0.69017215  0.38049865  0.33154210  1  0  0.23205  0.167551  0  2.904409  0
N  N24  1  0.15060308  0.30213523  0.66076627  1  0  -0.199983  -0.244882  0  3.277146  0
N  N25  1  0.84939434  0.69786859  0.33923522  1  0  -0.200004  -0.244958  0  3.277072  0
N  N26  1  0.14919983  0.29913424  0.50491208  1  0  -0.056756  0.025281  0  3.460294  0
N  N27  1  0.85079803  0.70086428  0.49508652  1  0  -0.056716  0.025389  0  3.460273  0
N  N28  1  0.24967922  0.49963460  0.93514550  1  0  -0.343326  -0.498594  0  3.372958  0
N  N29  1  0.75031731  0.50036127  0.06485223  1  0  -0.343307  -0.498537  0  3.373047  0
N  N30  1  0.22494798  0.45008155  0.48333628  1  0  -0.183873  -0.241563  0  3.242782  0
N  N31  1  0.77505609  0.54991697  0.51666465  1  0  -0.183896  -0.241618  0  3.242821  0
O  O32  1  0.40340774  0.80638073  0.99971341  1  0  -0.40219  -0.662046  0  2.242814  0
O  O33  1  0.59660385  0.19362045  0.00028839  1  0  -0.402191  -0.662119  0  2.24271  0
O  O34  1  0.86533700  0.73031256  0.88904404  1  0  -0.681855  -0.852682  0  2.063789  0
O  O35  1  0.13466063  0.26968862  0.11095659  1  0  -0.681853  -0.852697  0  2.063811  0
O  O36  1  0.33949292  0.67799291  0.19856096  1  0  -0.168954  -0.20532  0  2.533387  0
O  O37  1  0.66050561  0.32200694  0.80143924  1  0  -0.168967  -0.205371  0  2.533369  0
O  O38  1  0.99139732  0.98201262  0.22760653  1  0  -0.687998  -0.843882  0  2.101868  0
O  O39  1  0.00860341  0.01798855  0.77238944  1  0  -0.687966  -0.843866  0  2.10192  0
