# generated using pymatgen
data_CdH12C7N5ClO6
_symmetry_space_group_name_H-M   'P 1'
_cell_length_a   6.72764870
_cell_length_b   8.82386453
_cell_length_c   11.28309066
_cell_angle_alpha   87.76785747
_cell_angle_beta   77.06891728
_cell_angle_gamma   77.59905808
_symmetry_Int_Tables_number   1
_chemical_formula_structural   CdH12C7N5ClO6
_chemical_formula_sum   'Cd2 H24 C14 N10 Cl2 O12'
_cell_volume   637.56112454
_cell_formula_units_Z   2
loop_
 _symmetry_equiv_pos_site_id
 _symmetry_equiv_pos_as_xyz
  1  'x, y, z'
loop_
 _atom_site_type_symbol
 _atom_site_label
 _atom_site_symmetry_multiplicity
 _atom_site_fract_x
 _atom_site_fract_y
 _atom_site_fract_z
 _atom_site_occupancy
 _atom_site_hle17_bader_spin_density
 _atom_site_hle17_ddec_charge
 _atom_site_hle17_ddec_spin_density
 _atom_site_hle17_ddec_sum_bond_order
 _atom_site_hle17_magmom
 _atom_site_hse06_10hf_bader_charge
 _atom_site_hse06_10hf_bader_spin_density
 _atom_site_hse06_10hf_ddec_charge
 _atom_site_hse06_10hf_ddec_spin_density
 _atom_site_hse06_10hf_ddec_sum_bond_order
 _atom_site_hse06_10hf_magmom
 _atom_site_hse06_bader_spin_density
 _atom_site_hse06_ddec_charge
 _atom_site_hse06_ddec_spin_density
 _atom_site_hse06_ddec_sum_bond_order
 _atom_site_hse06_magmom
 _atom_site_pbe_bader_spin_density
 _atom_site_pbe_cm5_charge
 _atom_site_pbe_ddec_charge
 _atom_site_pbe_ddec_spin_density
 _atom_site_pbe_ddec_sum_bond_order
 _atom_site_pbe_magmom
Cd  Cd0  1  0.65855104  0.72508068  0.63607049  1  0  1.139753  0  1.655064  0  1.313913  0  0.952999  0  2.10685  0  0  1.009543  0  2.052207  0  0  0.702465  0.912603  0  2.143786  0
Cd  Cd1  1  0.34144854  0.27491984  0.36392961  1  0  1.139768  0  1.655039  0  1.313929  0  0.953  0  2.106846  0  0  1.009544  0  2.0522  0  0  0.702471  0.912605  0  2.143784  0
H  H2  1  0.86880246  0.40885613  0.58997721  1  0  0.413344  0  0.894225  0  0.63244  0  0.381493  0  0.960383  0  0  0.39247  0  0.944461  0  0  0.284517  0.373813  0  0.971477  0
H  H3  1  0.13119557  0.59114443  0.41002398  1  0  0.413285  0  0.894303  0  0.632444  0  0.381529  0  0.960326  0  0  0.392506  0  0.944404  0  0  0.28455  0.373849  0  0.971418  0
H  H4  1  0.65474982  0.39692976  0.56376960  1  0  0.430779  0  0.856535  0  0.662198  0  0.406347  0  0.90651  0  0  0.416794  0  0.891413  0  0  0.293439  0.398798  0  0.91754  0
H  H5  1  0.34524825  0.60307072  0.43622981  1  0  0.430931  0  0.856316  0  0.662211  0  0.406439  0  0.906385  0  0  0.416885  0  0.891291  0  0  0.293485  0.39889  0  0.917416  0
H  H6  1  0.27175117  0.50899549  0.95686189  1  0  0.124205  0  0.940593  0  0.092818  0  0.146269  0  0.995091  0  0  0.148427  0  0.993346  0  0  0.115117  0.145479  0  0.995553  0
H  H7  1  0.72825389  0.49100181  0.04314212  1  0  0.12419  0  0.940638  0  0.092785  0  0.146253  0  0.995123  0  0  0.148412  0  0.993378  0  0  0.115116  0.145452  0  0.995603  0
H  H8  1  0.05913079  0.57204508  0.08398469  1  0  0.100749  0  0.960368  0  0.056145  0  0.11652  0  1.032112  0  0  0.117503  0  1.031584  0  0  0.101199  0.116083  0  1.032474  0
H  H9  1  0.94087278  0.42795212  0.91601775  1  0  0.100744  0  0.960307  0  0.056143  0  0.11649  0  1.03209  0  0  0.117486  0  1.031549  0  0  0.101216  0.11605  0  1.032455  0
H  H10  1  0.31903697  0.51870266  0.10669839  1  0  0.118915  0  0.956309  0  0.107987  0  0.135776  0  1.021857  0  0  0.137015  0  1.021231  0  0  0.105494  0.135391  0  1.02224  0
H  H11  1  0.68096590  0.48129695  0.89330576  1  0  0.118792  0  0.956453  0  0.107902  0  0.135749  0  1.021917  0  0  0.136989  0  1.021289  0  0  0.105461  0.135362  0  1.022301  0
H  H12  1  0.08684989  0.69196587  0.23916352  1  0  0.304268  0  0.892353  0  0.516656  0  0.283782  0  0.96025  0  0  0.291466  0  0.954237  0  0  0.322395  0.279976  0  0.962094  0
H  H13  1  0.91314474  0.30803590  0.76083893  1  0  0.304269  0  0.892317  0  0.516648  0  0.283815  0  0.960202  0  0  0.291498  0  0.954189  0  0  0.322412  0.280015  0  0.962044  0
H  H14  1  0.24066244  0.71833104  0.61730693  1  0  0.40559  0  0.891152  0  0.62697  0  0.374579  0  0.962159  0  0  0.384881  0  0.947454  0  0  0.268523  0.36721  0  0.972705  0
H  H15  1  0.75933529  0.28167060  0.38269245  1  0  0.405596  0  0.891121  0  0.626994  0  0.374583  0  0.96215  0  0  0.384885  0  0.947445  0  0  0.268532  0.367214  0  0.972695  0
H  H16  1  0.31529548  0.85273978  0.52994662  1  0  0.427707  0  0.873555  0  0.671369  0  0.392041  0  0.945144  0  0  0.404105  0  0.927812  0  0  0.288843  0.383489  0  0.957363  0
H  H17  1  0.68470412  0.14726070  0.47005259  1  0  0.427729  0  0.873522  0  0.671374  0  0.392066  0  0.945109  0  0  0.404132  0  0.927774  0  0  0.288851  0.383513  0  0.957327  0
H  H18  1  0.20944681  0.25769743  0.03589408  1  0  0.341502  0  0.877796  0  0.49215  0  0.324132  0  0.940861  0  0  0.332018  0  0.934927  0  0  0.3024  0.318228  0  0.946096  0
H  H19  1  0.79055689  0.74229944  0.96410215  1  0  0.341485  0  0.877775  0  0.492113  0  0.32412  0  0.940831  0  0  0.332005  0  0.934898  0  0  0.302379  0.318217  0  0.946065  0
H  H20  1  0.34380763  0.21988974  0.87617790  1  0  0.343244  0  0.896759  0  0.539925  0  0.320539  0  0.960902  0  0  0.331064  0  0.950531  0  0  0.310953  0.313555  0  0.967215  0
H  H21  1  0.65619518  0.78010489  0.12382036  1  0  0.343235  0  0.896808  0  0.53995  0  0.32055  0  0.960927  0  0  0.331075  0  0.950554  0  0  0.310932  0.313559  0  0.967243  0
H  H22  1  0.92792506  0.02791323  0.28172142  1  0  0.100407  0  0.95973  0  0.125025  0  0.106385  0  1.034979  0  0  0.107442  0  1.035145  0  0  0.110261  0.106033  0  1.034032  0
H  H23  1  0.07206476  0.97208944  0.71827717  1  0  0.100353  0  0.959816  0  0.125141  0  0.106317  0  1.035069  0  0  0.107373  0  1.03524  0  0  0.110273  0.105965  0  1.034118  0
H  H24  1  0.13954856  0.94474908  0.34705985  1  0  0.121891  0  0.941073  0  0.159209  0  0.130385  0  1.009208  0  0  0.132016  0  1.008307  0  0  0.119867  0.129155  0  1.00976  0
H  H25  1  0.86044449  0.05525825  0.65293803  1  0  0.121875  0  0.941009  0  0.159146  0  0.13031  0  1.009189  0  0  0.131961  0  1.008267  0  0  0.119852  0.129082  0  1.009734  0
C  C26  1  0.22287810  0.57271395  0.04326513  1  0  -0.174701  0  3.630538  0  0.25234  0  -0.281082  0  3.885462  0  0  -0.276611  0  3.892123  0  0  -0.146799  -0.284607  0  3.880693  0
C  C27  1  0.77712545  0.42728330  0.95673819  1  0  -0.174562  0  3.630555  0  0.252531  0  -0.280967  0  3.885476  0  0  -0.276506  0  3.892122  0  0  -0.14678  -0.2845  0  3.880739  0
C  C28  1  0.17109356  0.84556572  0.10486397  1  0  0.557752  0  3.818869  0  1.703022  0  0.491491  0  4.111988  0  0  0.522384  0  4.116484  0  0  0.360819  0.470812  0  4.108386  0
C  C29  1  0.82890481  0.15443369  0.89513724  1  0  0.557739  0  3.818983  0  1.702993  0  0.491522  0  4.112068  0  0  0.522415  0  4.116562  0  0  0.360839  0.47085  0  4.108465  0
C  C30  1  0.26763624  0.03748488  0.97515060  1  0  0.500972  0  3.854972  0  1.195023  0  0.458755  0  4.137738  0  0  0.48641  0  4.144757  0  0  0.251639  0.440555  0  4.132128  0
C  C31  1  0.73236181  0.96251564  0.02484970  1  0  0.501069  0  3.854877  0  1.195235  0  0.458774  0  4.137751  0  0  0.48643  0  4.144766  0  0  0.251657  0.440573  0  4.132139  0
C  C32  1  0.36225815  0.92716372  0.87713047  1  0  -0.174033  0  3.766272  0  0.471396  0  -0.178652  0  4.042584  0  0  -0.200074  0  4.066906  0  0  0.063957  -0.165624  0  4.026344  0
C  C33  1  0.63774177  0.07283565  0.12286965  1  0  -0.174057  0  3.766408  0  0.4714  0  -0.178649  0  4.042687  0  0  -0.200075  0  4.067025  0  0  0.063988  -0.165624  0  4.026455  0
C  C34  1  0.35154533  0.76551369  0.89962515  1  0  0.497201  0  3.837997  0  1.381652  0  0.440583  0  4.129353  0  0  0.472041  0  4.131841  0  0  0.235941  0.419395  0  4.127576  0
C  C35  1  0.64845863  0.23448220  0.10037465  1  0  0.497116  0  3.83813  0  1.381569  0  0.440536  0  4.129463  0  0  0.471993  0  4.131948  0  0  0.235863  0.419347  0  4.127685  0
C  C36  1  0.00727645  0.91838037  0.31487268  1  0  -0.115825  0  3.650144  0  0.254311  0  -0.172811  0  3.902427  0  0  -0.172639  0  3.909895  0  0  -0.063882  -0.172641  0  3.896929  0
C  C37  1  0.99271300  0.08162356  0.68512765  1  0  -0.115631  0  3.650028  0  0.254303  0  -0.172539  0  3.902226  0  0  -0.172368  0  3.909662  0  0  -0.063844  -0.172387  0  3.896773  0
C  C38  1  0.86784047  0.85971896  0.42314787  1  0  0.679322  0  3.858897  0  1.627777  0  0.625019  0  4.161787  0  0  0.658306  0  4.156292  0  0  0.206089  0.602137  0  4.165262  0
C  C39  1  0.13215509  0.14028494  0.57685077  1  0  0.679062  0  3.859151  0  1.628136  0  0.62483  0  4.161917  0  0  0.658106  0  4.156442  0  0  0.206009  0.601953  0  4.165379  0
N  N40  1  0.24727371  0.73150692  0.01591401  1  0  -0.239511  0  3.415125  0  -1.251178  0  -0.144736  0  3.647376  0  0  -0.167998  0  3.664689  0  0  -0.249041  -0.128717  0  3.635217  0
N  N41  1  0.75272651  0.26849134  0.98408703  1  0  -0.239483  0  3.41511  0  -1.251218  0  -0.144792  0  3.647414  0  0  -0.168054  0  3.664731  0  0  -0.249031  -0.128773  0  3.635254  0
N  N42  1  0.08309001  0.80525579  0.21619822  1  0  -0.365015  0  3.312744  0  -1.285658  0  -0.304489  0  3.561837  0  0  -0.32545  0  3.571007  0  0  -0.395234  -0.29091  0  3.554514  0
N  N43  1  0.91690466  0.19474588  0.78380245  1  0  -0.365045  0  3.312757  0  -1.285619  0  -0.304582  0  3.561781  0  0  -0.325542  0  3.570958  0  0  -0.395264  -0.290987  0  3.554415  0
N  N44  1  0.17772749  0.99398956  0.08510123  1  0  -0.537204  0  3.052048  0  -1.309504  0  -0.505876  0  3.351066  0  0  -0.530734  0  3.359469  0  0  -0.347794  -0.489601  0  3.344843  0
N  N45  1  0.82227212  0.00601087  0.91489710  1  0  -0.537226  0  3.052005  0  -1.309484  0  -0.505897  0  3.351055  0  0  -0.530755  0  3.359455  0  0  -0.347819  -0.489621  0  3.344829  0
N  N46  1  0.27162810  0.18794386  0.96046945  1  0  -0.625433  0  3.103323  0  -1.334494  0  -0.588701  0  3.347379  0  0  -0.610732  0  3.342074  0  0  -0.550498  -0.573408  0  3.350597  0
N  N47  1  0.72837674  0.81205431  0.03952921  1  0  -0.625468  0  3.103281  0  -1.334699  0  -0.588733  0  3.347363  0  0  -0.610764  0  3.342055  0  0  -0.550507  -0.573437  0  3.350582  0
N  N48  1  0.47149955  0.95748864  0.76611758  1  0  0.007633  0  3.236917  0  -0.350424  0  0.042928  0  3.529721  0  0  0.053245  0  3.537217  0  0  -0.160981  0.037218  0  3.524101  0
N  N49  1  0.52849953  0.04250835  0.23388191  1  0  0.007665  0  3.236803  0  -0.350358  0  0.043  0  3.529575  0  0  0.053317  0  3.537063  0  0  -0.160976  0.037277  0  3.523957  0
Cl  Cl50  1  0.96755652  0.66808413  0.74371241  1  0  -0.618348  0  0.821941  0  -0.692897  0  -0.556713  0  1.069714  0  0  -0.573694  0  1.047781  0  0  -0.321755  -0.545094  0  1.083929  0
Cl  Cl51  1  0.03244580  0.33191746  0.25628549  1  0  -0.618372  0  0.821953  0  -0.69291  0  -0.55673  0  1.06973  0  0  -0.573711  0  1.047796  0  0  -0.32176  -0.545104  0  1.083928  0
O  O52  1  0.71670953  0.45217759  0.61611791  1  0  -0.824481  0  1.863454  0  -1.273484  0  -0.761215  0  2.04375  0  0  -0.783529  0  2.010645  0  0  -0.594965  -0.745474  0  2.066729  0
O  O53  1  0.28328854  0.54782288  0.38388150  1  0  -0.824555  0  1.863384  0  -1.273487  0  -0.761334  0  2.043633  0  0  -0.783647  0  2.010523  0  0  -0.59504  -0.745595  0  2.066613  0
O  O54  1  0.35888431  0.74095034  0.55364665  1  0  -0.81465  0  1.902988  0  -1.280361  0  -0.741403  0  2.086569  0  0  -0.76528  0  2.051904  0  0  -0.563489  -0.724375  0  2.110931  0
O  O55  1  0.64111188  0.25905133  0.44635382  1  0  -0.814647  0  1.902947  0  -1.280378  0  -0.741423  0  2.086549  0  0  -0.765299  0  2.051879  0  0  -0.56351  -0.724394  0  2.110908  0
O  O56  1  0.48511562  0.09651892  0.73925563  1  0  -0.315755  0  1.846471  0  -0.524293  0  -0.271132  0  2.055302  0  0  -0.28454  0  2.054211  0  0  -0.140548  -0.262644  0  2.056107  0
O  O57  1  0.51489059  0.90347452  0.26074136  1  0  -0.315795  0  1.846392  0  -0.524384  0  -0.271198  0  2.05521  0  0  -0.284594  0  2.054102  0  0  -0.140549  -0.262679  0  2.05598  0
O  O58  1  0.42987988  0.65836255  0.82365566  1  0  -0.535556  0  2.067913  0  -1.169835  0  -0.481182  0  2.312138  0  0  -0.506154  0  2.305169  0  0  -0.282246  -0.465029  0  2.316647  0
O  O59  1  0.57012440  0.34163223  0.17634506  1  0  -0.535489  0  2.067859  0  -1.169764  0  -0.481113  0  2.312045  0  0  -0.506087  0  2.305082  0  0  -0.282198  -0.464962  0  2.316562  0
O  O60  1  0.88120520  0.71380675  0.43642126  1  0  -0.644902  0  2.006159  0  -1.199189  0  -0.573488  0  2.239607  0  0  -0.602496  0  2.229117  0  0  -0.320282  -0.553871  0  2.246585  0
O  O61  1  0.11878962  0.28619966  0.56358088  1  0  -0.644806  0  2.006186  0  -1.19925  0  -0.573403  0  2.239607  0  0  -0.602414  0  2.229127  0  0  -0.320208  -0.553788  0  2.246582  0
O  O62  1  0.74991010  0.95873707  0.50054515  1  0  -0.62982  0  2.018482  0  -1.211051  0  -0.568553  0  2.259036  0  0  -0.597229  0  2.250522  0  0  -0.306408  -0.547952  0  2.264093  0
O  O63  1  0.25008695  0.04126693  0.49945507  1  0  -0.629767  0  2.018659  0  -1.211359  0  -0.568511  0  2.259159  0  0  -0.597168  0  2.250635  0  0  -0.3064  -0.547906  0  2.264211  0
