# generated using pymatgen
data_Cu2H9C14S2N5
_symmetry_space_group_name_H-M   'P 1'
_cell_length_a   5.83503401
_cell_length_b   8.53599805
_cell_length_c   14.15270915
_cell_angle_alpha   90.00098801
_cell_angle_beta   90.00022156
_cell_angle_gamma   96.29920569
_symmetry_Int_Tables_number   1
_chemical_formula_structural   Cu2H9C14S2N5
_chemical_formula_sum   'Cu4 H18 C28 S4 N10'
_cell_volume   700.65991137
_cell_formula_units_Z   2
loop_
 _symmetry_equiv_pos_site_id
 _symmetry_equiv_pos_as_xyz
  1  'x, y, z'
loop_
 _atom_site_type_symbol
 _atom_site_label
 _atom_site_symmetry_multiplicity
 _atom_site_fract_x
 _atom_site_fract_y
 _atom_site_fract_z
 _atom_site_occupancy
 _atom_site_hle17_bader_spin_density
 _atom_site_hle17_ddec_charge
 _atom_site_hle17_ddec_spin_density
 _atom_site_hle17_ddec_sum_bond_order
 _atom_site_hle17_magmom
 _atom_site_hse06_10hf_bader_spin_density
 _atom_site_hse06_10hf_ddec_charge
 _atom_site_hse06_10hf_ddec_spin_density
 _atom_site_hse06_10hf_ddec_sum_bond_order
 _atom_site_hse06_10hf_magmom
 _atom_site_hse06_bader_spin_density
 _atom_site_hse06_ddec_charge
 _atom_site_hse06_ddec_spin_density
 _atom_site_hse06_ddec_sum_bond_order
 _atom_site_hse06_magmom
 _atom_site_pbe_bader_spin_density
 _atom_site_pbe_cm5_charge
 _atom_site_pbe_ddec_charge
 _atom_site_pbe_ddec_spin_density
 _atom_site_pbe_ddec_sum_bond_order
 _atom_site_pbe_magmom
Cu  Cu0  1  0.30431680  0.91852959  0.16371749  1  0  0.459105  0  2.125192  0  0  0.377541  0  2.626597  0  0  0.368724  0  2.588221  0  0  0.4844  0.386897  0  2.649859  0
Cu  Cu1  1  0.69570589  0.08147214  0.66371324  1  0  0.459108  0  2.125145  0  0  0.377553  0  2.626552  0  0  0.368742  0  2.58818  0  0  0.484366  0.386909  0  2.649816  0
Cu  Cu2  1  0.97612052  0.89265795  0.40628128  1  0  0.44238  0  2.100213  0  0  0.35025  0  2.602009  0  0  0.342767  0  2.562311  0  0  0.483977  0.358834  0  2.626365  0
Cu  Cu3  1  0.02388091  0.10734074  0.90627847  1  0  0.442336  0  2.100172  0  0  0.350209  0  2.601967  0  0  0.342721  0  2.562253  0  0  0.483952  0.358778  0  2.626275  0
H  H4  1  0.84626261  0.83574571  0.07393413  1  0  0.10666  0  0.975673  0  0  0.118616  0  1.036446  0  0  0.120637  0  1.03539  0  0  0.096653  0.117017  0  1.037418  0
H  H5  1  0.15373257  0.16424886  0.57394017  1  0  0.106718  0  0.975554  0  0  0.118667  0  1.036321  0  0  0.12068  0  1.035283  0  0  0.096692  0.11707  0  1.037295  0
H  H6  1  0.51968420  0.67527026  0.99762848  1  0  0.085441  0  0.981599  0  0  0.094568  0  1.047552  0  0  0.096299  0  1.048596  0  0  0.089768  0.09328  0  1.046971  0
H  H7  1  0.48030657  0.32472274  0.49763339  1  0  0.08548  0  0.981568  0  0  0.09461  0  1.047519  0  0  0.096338  0  1.048569  0  0  0.089811  0.093324  0  1.046943  0
H  H8  1  0.48138678  0.38270228  0.00473780  1  0  0.087895  0  0.970641  0  0  0.098749  0  1.032557  0  0  0.100345  0  1.033728  0  0  0.09457  0.097592  0  1.031823  0
H  H9  1  0.51859942  0.61728948  0.50474179  1  0  0.08794  0  0.970538  0  0  0.098732  0  1.032505  0  0  0.100324  0  1.033683  0  0  0.094616  0.097577  0  1.031776  0
H  H10  1  0.76996488  0.24250516  0.08945651  1  0  0.113044  0  0.991311  0  0  0.120964  0  1.055745  0  0  0.122941  0  1.055308  0  0  0.100256  0.119427  0  1.056288  0
H  H11  1  0.23004181  0.75749121  0.58945919  1  0  0.113065  0  0.991407  0  0  0.120989  0  1.055828  0  0  0.122965  0  1.055392  0  0  0.100283  0.119455  0  1.056374  0
H  H12  1  0.53502188  0.80482443  0.29897748  1  0  0.078852  0  0.993329  0  0  0.083483  0  1.068321  0  0  0.087452  0  1.06308  0  0  0.109933  0.080344  0  1.072321  0
H  H13  1  0.46497759  0.19518168  0.79897813  1  0  0.078861  0  0.993363  0  0  0.083491  0  1.068367  0  0  0.087449  0  1.06314  0  0  0.109952  0.080349  0  1.072363  0
H  H14  1  0.03814019  0.55951776  0.41884574  1  0  0.073078  0  0.975551  0  0  0.080272  0  1.045668  0  0  0.082515  0  1.044134  0  0  0.108969  0.078524  0  1.046957  0
H  H15  1  0.96185480  0.44048735  0.91884206  1  0  0.073059  0  0.975554  0  0  0.080256  0  1.045682  0  0  0.082475  0  1.044186  0  0  0.108957  0.078507  0  1.046952  0
H  H16  1  0.83812069  0.30171102  0.36404476  1  0  0.100569  0  0.97813  0  0  0.107244  0  1.045141  0  0  0.108915  0  1.047403  0  0  0.096998  0.105969  0  1.043817  0
H  H17  1  0.16187423  0.69829775  0.86404000  1  0  0.100671  0  0.978175  0  0  0.107338  0  1.04517  0  0  0.109009  0  1.047431  0  0  0.097042  0.106056  0  1.043845  0
H  H18  1  0.49133995  0.29918736  0.26271583  1  0  0.098826  0  0.954115  0  0  0.1113  0  1.014079  0  0  0.113604  0  1.012255  0  0  0.106763  0.109453  0  1.015594  0
H  H19  1  0.50865709  0.70081373  0.76271444  1  0  0.098793  0  0.954118  0  0  0.111271  0  1.014093  0  0  0.113575  0  1.012268  0  0  0.106754  0.10942  0  1.015605  0
H  H20  1  0.16913600  0.31109820  0.20546910  1  0  0.282442  0  0.942105  0  0  0.264705  0  1.011588  0  0  0.270895  0  1.007719  0  0  0.293074  0.26032  0  1.014366  0
H  H21  1  0.83086583  0.68890409  0.70547214  1  0  0.282406  0  0.942096  0  0  0.264697  0  1.011558  0  0  0.270888  0  1.007688  0  0  0.293075  0.260309  0  1.014342  0
C  C22  1  0.99902974  0.62922209  0.12403872  1  0  0.139162  0  3.805058  0  0  0.140453  0  4.04394  0  0  0.142208  0  4.068697  0  0  0.080149  0.13929  0  4.027385  0
C  C23  1  0.00096536  0.37077688  0.62404254  1  0  0.139125  0  3.805257  0  0  0.140419  0  4.044139  0  0  0.142175  0  4.068898  0  0  0.080143  0.139257  0  4.027586  0
C  C24  1  0.83520814  0.70778514  0.07613263  1  0  -0.136305  0  3.72819  0  0  -0.152897  0  3.973637  0  0  -0.155424  0  3.995199  0  0  -0.098088  -0.151277  0  3.959308  0
C  C25  1  0.16478979  0.29220598  0.57613870  1  0  -0.136201  0  3.727831  0  0  -0.152771  0  3.973307  0  0  -0.1553  0  3.994865  0  0  -0.098076  -0.15115  0  3.958989  0
C  C26  1  0.65129263  0.61646012  0.03360874  1  0  -0.079568  0  3.774649  0  0  -0.095912  0  4.030276  0  0  -0.099132  0  4.054364  0  0  -0.103893  -0.093674  0  4.013962  0
C  C27  1  0.34869745  0.38353281  0.53361527  1  0  -0.079768  0  3.774628  0  0  -0.096125  0  4.030298  0  0  -0.099341  0  4.054383  0  0  -0.103996  -0.093887  0  4.014001  0
C  C28  1  0.62849952  0.45046034  0.03814444  1  0  -0.069171  0  3.770826  0  0  -0.086  0  4.026122  0  0  -0.088687  0  4.05004  0  0  -0.10082  -0.084075  0  4.009808  0
C  C29  1  0.37149473  0.54952805  0.53814709  1  0  -0.069115  0  3.770677  0  0  -0.08588  0  4.025993  0  0  -0.088567  0  4.049912  0  0  -0.100828  -0.083955  0  4.009697  0
C  C30  1  0.78875461  0.37028256  0.08578766  1  0  -0.165721  0  3.76129  0  0  -0.182017  0  4.012763  0  0  -0.184975  0  4.032417  0  0  -0.101483  -0.180047  0  3.999665  0
C  C31  1  0.21124101  0.62971839  0.58579093  1  0  -0.165759  0  3.761167  0  0  -0.182042  0  4.01263  0  0  -0.185006  0  4.032291  0  0  -0.101475  -0.180071  0  3.999536  0
C  C32  1  0.97292613  0.46243952  0.12802398  1  0  0.158467  0  3.811694  0  0  0.153197  0  4.048241  0  0  0.15631  0  4.072587  0  0  0.093946  0.151103  0  4.031829  0
C  C33  1  0.02706575  0.53756198  0.62802819  1  0  0.158496  0  3.811697  0  0  0.153246  0  4.048265  0  0  0.156357  0  4.072617  0  0  0.093967  0.151153  0  4.031857  0
C  C34  1  0.28256638  0.55955079  0.21039380  1  0  0.353585  0  3.730445  0  0  0.320309  0  3.99615  0  0  0.337969  0  4.008953  0  0  0.228248  0.309081  0  3.98708  0
C  C35  1  0.71743067  0.44045524  0.71039503  1  0  0.353542  0  3.730298  0  0  0.320291  0  3.996105  0  0  0.337951  0  4.00891  0  0  0.22825  0.309068  0  3.98702  0
C  C36  1  0.48537624  0.55447676  0.27024146  1  0  -0.054743  0  3.772239  0  0  -0.029457  0  4.001677  0  0  -0.037508  0  4.024329  0  0  0.001091  -0.024982  0  3.987216  0
C  C37  1  0.51462067  0.44552581  0.77024388  1  0  -0.054637  0  3.771959  0  0  -0.029469  0  4.00159  0  0  -0.037508  0  4.024206  0  0  0.001112  -0.024996  0  3.98712  0
C  C38  1  0.60161876  0.69216394  0.30919756  1  0  0.112699  0  3.624497  0  0  0.074557  0  3.871113  0  0  0.082414  0  3.885974  0  0  0.049458  0.06911  0  3.862484  0
C  C39  1  0.39837645  0.30784023  0.80919937  1  0  0.112671  0  3.624509  0  0  0.07455  0  3.871129  0  0  0.082404  0  3.886022  0  0  0.049454  0.069102  0  3.862495  0
C  C40  1  0.87946056  0.55409555  0.37785638  1  0  0.127379  0  3.65678  0  0  0.094262  0  3.911675  0  0  0.104111  0  3.923415  0  0  0.039195  0.087865  0  3.904154  0
C  C41  1  0.12053470  0.44590906  0.87785560  1  0  0.127412  0  3.656754  0  0  0.094295  0  3.911615  0  0  0.104151  0  3.923358  0  0  0.039178  0.087905  0  3.904074  0
C  C42  1  0.76860997  0.41137049  0.34630454  1  0  -0.106569  0  3.731475  0  0  -0.116214  0  3.980835  0  0  -0.123494  0  4.000946  0  0  -0.0854  -0.111897  0  3.96779  0
C  C43  1  0.23138152  0.58863284  0.84630432  1  0  -0.106756  0  3.731605  0  0  -0.116407  0  3.98099  0  0  -0.123689  0  4.001098  0  0  -0.085502  -0.112091  0  3.967931  0
C  C44  1  0.57208436  0.41089955  0.29056495  1  0  -0.027507  0  3.666748  0  0  -0.055058  0  3.909098  0  0  -0.048837  0  3.925207  0  0  -0.062593  -0.058914  0  3.898426  0
C  C45  1  0.42791014  0.58910504  0.79056632  1  0  -0.027457  0  3.666645  0  0  -0.054973  0  3.909036  0  0  -0.048749  0  3.925146  0  0  -0.062559  -0.058827  0  3.898355  0
C  C46  1  0.79988311  0.03419531  0.21877701  1  0  0.285281  0  3.929275  0  0  0.274354  0  4.228344  0  0  0.291398  0  4.238599  0  0  0.146631  0.262863  0  4.221284  0
C  C47  1  0.20014060  0.96580867  0.71877115  1  0  0.285341  0  3.929189  0  0  0.274414  0  4.228266  0  0  0.291464  0  4.238511  0  0  0.146637  0.262922  0  4.221206  0
C  C48  1  0.52067975  0.02784617  0.96688443  1  0  0.302248  0  3.906506  0  0  0.295853  0  4.190104  0  0  0.311322  0  4.203394  0  0  0.148918  0.285523  0  4.180865  0
C  C49  1  0.47932153  0.97215971  0.46688675  1  0  0.302222  0  3.906462  0  0  0.295818  0  4.190081  0  0  0.31129  0  4.203367  0  0  0.148915  0.285495  0  4.180862  0
S  S50  1  0.06472602  0.05572089  0.25912263  1  0  -0.328759  0  2.642039  0  0  -0.307332  0  3.08279  0  0  -0.306592  0  3.053832  0  0  -0.154637  -0.308542  0  3.101978  0
S  S51  1  0.93529383  0.94428238  0.75911609  1  0  -0.328739  0  2.642131  0  0  -0.307299  0  3.082851  0  0  -0.30656  0  3.053892  0  0  -0.154609  -0.308501  0  3.102022  0
S  S52  1  0.25480962  0.96336216  0.99681434  1  0  -0.345933  0  2.722255  0  0  -0.326256  0  3.187121  0  0  -0.325386  0  3.158309  0  0  -0.17856  -0.327499  0  3.205808  0
S  S53  1  0.74519322  0.03665201  0.49681039  1  0  -0.345933  0  2.72243  0  0  -0.326246  0  3.187315  0  0  -0.325385  0  3.158523  0  0  -0.178564  -0.327494  0  3.206043  0
N  N54  1  0.19494820  0.68671285  0.17495585  1  0  -0.434621  0  3.227651  0  0  -0.381357  0  3.539185  0  0  -0.394935  0  3.545089  0  0  -0.368112  -0.372979  0  3.534869  0
N  N55  1  0.80505876  0.31329054  0.67495892  1  0  -0.434734  0  3.227864  0  0  -0.381482  0  3.539468  0  0  -0.39506  0  3.545369  0  0  -0.368134  -0.373109  0  3.535149  0
N  N56  1  0.15401673  0.42341393  0.18214301  1  0  -0.38268  0  3.421845  0  0  -0.321526  0  3.643882  0  0  -0.340837  0  3.660625  0  0  -0.380752  -0.308548  0  3.632142  0
N  N57  1  0.84598249  0.57658623  0.68214780  1  0  -0.382589  0  3.421869  0  0  -0.321501  0  3.643987  0  0  -0.340813  0  3.660734  0  0  -0.380795  -0.30852  0  3.632235  0
N  N58  1  0.79749228  0.69350927  0.35989713  1  0  -0.293002  0  3.360028  0  0  -0.221885  0  3.660685  0  0  -0.232524  0  3.667021  0  0  -0.358248  -0.215723  0  3.65656  0
N  N59  1  0.20250509  0.30649225  0.85989594  1  0  -0.292982  0  3.360047  0  0  -0.221838  0  3.660664  0  0  -0.23247  0  3.66698  0  0  -0.35822  -0.215677  0  3.656514  0
N  N60  1  0.60610618  0.01296539  0.19291011  1  0  -0.49301  0  3.128176  0  0  -0.447378  0  3.456474  0  0  -0.456197  0  3.454552  0  0  -0.430377  -0.442166  0  3.457196  0
N  N61  1  0.39391599  0.98703163  0.69291015  1  0  -0.493066  0  3.1279  0  0  -0.447439  0  3.456172  0  0  -0.456257  0  3.45425  0  0  -0.430379  -0.442233  0  3.456896  0
N  N62  1  0.71320373  0.07181077  0.94612497  1  0  -0.489514  0  3.133863  0  0  -0.437382  0  3.458355  0  0  -0.446276  0  3.456878  0  0  -0.43004  -0.432159  0  3.458801  0
N  N63  1  0.28679445  0.92819073  0.44612765  1  0  -0.489519  0  3.133735  0  0  -0.437382  0  3.458227  0  0  -0.446276  0  3.456752  0  0  -0.430014  -0.432159  0  3.458699  0
