# generated using pymatgen
data_PH14AuC11S2O
_symmetry_space_group_name_H-M   'P 1'
_cell_length_a   11.62678150
_cell_length_b   12.46368641
_cell_length_c   12.63727666
_cell_angle_alpha   119.47860522
_cell_angle_beta   117.33883956
_cell_angle_gamma   90.07494723
_symmetry_Int_Tables_number   1
_chemical_formula_structural   PH14AuC11S2O
_chemical_formula_sum   'P4 H56 Au4 C44 S8 O4'
_cell_volume   1353.59447180
_cell_formula_units_Z   4
loop_
 _symmetry_equiv_pos_site_id
 _symmetry_equiv_pos_as_xyz
  1  'x, y, z'
loop_
 _atom_site_type_symbol
 _atom_site_label
 _atom_site_symmetry_multiplicity
 _atom_site_fract_x
 _atom_site_fract_y
 _atom_site_fract_z
 _atom_site_occupancy
 _atom_site_pbe_bader_spin_density
 _atom_site_pbe_cm5_charge
 _atom_site_pbe_ddec_charge
 _atom_site_pbe_ddec_spin_density
 _atom_site_pbe_ddec_sum_bond_order
 _atom_site_pbe_magmom
P  P0  1  0.09382949  0.29910765  0.18770848  1  0  0.20594  0.688724  0  5.041081  0
P  P1  1  0.90616904  0.70089123  0.81228961  1  0  0.205985  0.68874  0  5.041149  0
P  P2  1  0.40578325  0.11175075  0.81248531  1  0  0.204935  0.687498  0  5.043924  0
P  P3  1  0.59421924  0.88824524  0.18751070  1  0  0.204927  0.68751  0  5.04409  0
H  H4  1  0.95135309  0.12457928  0.90213675  1  0  0.075267  0.009185  0  1.089597  0
H  H5  1  0.04864690  0.87542440  0.09786187  1  0  0.075271  0.009154  0  1.089552  0
H  H6  1  0.54851362  0.22256747  0.09808150  1  0  0.075404  0.009476  0  1.089022  0
H  H7  1  0.45149121  0.77742665  0.90192014  1  0  0.075441  0.009535  0  1.089057  0
H  H8  1  0.75009151  0.13549870  0.73631862  1  0  0.085905  0.089599  0  1.017852  0
H  H9  1  0.01347323  0.86409229  0.26383226  1  0  0.086043  0.089224  0  1.016742  0
H  H10  1  0.74989242  0.39935836  0.26382148  1  0  0.085716  0.089143  0  1.018071  0
H  H11  1  0.48674125  0.60036958  0.73607040  1  0  0.08608  0.089437  0  1.01767  0
H  H12  1  0.24990751  0.86450496  0.26367800  1  0  0.085903  0.089586  0  1.017908  0
H  H13  1  0.98652814  0.13591911  0.73617223  1  0  0.086043  0.089245  0  1.016792  0
H  H14  1  0.25010954  0.60064542  0.73618752  1  0  0.085731  0.089203  0  1.018147  0
H  H15  1  0.51325524  0.39962259  0.26392758  1  0  0.086117  0.089526  0  1.017605  0
H  H16  1  0.76846189  0.25565817  0.90019820  1  0  0.086609  0.093476  0  1.018161  0
H  H17  1  0.86775928  0.74415381  0.09992454  1  0  0.086579  0.093483  0  1.018706  0
H  H18  1  0.73143867  0.35572536  0.09984016  1  0  0.086571  0.093475  0  1.017545  0
H  H19  1  0.63231661  0.64440436  0.90009250  1  0  0.086613  0.093783  0  1.018416  0
H  H20  1  0.23153878  0.74434457  0.09980264  1  0  0.086618  0.093502  0  1.01813  0
H  H21  1  0.13224092  0.25585375  0.90007920  1  0  0.086623  0.093558  0  1.018622  0
H  H22  1  0.26856435  0.64427553  0.90016712  1  0  0.086621  0.093581  0  1.017493  0
H  H23  1  0.36768259  0.35558396  0.09990399  1  0  0.086608  0.0938  0  1.018489  0
H  H24  1  0.84116259  0.42619470  0.88182390  1  0  0.085407  0.081114  0  1.005935  0
H  H25  1  0.95864156  0.57320664  0.11695553  1  0  0.085318  0.080813  0  1.006058  0
H  H26  1  0.65896913  0.54447319  0.11812197  1  0  0.085272  0.080909  0  1.005805  0
H  H27  1  0.54123139  0.45638312  0.88312487  1  0  0.085278  0.0806  0  1.006185  0
H  H28  1  0.15883703  0.57381096  0.11818106  1  0  0.085453  0.08117  0  1.005888  0
H  H29  1  0.04136107  0.42680572  0.88304917  1  0  0.08536  0.080811  0  1.005997  0
H  H30  1  0.34102058  0.45551895  0.88187312  1  0  0.085301  0.08093  0  1.005739  0
H  H31  1  0.45875967  0.54360711  0.11687067  1  0  0.085299  0.080608  0  1.006178  0
H  H32  1  0.74767059  0.30410977  0.69787509  1  0  0.081576  0.076512  0  1.014626  0
H  H33  1  0.04812192  0.69460538  0.30111383  1  0  0.081471  0.07613  0  1.014479  0
H  H34  1  0.75241640  0.60626452  0.30210026  1  0  0.081552  0.076489  0  1.01445  0
H  H35  1  0.45177124  0.39368154  0.69892797  1  0  0.081472  0.076112  0  1.014361  0
H  H36  1  0.25233117  0.69589973  0.30213023  1  0  0.081559  0.076513  0  1.014614  0
H  H37  1  0.95187605  0.30540121  0.69888851  1  0  0.081423  0.076057  0  1.014529  0
H  H38  1  0.24757719  0.39373723  0.69789791  1  0  0.081577  0.076566  0  1.014465  0
H  H39  1  0.54822079  0.60630868  0.30106639  1  0  0.081476  0.076146  0  1.014396  0
H  H40  1  0.36463386  0.47505534  0.35753481  1  0  0.101011  0.105533  0  1.023557  0
H  H41  1  0.00673261  0.52477797  0.64182481  1  0  0.101056  0.105803  0  1.022488  0
H  H42  1  0.13529399  0.11740985  0.64262173  1  0  0.10108  0.10574  0  1.02372  0
H  H43  1  0.49355124  0.88281802  0.35839719  1  0  0.101087  0.105915  0  1.022151  0
H  H44  1  0.63536449  0.52494931  0.64246517  1  0  0.100988  0.10547  0  1.023647  0
H  H45  1  0.99326243  0.47521897  0.35817087  1  0  0.101034  0.10571  0  1.022539  0
H  H46  1  0.86470841  0.88258902  0.35737482  1  0  0.101064  0.105674  0  1.023728  0
H  H47  1  0.50645274  0.11718283  0.64160573  1  0  0.101099  0.10587  0  1.022356  0
H  H48  1  0.47282874  0.69959775  0.57434369  1  0  0.092582  0.094819  0  1.036675  0
H  H49  1  0.89737142  0.30016566  0.42490347  1  0  0.092796  0.094877  0  1.037103  0
H  H50  1  0.02707477  0.12530850  0.42572088  1  0  0.092478  0.094737  0  1.037186  0
H  H51  1  0.60305455  0.87524205  0.57558659  1  0  0.092666  0.094637  0  1.036779  0
H  H52  1  0.52716905  0.30040505  0.42566309  1  0  0.092548  0.094803  0  1.036737  0
H  H53  1  0.10262140  0.69983034  0.57509399  1  0  0.092804  0.094878  0  1.037077  0
H  H54  1  0.97293607  0.87469902  0.57427784  1  0  0.092494  0.094734  0  1.03713  0
H  H55  1  0.39695928  0.12475303  0.42441377  1  0  0.092651  0.094583  0  1.036814  0
H  H56  1  0.34144295  0.81133285  0.68180511  1  0  0.077596  0.069458  0  1.115957  0
H  H57  1  0.65855309  0.18866421  0.31820213  1  0  0.077579  0.069487  0  1.115963  0
H  H58  1  0.15842038  0.12974483  0.31809583  1  0  0.076955  0.068594  0  1.117747  0
H  H59  1  0.84159229  0.87025598  0.68190282  1  0  0.076944  0.068581  0  1.11776  0
Au  Au60  1  0.12660611  0.00015146  0.00053331  1  0  0.229497  0.093707  0  3.139122  0
Au  Au61  1  0.37355891  0.99965329  0.99963537  1  0  0.22941  0.093476  0  3.140668  0
Au  Au62  1  0.87339047  0.99984735  0.99945838  1  0  0.229475  0.093656  0  3.13918  0
Au  Au63  1  0.62644029  0.00034462  0.00036096  1  0  0.229438  0.093462  0  3.14083  0
C  C64  1  0.95458876  0.21607391  0.90866228  1  0  0.004569  0.221756  0  3.772944  0
C  C65  1  0.04540922  0.78393269  0.09134086  1  0  0.004673  0.221899  0  3.773013  0
C  C66  1  0.54534094  0.30752299  0.09150071  1  0  0.004733  0.221871  0  3.772212  0
C  C67  1  0.45466196  0.69247113  0.90850011  1  0  0.004675  0.221641  0  3.772515  0
C  C68  1  0.81458595  0.23057060  0.83558182  1  0  -0.172368  -0.218498  0  3.893888  0
C  C69  1  0.97845983  0.76914322  0.16436748  1  0  -0.17282  -0.217948  0  3.894086  0
C  C70  1  0.68538650  0.39517400  0.16453109  1  0  -0.172268  -0.21812  0  3.893063  0
C  C71  1  0.52160340  0.60485054  0.83555255  1  0  -0.173072  -0.219253  0  3.895899  0
C  C72  1  0.18541366  0.76943502  0.16441995  1  0  -0.172426  -0.218599  0  3.893987  0
C  C73  1  0.02154317  0.23086720  0.83563407  1  0  -0.172827  -0.218036  0  3.894041  0
C  C74  1  0.31461264  0.60482686  0.83547295  1  0  -0.172337  -0.218286  0  3.893179  0
C  C75  1  0.47839028  0.39513872  0.16444204  1  0  -0.173096  -0.219415  0  3.895759  0
C  C76  1  0.83410362  0.32971979  0.80136193  1  0  -0.16888  -0.130092  0  3.862348  0
C  C77  1  0.03187362  0.66978637  0.19812603  1  0  -0.168619  -0.128913  0  3.862356  0
C  C78  1  0.66596167  0.52841183  0.19861459  1  0  -0.168678  -0.129712  0  3.861078  0
C  C79  1  0.46805770  0.47177236  0.80191247  1  0  -0.168441  -0.128312  0  3.861838  0
C  C80  1  0.16589562  0.67028778  0.19864220  1  0  -0.168931  -0.130157  0  3.862359  0
C  C81  1  0.96812339  0.33022023  0.80187828  1  0  -0.168638  -0.128829  0  3.86244  0
C  C82  1  0.33402832  0.47158122  0.80137631  1  0  -0.168744  -0.129823  0  3.861036  0
C  C83  1  0.53193803  0.52822366  0.19808702  1  0  -0.168504  -0.128423  0  3.861793  0
C  C84  1  0.17247870  0.46127450  0.34492505  1  0  -0.021832  -0.101906  0  3.985585  0
C  C85  1  0.82751858  0.53872345  0.65507602  1  0  -0.021831  -0.101909  0  3.985532  0
C  C86  1  0.32739266  0.11662855  0.65517324  1  0  -0.021632  -0.101069  0  3.985556  0
C  C87  1  0.67261518  0.88337227  0.34482734  1  0  -0.021687  -0.101145  0  3.985595  0
C  C88  1  0.30749135  0.52435738  0.40539173  1  0  -0.077033  -0.067524  0  3.944966  0
C  C89  1  0.90170907  0.47554400  0.59422384  1  0  -0.076928  -0.067816  0  3.943931  0
C  C90  1  0.19238388  0.11907039  0.59468375  1  0  -0.077301  -0.068108  0  3.946167  0
C  C91  1  0.59850738  0.88117474  0.40590695  1  0  -0.077235  -0.06831  0  3.944198  0
C  C92  1  0.69250769  0.47564637  0.59461366  1  0  -0.077027  -0.067422  0  3.944866  0
C  C93  1  0.09828665  0.52445201  0.40577485  1  0  -0.076905  -0.067726  0  3.943854  0
C  C94  1  0.80761969  0.88093231  0.40531276  1  0  -0.077216  -0.067917  0  3.94611  0
C  C95  1  0.40150347  0.11882326  0.59409830  1  0  -0.077231  -0.068261  0  3.944143  0
C  C96  1  0.36776622  0.65023011  0.52659045  1  0  -0.088405  -0.080904  0  3.986179  0
C  C97  1  0.84041230  0.34967919  0.47301189  1  0  -0.08855  -0.080736  0  3.98701  0
C  C98  1  0.13208426  0.12374504  0.47345045  1  0  -0.08871  -0.081046  0  3.987112  0
C  C99  1  0.65985994  0.87661016  0.52726105  1  0  -0.088482  -0.08024  0  3.987682  0
C  C100  1  0.63223166  0.34976980  0.47341498  1  0  -0.088362  -0.080951  0  3.986175  0
C  C101  1  0.15958372  0.65031779  0.52698739  1  0  -0.088567  -0.080756  0  3.986923  0
C  C102  1  0.86792474  0.87625962  0.52655009  1  0  -0.088638  -0.080957  0  3.986891  0
C  C103  1  0.34014546  0.12338583  0.47273460  1  0  -0.088461  -0.080176  0  3.987513  0
C  C104  1  0.29405103  0.71295380  0.58735561  1  0  -0.085566  -0.058337  0  3.968814  0
C  C105  1  0.70594470  0.28704225  0.41264706  1  0  -0.085554  -0.058369  0  3.968879  0
C  C106  1  0.20576064  0.12572068  0.41253423  1  0  -0.085355  -0.058432  0  3.969968  0
C  C107  1  0.79425048  0.87427820  0.58746284  1  0  -0.085446  -0.058544  0  3.969899  0
S  S108  1  0.24327955  0.21364397  0.19182316  1  0  -0.169824  -0.340937  0  2.7764  0
S  S109  1  0.05233032  0.78666766  0.80916256  1  0  -0.170326  -0.340912  0  2.775437  0
S  S110  1  0.25613599  0.02266411  0.80887975  1  0  -0.170262  -0.341157  0  2.774599  0
S  S111  1  0.44870684  0.97744797  0.19111365  1  0  -0.170488  -0.341668  0  2.779805  0
S  S112  1  0.75672023  0.78635582  0.80817036  1  0  -0.169784  -0.340847  0  2.776453  0
S  S113  1  0.94767413  0.21332838  0.19083825  1  0  -0.170312  -0.340893  0  2.775396  0
S  S114  1  0.74386380  0.97733570  0.19111615  1  0  -0.170251  -0.341139  0  2.774726  0
S  S115  1  0.55129187  0.02254512  0.80888016  1  0  -0.170534  -0.341703  0  2.779838  0
O  O116  1  0.03109923  0.32320066  0.06152254  1  0  -0.196833  -0.328223  0  2.479876  0
O  O117  1  0.96889788  0.67680307  0.93848122  1  0  -0.19691  -0.328299  0  2.479899  0
O  O118  1  0.46893521  0.26192054  0.93862973  1  0  -0.196599  -0.32778  0  2.479946  0
O  O119  1  0.53107185  0.73807455  0.06137173  1  0  -0.196599  -0.327761  0  2.480062  0
