# generated using pymatgen
data_ErH20C30N3O7
_symmetry_space_group_name_H-M   'P 1'
_cell_length_a   8.40838953
_cell_length_b   11.36094280
_cell_length_c   14.60200000
_cell_angle_alpha   69.51803613
_cell_angle_beta   73.37935064
_cell_angle_gamma   82.68889319
_symmetry_Int_Tables_number   1
_chemical_formula_structural   ErH20C30N3O7
_chemical_formula_sum   'Er2 H40 C60 N6 O14'
_cell_volume   1251.53859969
_cell_formula_units_Z   2
loop_
 _symmetry_equiv_pos_site_id
 _symmetry_equiv_pos_as_xyz
  1  'x, y, z'
loop_
 _atom_site_type_symbol
 _atom_site_label
 _atom_site_symmetry_multiplicity
 _atom_site_fract_x
 _atom_site_fract_y
 _atom_site_fract_z
 _atom_site_occupancy
 _atom_site_hle17_bader_spin_density
 _atom_site_hle17_ddec_charge
 _atom_site_hle17_ddec_spin_density
 _atom_site_hle17_ddec_sum_bond_order
 _atom_site_hle17_magmom
 _atom_site_hse06_10hf_bader_spin_density
 _atom_site_hse06_10hf_ddec_charge
 _atom_site_hse06_10hf_ddec_spin_density
 _atom_site_hse06_10hf_ddec_sum_bond_order
 _atom_site_hse06_10hf_magmom
 _atom_site_hse06_bader_spin_density
 _atom_site_hse06_ddec_charge
 _atom_site_hse06_ddec_spin_density
 _atom_site_hse06_ddec_sum_bond_order
 _atom_site_hse06_magmom
 _atom_site_pbe_bader_charge
 _atom_site_pbe_bader_spin_density
 _atom_site_pbe_cm5_charge
 _atom_site_pbe_ddec_charge
 _atom_site_pbe_ddec_spin_density
 _atom_site_pbe_ddec_sum_bond_order
 _atom_site_pbe_magmom
Er  Er0  1  0.13980681  0.50439681  0.08136599  1  0  2.232678  0  1.681518  0  0  2.079687  0  2.164595  0  0  2.217976  0  1.959821  0  2.163468  0  1.537121  2.043382  0  2.194692  0
Er  Er1  1  0.86019080  0.49559993  0.91863536  1  0  2.232639  0  1.681563  0  0  2.079653  0  2.164585  0  0  2.217936  0  1.959876  0  2.163566  0  1.537075  2.043357  0  2.19473  0
H  H2  1  0.18908650  0.29709186  0.30605679  1  0  0.087951  0  0.932089  0  0  0.097973  0  0.991522  0  0  0.100835  0  0.988525  0  0.128478  0  0.123117  0.095861  0  0.99381  0
H  H3  1  0.81091096  0.70290864  0.69394630  1  0  0.087984  0  0.932077  0  0  0.098011  0  0.991496  0  0  0.100873  0  0.988497  0  0.128452  0  0.123141  0.095901  0  0.993784  0
H  H4  1  0.26012422  0.30033029  0.45856909  1  0  0.108974  0  0.966743  0  0  0.114147  0  1.036822  0  0  0.118037  0  1.034646  0  0.126437  0  0.106205  0.111226  0  1.038838  0
H  H5  1  0.73987302  0.69967585  0.54143113  1  0  0.108942  0  0.966677  0  0  0.114117  0  1.036779  0  0  0.11801  0  1.034598  0  0.126375  0  0.106167  0.111196  0  1.038794  0
H  H6  1  0.11632786  0.69503581  0.37649918  1  0  0.109363  0  0.955809  0  0  0.116063  0  1.021234  0  0  0.120015  0  1.018932  0  0.095975  0  0.108182  0.113138  0  1.023148  0
H  H7  1  0.88366825  0.30496750  0.62349789  1  0  0.109425  0  0.955707  0  0  0.116096  0  1.021177  0  0  0.120053  0  1.018867  0  0.096013  0  0.108192  0.113167  0  1.023103  0
H  H8  1  0.04125583  0.67154141  0.22924829  1  0  0.07337  0  0.965611  0  0  0.081405  0  1.033765  0  0  0.083618  0  1.031821  0  0.120976  0  0.118901  0.079422  0  1.036218  0
H  H9  1  0.95873671  0.32845814  0.77075244  1  0  0.073344  0  0.965601  0  0  0.081407  0  1.033736  0  0  0.083619  0  1.031791  0  0.121076  0  0.118893  0.079425  0  1.036184  0
H  H10  1  0.30049167  0.31639838  0.58431877  1  0  0.11354  0  0.954087  0  0  0.123779  0  1.017237  0  0  0.127735  0  1.014439  0  0.103139  0  0.10894  0.119912  0  1.021265  0
H  H11  1  0.69951057  0.68360682  0.41567883  1  0  0.113582  0  0.953924  0  0  0.123816  0  1.017078  0  0  0.127772  0  1.014281  0  0.103125  0  0.108948  0.119946  0  1.021113  0
H  H12  1  0.39747963  0.57197247  0.71916626  1  0  0.113764  0  0.945996  0  0  0.125335  0  1.004915  0  0  0.128873  0  1.002852  0  0.075062  0  0.111276  0.122829  0  1.006441  0
H  H13  1  0.60252272  0.42802991  0.28083346  1  0  0.113674  0  0.946097  0  0  0.125294  0  1.004953  0  0  0.128828  0  1.002895  0  0.075098  0  0.111285  0.122785  0  1.00648  0
H  H14  1  0.39225760  0.98348777  0.68691848  1  0  0.066689  0  0.942883  0  0  0.074792  0  1.008499  0  0  0.077015  0  1.007371  0  0.086228  0  0.106601  0.07323  0  1.009275  0
H  H15  1  0.60773234  0.01651461  0.31308808  1  0  0.066718  0  0.942896  0  0  0.074801  0  1.008516  0  0  0.077021  0  1.007392  0  0.086411  0  0.106598  0.073237  0  1.009293  0
H  H16  1  0.40594231  0.76013917  0.70683375  1  0  0.108208  0  0.959669  0  0  0.117548  0  1.0213  0  0  0.121346  0  1.01953  0  0.101477  0  0.104614  0.114873  0  1.022607  0
H  H17  1  0.59405015  0.23986227  0.29317128  1  0  0.108239  0  0.95957  0  0  0.117592  0  1.021185  0  0  0.121389  0  1.019415  0  0.101196  0  0.104645  0.114915  0  1.022495  0
H  H18  1  0.16629484  0.85466292  0.46338685  1  0  0.103696  0  0.963651  0  0  0.110654  0  1.029234  0  0  0.11476  0  1.026956  0  0.094919  0  0.104443  0.107646  0  1.031133  0
H  H19  1  0.83371484  0.14534227  0.53660747  1  0  0.103739  0  0.963581  0  0  0.110651  0  1.029217  0  0  0.114732  0  1.026966  0  0.094872  0  0.104407  0.107651  0  1.031108  0
H  H20  1  0.16521681  0.07852053  0.45230683  1  0  0.061498  0  0.941523  0  0  0.072467  0  1.000718  0  0  0.074648  0  0.999615  0  0.058542  0  0.10563  0.071062  0  1.001261  0
H  H21  1  0.83479283  0.92148561  0.54769066  1  0  0.061538  0  0.941451  0  0  0.072461  0  1.000692  0  0  0.074643  0  0.999589  0  0.05855  0  0.105632  0.071056  0  1.001236  0
H  H22  1  0.54031357  0.23396447  0.62521118  1  0  0.096325  0  0.977099  0  0  0.103589  0  1.044252  0  0  0.106395  0  1.043489  0  0.075153  0  0.102334  0.101389  0  1.045293  0
H  H23  1  0.45968766  0.76603509  0.37478744  1  0  0.096309  0  0.977131  0  0  0.103569  0  1.044294  0  0  0.106382  0  1.043523  0  0.075179  0  0.102332  0.101377  0  1.045324  0
H  H24  1  0.65559665  0.05489359  0.74345536  1  0  0.088986  0  0.948053  0  0  0.103696  0  1.001881  0  0  0.106386  0  1.000277  0  0.060141  0  0.104788  0.101768  0  1.003086  0
H  H25  1  0.34439973  0.94510315  0.25654414  1  0  0.088973  0  0.948087  0  0  0.103698  0  1.001888  0  0  0.106388  0  1.000286  0  0.06017  0  0.104806  0.101762  0  1.003103  0
H  H26  1  0.61822881  0.04814411  0.92116692  1  0  0.084544  0  0.966253  0  0  0.095363  0  1.029569  0  0  0.097344  0  1.029621  0  0.078141  0  0.101044  0.093964  0  1.02966  0
H  H27  1  0.38177125  0.95185357  0.07883240  1  0  0.084557  0  0.966246  0  0  0.09538  0  1.029552  0  0  0.09736  0  1.029608  0  0.078157  0  0.101044  0.09398  0  1.029645  0
H  H28  1  0.44180681  0.21424338  0.98196059  1  0  0.109502  0  0.947093  0  0  0.117173  0  1.010021  0  0  0.12073  0  1.007898  0  0.125374  0  0.10877  0.114721  0  1.01128  0
H  H29  1  0.55819324  0.78575429  0.01803942  1  0  0.109504  0  0.947117  0  0  0.117199  0  1.010012  0  0  0.120744  0  1.007906  0  0.125374  0  0.108797  0.114745  0  1.011276  0
H  H30  1  0.16234348  0.06579522  0.19374074  1  0  0.100304  0  0.957943  0  0  0.110631  0  1.018005  0  0  0.114572  0  1.014242  0  0.088841  0  0.105911  0.107897  0  1.020493  0
H  H31  1  0.83765406  0.93420340  0.80626011  1  0  0.100327  0  0.957963  0  0  0.110652  0  1.01802  0  0  0.114592  0  1.014253  0  0.088901  0  0.105916  0.107916  0  1.020509  0
H  H32  1  0.11421133  0.84914113  0.20297432  1  0  0.080746  0  0.996156  0  0  0.09092  0  1.060642  0  0  0.093281  0  1.06049  0  0.055613  0  0.097255  0.089236  0  1.060851  0
H  H33  1  0.88579121  0.15085654  0.79702665  1  0  0.080633  0  0.996328  0  0  0.090881  0  1.060726  0  0  0.093235  0  1.060586  0  0.05566  0  0.097258  0.089201  0  1.060925  0
H  H34  1  0.88513889  0.81487765  0.13777394  1  0  0.093107  0  0.969477  0  0  0.09974  0  1.037095  0  0  0.102786  0  1.035475  0  0.078434  0  0.101347  0.097616  0  1.038189  0
H  H35  1  0.11486621  0.18511815  0.86222369  1  0  0.093095  0  0.96935  0  0  0.099743  0  1.036966  0  0  0.102792  0  1.03534  0  0.078708  0  0.101332  0.097619  0  1.03806  0
H  H36  1  0.70085039  0.99404911  0.07334936  1  0  0.080999  0  0.992126  0  0  0.091708  0  1.055734  0  0  0.09362  0  1.056782  0  0.065944  0  0.095471  0.090357  0  1.055044  0
H  H37  1  0.29915474  0.00594575  0.92664852  1  0  0.080981  0  0.992079  0  0  0.09169  0  1.055688  0  0  0.093596  0  1.056745  0  0.065993  0  0.095461  0.090333  0  1.055006  0
H  H38  1  0.45701287  0.36186243  0.11272232  1  0  0.439725  0  0.860689  0  0  0.407847  0  0.925832  0  0  0.42024  0  0.907875  0  0.656727  0  0.295807  0.399288  0  0.938372  0
H  H39  1  0.54298482  0.63813242  0.88728364  1  0  0.439782  0  0.860616  0  0  0.407902  0  0.925758  0  0  0.420293  0  0.907806  0  0.656754  0  0.295847  0.39935  0  0.938287  0
H  H40  1  0.49182864  0.50610674  0.08628249  1  0  0.436758  0  0.857384  0  0  0.406707  0  0.920406  0  0  0.417735  0  0.904449  0  0.627025  0  0.30388  0.399021  0  0.931837  0
H  H41  1  0.50816281  0.49388905  0.91372355  1  0  0.436716  0  0.857423  0  0  0.406655  0  0.920471  0  0  0.417681  0  0.904515  0  0.627084  0  0.30382  0.398966  0  0.931904  0
C  C42  1  0.17314815  0.38316278  0.32519405  1  0  0.156807  0  3.702134  0  0  0.126596  0  3.959939  0  0  0.13411  0  3.98002  0  0.467221  0  0.054495  0.121553  0  3.948999  0
C  C43  1  0.82684803  0.61683866  0.67480831  1  0  0.156718  0  3.702191  0  0  0.126494  0  3.959985  0  0  0.134019  0  3.980068  0  0.467323  0  0.054499  0.121461  0  3.94905  0
C  C44  1  0.21400291  0.38667007  0.40992959  1  0  -0.156773  0  3.675505  0  0  -0.17289  0  3.92367  0  0  -0.180508  0  3.9438  0  -0.054178  0  -0.082246  -0.167538  0  3.909268  0
C  C45  1  0.78599677  0.61333701  0.59006998  1  0  -0.15665  0  3.675403  0  0  -0.172761  0  3.923598  0  0  -0.180381  0  3.943722  0  -0.054351  0  -0.08223  -0.167404  0  3.909171  0
C  C46  1  0.19802430  0.50103429  0.42924911  1  0  0.07583  0  3.735505  0  0  0.084704  0  3.966639  0  0  0.088486  0  3.988292  0  -0.039808  0  0.01232  0.082444  0  3.951341  0
C  C47  1  0.80197545  0.49897091  0.57074959  1  0  0.075725  0  3.735617  0  0  0.084574  0  3.966821  0  0  0.088348  0  3.988477  0  -0.03945  0  0.012308  0.082313  0  3.951517  0
C  C48  1  0.13358172  0.60533540  0.36318267  1  0  -0.143603  0  3.702087  0  0  -0.161969  0  3.95082  0  0  -0.169354  0  3.971313  0  0.009564  0  -0.08035  -0.156896  0  3.936553  0
C  C49  1  0.86641807  0.39466886  0.63681696  1  0  -0.143571  0  3.702018  0  0  -0.161931  0  3.95081  0  0  -0.169314  0  3.971291  0  0.009413  0  -0.080351  -0.156857  0  3.936527  0
C  C50  1  0.09296076  0.59278305  0.28148677  1  0  0.138628  0  3.730424  0  0  0.112259  0  3.983001  0  0  0.118775  0  4.006309  0  0.454411  0  0.051532  0.107499  0  3.971333  0
C  C51  1  0.90703662  0.40721932  0.71851240  1  0  0.138665  0  3.730449  0  0  0.112276  0  3.983021  0  0  0.118806  0  4.006325  0  0.45424  0  0.051555  0.107528  0  3.971346  0
C  C52  1  0.24892851  0.51497413  0.51398309  1  0  0.204519  0  3.796844  0  0  0.205645  0  4.043392  0  0  0.211736  0  4.063043  0  0.532118  0  0.121167  0.201615  0  4.029621  0
C  C53  1  0.75107877  0.48502919  0.48601488  1  0  0.204404  0  3.797005  0  0  0.205537  0  4.043559  0  0  0.211632  0  4.063207  0  0.532179  0  0.121124  0.201507  0  4.029784  0
C  C54  1  0.30219059  0.41136302  0.58593757  1  0  -0.180246  0  3.650529  0  0  -0.206609  0  3.894221  0  0  -0.212854  0  3.913623  0  -0.01802  0  -0.076033  -0.20212  0  3.881555  0
C  C55  1  0.69781297  0.58864030  0.41406101  1  0  -0.180181  0  3.650225  0  0  -0.206512  0  3.893911  0  0  -0.212761  0  3.913319  0  -0.018161  0  -0.076012  -0.202026  0  3.881251  0
C  C56  1  0.35471519  0.43015910  0.66227117  1  0  0.115797  0  3.767333  0  0  0.125836  0  4.005815  0  0  0.12983  0  4.026394  0  0.001058  0  0.010714  0.123373  0  3.991079  0
C  C57  1  0.64528836  0.56984422  0.33772673  1  0  0.115708  0  3.767207  0  0  0.125702  0  4.005763  0  0  0.129698  0  4.026334  0  0.001516  0  0.010676  0.123239  0  3.99103  0
C  C58  1  0.35223691  0.55363982  0.66273707  1  0  -0.165801  0  3.629317  0  0  -0.195557  0  3.880571  0  0  -0.201147  0  3.898985  0  -0.052205  0  -0.074303  -0.191766  0  3.868058  0
C  C59  1  0.64776668  0.44636255  0.33726245  1  0  -0.165611  0  3.629272  0  0  -0.195398  0  3.880529  0  0  -0.200973  0  3.898947  0  -0.052577  0  -0.074248  -0.191609  0  3.868013  0
C  C60  1  0.29377958  0.65252818  0.58955259  1  0  0.208385  0  3.764854  0  0  0.207492  0  4.015429  0  0  0.214071  0  4.033734  0  0.560835  0  0.120104  0.202991  0  4.002875  0
C  C61  1  0.70622394  0.34747608  0.41044574  1  0  0.208318  0  3.764951  0  0  0.207442  0  4.015505  0  0  0.213986  0  4.033857  0  0.561173  0  0.119994  0.202941  0  4.002949  0
C  C62  1  0.34406928  0.95311980  0.63706570  1  0  0.127948  0  3.742678  0  0  0.103901  0  4.00548  0  0  0.109092  0  4.024206  0  0.517732  0  0.039235  0.100634  0  3.992648  0
C  C63  1  0.65592683  0.04688351  0.36293548  1  0  0.127951  0  3.742677  0  0  0.103929  0  4.005469  0  0  0.10912  0  4.024194  0  0.517443  0  0.039245  0.100664  0  3.992637  0
C  C64  1  0.35109872  0.82545121  0.64836136  1  0  -0.154678  0  3.694551  0  0  -0.174744  0  3.941338  0  0  -0.182033  0  3.962943  0  -0.039083  0  -0.085596  -0.169779  0  3.926381  0
C  C65  1  0.64889743  0.17455117  0.35164007  1  0  -0.154753  0  3.694496  0  0  -0.174858  0  3.941295  0  0  -0.182146  0  3.962899  0  -0.038562  0  -0.085662  -0.169891  0  3.926337  0
C  C66  1  0.28807952  0.78593666  0.58503852  1  0  0.063658  0  3.743923  0  0  0.075653  0  3.973226  0  0  0.0783  0  3.995811  0  -0.101998  0  0.007388  0.074254  0  3.957586  0
C  C67  1  0.71192024  0.21406854  0.41495948  1  0  0.063629  0  3.74395  0  0  0.075661  0  3.973185  0  0  0.078321  0  3.995769  0  -0.102714  0  0.00741  0.074262  0  3.957544  0
C  C68  1  0.21889064  0.88018405  0.51367638  1  0  -0.159483  0  3.72982  0  0  -0.178011  0  3.974245  0  0  -0.185214  0  3.996157  0  -0.035793  0  -0.088025  -0.17299  0  3.959205  0
C  C69  1  0.78110908  0.11982209  0.48632275  1  0  -0.159559  0  3.729612  0  0  -0.178064  0  3.974028  0  0  -0.185245  0  3.995952  0  -0.035862  0  -0.08802  -0.173052  0  3.958985  0
C  C70  1  0.21849815  0.00512885  0.50806567  1  0  0.10351  0  3.787197  0  0  0.083952  0  4.041794  0  0  0.08817  0  4.061477  0  0.516264  0  0.032369  0.081358  0  4.027751  0
C  C71  1  0.78150785  0.99487540  0.49193225  1  0  0.103574  0  3.786936  0  0  0.084065  0  4.041519  0  0  0.088282  0  4.061196  0  0.516724  0  0.032414  0.081473  0  4.027477  0
C  C72  1  0.41712654  0.32274082  0.73655752  1  0  0.038561  0  3.739606  0  0  0.047646  0  3.965792  0  0  0.04845  0  3.988008  0  -0.008514  0  -4.5e-05  0.047537  0  3.949872  0
C  C73  1  0.58287220  0.67725873  0.26344220  1  0  0.038552  0  3.739612  0  0  0.047665  0  3.965796  0  0  0.048457  0  3.988016  0  -0.00858  0  -3.9e-05  0.04755  0  3.949885  0
C  C74  1  0.51435329  0.22786173  0.70412003  1  0  -0.101039  0  3.727767  0  0  -0.121997  0  3.980603  0  0  -0.124899  0  4.001369  0  -0.064827  0  -0.083262  -0.119958  0  3.966515  0
C  C75  1  0.48564661  0.77213971  0.29587898  1  0  -0.101052  0  3.727779  0  0  -0.122019  0  3.980618  0  0  -0.124922  0  4.001382  0  -0.06429  0  -0.0833  -0.11998  0  3.966526  0
C  C76  1  0.58341958  0.12857856  0.77036464  1  0  -0.057105  0  3.764022  0  0  -0.075023  0  4.019005  0  0  -0.075707  0  4.038849  0  0.01677  0  -0.082626  -0.074373  0  4.005314  0
C  C77  1  0.41657796  0.87142006  0.22963415  1  0  -0.057036  0  3.764019  0  0  -0.074949  0  4.018978  0  0  -0.075639  0  4.038826  0  0.016211  0  -0.082595  -0.074301  0  4.005293  0
C  C78  1  0.56120001  0.12443392  0.86986993  1  0  -0.070879  0  3.767465  0  0  -0.083605  0  4.02009  0  0  -0.085796  0  4.040304  0  -0.089009  0  -0.087542  -0.082134  0  4.006217  0
C  C79  1  0.43879880  0.87556375  0.13012960  1  0  -0.070931  0  3.767494  0  0  -0.083665  0  4.020124  0  0  -0.085852  0  4.040345  0  -0.089007  0  -0.087557  -0.082191  0  4.006252  0
C  C80  1  0.46384547  0.21723177  0.90387439  1  0  -0.055939  0  3.701635  0  0  -0.080348  0  3.95068  0  0  -0.079684  0  3.968404  0  -0.048293  0  -0.077363  -0.080378  0  3.937867  0
C  C81  1  0.53615458  0.78276591  0.09612630  1  0  -0.055968  0  3.70168  0  0  -0.080378  0  3.950723  0  0  -0.079723  0  3.968455  0  -0.048321  0  -0.077384  -0.080414  0  3.937919  0
C  C82  1  0.38750647  0.31405298  0.83881788  1  0  -0.101131  0  3.696201  0  0  -0.081868  0  3.924092  0  0  -0.088493  0  3.942499  0  -0.039423  0  -0.010786  -0.077225  0  3.910311  0
C  C83  1  0.61249351  0.68594657  0.16118163  1  0  -0.101143  0  3.69625  0  0  -0.081907  0  3.924179  0  0  -0.088498  0  3.942556  0  -0.039466  0  -0.010814  -0.077257  0  3.9104  0
C  C84  1  0.25832801  0.39405502  0.88612578  1  0  0.718437  0  3.841065  0  0  0.669912  0  4.133792  0  0  0.706829  0  4.125466  0  1.570768  0  0.234429  0.645659  0  4.141565  0
C  C85  1  0.74167069  0.60594548  0.11387437  1  0  0.718438  0  3.840951  0  0  0.669905  0  4.133717  0  0  0.706799  0  4.125394  0  1.5707  0  0.234419  0.645639  0  4.141501  0
C  C86  1  0.00785241  0.27538729  0.12047920  1  0  0.685128  0  3.873596  0  0  0.640628  0  4.159153  0  0  0.675506  0  4.159083  0  1.51992  0  0.210559  0.616697  0  4.165456  0
C  C87  1  0.99214768  0.72460945  0.87952174  1  0  0.685138  0  3.873604  0  0  0.6406  0  4.159221  0  0  0.675479  0  4.159151  0  1.519772  0  0.210552  0.616666  0  4.16553  0
C  C88  1  0.96265942  0.15041097  0.12722436  1  0  -0.090825  0  3.741036  0  0  -0.076383  0  3.972721  0  0  -0.084586  0  3.993884  0  -0.001056  0  -0.015544  -0.070708  0  3.957385  0
C  C89  1  0.03734444  0.84958483  0.87277348  1  0  -0.090787  0  3.741073  0  0  -0.076368  0  3.972798  0  0  -0.084568  0  3.993949  0  -0.001088  0  -0.015532  -0.070684  0  3.957447  0
C  C90  1  0.06186030  0.04732909  0.16773468  1  0  -0.061439  0  3.738476  0  0  -0.086788  0  3.987556  0  0  -0.085371  0  4.006086  0  -0.096527  0  -0.082798  -0.087383  0  3.974443  0
C  C91  1  0.93814356  0.95266671  0.83226453  1  0  -0.061495  0  3.738745  0  0  -0.086839  0  3.987837  0  0  -0.085417  0  4.006358  0  -0.096653  0  -0.082798  -0.087431  0  3.974719  0
C  C92  1  0.03361649  0.92714934  0.17299064  1  0  -0.082274  0  3.779427  0  0  -0.097182  0  4.032129  0  0  -0.100481  0  4.052482  0  -0.029517  0  -0.093416  -0.095187  0  4.01852  0
C  C93  1  0.96638737  0.07284645  0.82700719  1  0  -0.082155  0  3.779583  0  0  -0.097107  0  4.032278  0  0  -0.100414  0  4.052633  0  -0.029339  0  -0.093393  -0.095123  0  4.018674  0
C  C94  1  0.90551653  0.90817841  0.13683627  1  0  -0.034356  0  3.726233  0  0  -0.051033  0  3.979812  0  0  -0.049891  0  3.998855  0  -0.001882  0  -0.081133  -0.051573  0  3.966724  0
C  C95  1  0.09448980  0.09181738  0.86316047  1  0  -0.034303  0  3.726048  0  0  -0.051008  0  3.979627  0  0  -0.049862  0  3.998671  0  -0.002178  0  -0.081112  -0.051541  0  3.966531  0
C  C96  1  0.80338949  0.00929417  0.09899494  1  0  -0.088107  0  3.743755  0  0  -0.109485  0  3.990398  0  0  -0.113505  0  4.012778  0  -0.027584  0  -0.085842  -0.106734  0  3.975083  0
C  C97  1  0.19661440  0.99070069  0.90100315  1  0  -0.088088  0  3.743678  0  0  -0.109479  0  3.990341  0  0  -0.113496  0  4.012723  0  -0.027114  0  -0.085853  -0.106726  0  3.975031  0
C  C98  1  0.82919047  0.13063818  0.09433211  1  0  -0.039968  0  3.68837  0  0  -0.026445  0  3.921546  0  0  -0.027576  0  3.939201  0  -0.024689  0  0.003127  -0.025502  0  3.909204  0
C  C99  1  0.17081215  0.86935762  0.90566593  1  0  -0.039973  0  3.688469  0  0  -0.026423  0  3.921575  0  0  -0.027563  0  3.939231  0  -0.02521  0  0.003151  -0.025486  0  3.909242  0
C  C100  1  0.70397545  0.23198568  0.06072864  1  0  0.703604  0  3.873066  0  0  0.649842  0  4.177673  0  0  0.684455  0  4.170016  0  1.621944  0  0.227438  0.626014  0  4.185239  0
C  C101  1  0.29601840  0.76801199  0.93927650  1  0  0.703545  0  3.873193  0  0  0.64983  0  4.177747  0  0  0.684444  0  4.170079  0  1.621901  0  0.227396  0.625988  0  4.185324  0
N  N102  1  0.11525678  0.48468983  0.26049465  1  0  -0.42292  0  3.240734  0  0  -0.36739  0  3.513264  0  0  -0.394441  0  3.53446  0  -1.26529  0  -0.395713  -0.356888  0  3.501607  0
N  N103  1  0.88473696  0.51531067  0.73950768  1  0  -0.422907  0  3.240771  0  0  -0.367366  0  3.513288  0  0  -0.394436  0  3.534522  0  -1.265329  0  -0.395724  -0.356887  0  3.50167  0
N  N104  1  0.24259702  0.63220172  0.51718119  1  0  -0.372871  0  3.077323  0  0  -0.340555  0  3.339272  0  0  -0.352321  0  3.354811  0  -1.195829  0  -0.303648  -0.331831  0  3.328447  0
N  N105  1  0.75740657  0.36780066  0.48281764  1  0  -0.372811  0  3.077409  0  0  -0.340481  0  3.33929  0  0  -0.352233  0  3.354836  0  -1.195727  0  -0.303582  -0.331755  0  3.328464  0
N  N106  1  0.28026959  0.04359808  0.56796544  1  0  -0.329307  0  3.054768  0  0  -0.296218  0  3.323345  0  0  -0.30635  0  3.338589  0  -1.201169  0  -0.331188  -0.289062  0  3.313652  0
N  N107  1  0.71973020  0.95640618  0.43203624  1  0  -0.32934  0  3.054758  0  0  -0.296259  0  3.323312  0  0  -0.306387  0  3.33855  0  -1.201356  0  -0.331185  -0.289104  0  3.313618  0
O  O108  1  0.11961505  0.41020301  0.86430496  1  0  -0.725371  0  2.078016  0  0  -0.68002  0  2.343711  0  0  -0.719204  0  2.332803  0  -1.184601  0  -0.378032  -0.661934  0  2.349152  0
O  O109  1  0.88038136  0.58979279  0.13569547  1  0  -0.72534  0  2.078015  0  0  -0.680024  0  2.343787  0  0  -0.719179  0  2.33285  0  -1.184567  0  -0.37803  -0.661895  0  2.349164  0
O  O110  1  0.29377725  0.43308356  0.94999101  1  0  -0.732203  0  2.077686  0  0  -0.671253  0  2.32387  0  0  -0.708822  0  2.30922  0  -1.197061  0  -0.379898  -0.653287  0  2.331249  0
O  O111  1  0.70622161  0.56691318  0.05001014  1  0  -0.732237  0  2.077578  0  0  -0.671285  0  2.323767  0  0  -0.708858  0  2.309145  0  -1.197049  0  -0.379929  -0.653318  0  2.331143  0
O  O112  1  0.11349155  0.28481400  0.16468580  1  0  -0.669463  0  1.948951  0  0  -0.624093  0  2.183865  0  0  -0.657382  0  2.172618  0  -1.170608  0  -0.371382  -0.607883  0  2.189996  0
O  O113  1  0.88650734  0.71518179  0.83531423  1  0  -0.669486  0  1.948916  0  0  -0.624083  0  2.183823  0  0  -0.657378  0  2.172595  0  -1.170502  0  -0.371402  -0.607885  0  2.189979  0
O  O114  1  0.94575550  0.37732138  0.06652652  1  0  -0.844827  0  2.215136  0  0  -0.779098  0  2.466119  0  0  -0.827083  0  2.457552  0  -1.216023  0  -0.443621  -0.760243  0  2.471135  0
O  O115  1  0.05424087  0.62267536  0.93347366  1  0  -0.84483  0  2.215186  0  0  -0.779081  0  2.46617  0  0  -0.82707  0  2.457599  0  -1.216128  0  -0.443609  -0.760241  0  2.471214  0
O  O116  1  0.56478572  0.22951244  0.12309645  1  0  -0.591851  0  1.901956  0  0  -0.538603  0  2.110419  0  0  -0.562163  0  2.099246  0  -1.16624  0  -0.295341  -0.521417  0  2.11718  0
O  O117  1  0.43521927  0.77048618  0.87690865  1  0  -0.591938  0  1.901722  0  0  -0.538718  0  2.11018  0  0  -0.562278  0  2.099007  0  -1.166148  0  -0.295383  -0.521529  0  2.116946  0
O  O118  1  0.74431440  0.31103828  0.97040066  1  0  -0.761763  0  2.014141  0  0  -0.708671  0  2.279886  0  0  -0.749891  0  2.264751  0  -1.210959  0  -0.439001  -0.689174  0  2.286931  0
O  O119  1  0.25568062  0.68896128  0.02959966  1  0  -0.761715  0  2.014355  0  0  -0.708629  0  2.280029  0  0  -0.749827  0  2.264868  0  -1.211035  0  -0.438978  -0.689103  0  2.287053  0
O  O120  1  0.40146989  0.44593954  0.11296275  1  0  -0.937259  0  1.903184  0  0  -0.889414  0  2.103501  0  0  -0.920965  0  2.064575  0  -1.274477  0  -0.651713  -0.87547  0  2.126185  0
O  O121  1  0.59852400  0.55405720  0.88704195  1  0  -0.937263  0  1.903133  0  0  -0.889396  0  2.103419  0  0  -0.920949  0  2.064513  0  -1.27458  0  -0.651681  -0.875458  0  2.12611  0
