# generated using pymatgen
data_ZnMoH8C4N2(OF)4
_symmetry_space_group_name_H-M   'P 1'
_cell_length_a   7.20359652
_cell_length_b   7.20359202
_cell_length_c   16.43527326
_cell_angle_alpha   90.00005048
_cell_angle_beta   90.00009339
_cell_angle_gamma   120.00017572
_symmetry_Int_Tables_number   1
_chemical_formula_structural   ZnMoH8C4N2(OF)4
_chemical_formula_sum   'Zn3 Mo3 H24 C12 N6 O12 F12'
_cell_volume   738.59315736
_cell_formula_units_Z   3
loop_
 _symmetry_equiv_pos_site_id
 _symmetry_equiv_pos_as_xyz
  1  'x, y, z'
loop_
 _atom_site_type_symbol
 _atom_site_label
 _atom_site_symmetry_multiplicity
 _atom_site_fract_x
 _atom_site_fract_y
 _atom_site_fract_z
 _atom_site_occupancy
 _atom_site_hle17_bader_spin_density
 _atom_site_hle17_ddec_charge
 _atom_site_hle17_ddec_spin_density
 _atom_site_hle17_ddec_sum_bond_order
 _atom_site_hle17_magmom
 _atom_site_hse06_10hf_bader_spin_density
 _atom_site_hse06_10hf_ddec_charge
 _atom_site_hse06_10hf_ddec_spin_density
 _atom_site_hse06_10hf_ddec_sum_bond_order
 _atom_site_hse06_10hf_magmom
 _atom_site_hse06_bader_spin_density
 _atom_site_hse06_ddec_charge
 _atom_site_hse06_ddec_spin_density
 _atom_site_hse06_ddec_sum_bond_order
 _atom_site_hse06_magmom
 _atom_site_pbe_bader_spin_density
 _atom_site_pbe_cm5_charge
 _atom_site_pbe_ddec_charge
 _atom_site_pbe_ddec_spin_density
 _atom_site_pbe_ddec_sum_bond_order
 _atom_site_pbe_magmom
Zn  Zn0  1  0.99999902  0.77682229  0.16667069  1  0  1.150757  0  1.736075  0  0  0.977356  0  2.192503  0  0  1.023431  0  2.131851  0  0  0.67851  0.944977  0  2.234287  0
Zn  Zn1  1  0.22317842  0.22317502  0.50000398  1  0  1.150725  0  1.735994  0  0  0.977338  0  2.192401  0  0  1.023417  0  2.13175  0  0  0.678496  0.944958  0  2.23418  0
Zn  Zn2  1  0.77682281  0.00000129  0.83333720  1  0  1.150775  0  1.736038  0  0  0.977391  0  2.192459  0  0  1.02346  0  2.13181  0  0  0.678502  0.945008  0  2.234244  0
Mo  Mo3  1  0.54550920  0.54550462  0.00000091  1  0  2.266951  0  4.079938  0  0  2.242028  0  4.651407  0  0  2.340862  0  4.607839  0  0  1.53526  2.174809  0  4.680791  0
Mo  Mo4  1  0.45449250  0.99999864  0.33333525  1  0  2.266939  0  4.079936  0  0  2.242003  0  4.651406  0  0  2.340835  0  4.607842  0  0  1.535185  2.174781  0  4.68077  0
Mo  Mo5  1  0.99998791  0.45448501  0.66666475  1  0  2.266862  0  4.08002  0  0  2.241937  0  4.651478  0  0  2.340774  0  4.60791  0  0  1.535213  2.174713  0  4.680843  0
H  H6  1  0.91098351  0.05867640  0.04431661  1  0  0.111017  0  0.964226  0  0  0.113325  0  1.032935  0  0  0.11687  0  1.029843  0  0  0.116997  0.110634  0  1.035404  0
H  H7  1  0.94131929  0.85230608  0.37764984  1  0  0.110979  0  0.964344  0  0  0.113345  0  1.032992  0  0  0.11689  0  1.029899  0  0  0.116995  0.110652  0  1.035461  0
H  H8  1  0.14769032  0.08901562  0.71098429  1  0  0.111017  0  0.964171  0  0  0.113316  0  1.032888  0  0  0.116862  0  1.029796  0  0  0.116998  0.110627  0  1.035359  0
H  H9  1  0.05869291  0.91099826  0.95568130  1  0  0.110846  0  0.964687  0  0  0.113247  0  1.033296  0  0  0.116788  0  1.030207  0  0  0.117002  0.110556  0  1.035763  0
H  H10  1  0.85231279  0.94130854  0.62234670  1  0  0.110926  0  0.964653  0  0  0.113289  0  1.033298  0  0  0.116829  0  1.030207  0  0  0.117019  0.110597  0  1.035766  0
H  H11  1  0.08899812  0.14769159  0.28901381  1  0  0.110901  0  0.96464  0  0  0.113258  0  1.033291  0  0  0.116798  0  1.030204  0  0  0.11699  0.110568  0  1.03576  0
H  H12  1  0.91822550  0.41030087  0.04426983  1  0  0.101388  0  0.956608  0  0  0.104924  0  1.023674  0  0  0.108361  0  1.020676  0  0  0.120605  0.102354  0  1.026063  0
H  H13  1  0.58969610  0.50792487  0.37760462  1  0  0.101373  0  0.956632  0  0  0.104919  0  1.023691  0  0  0.108353  0  1.020699  0  0  0.120606  0.102349  0  1.02608  0
H  H14  1  0.49207707  0.08177791  0.71093817  1  0  0.101414  0  0.956587  0  0  0.104958  0  1.023657  0  0  0.108394  0  1.020664  0  0  0.120611  0.10239  0  1.026047  0
H  H15  1  0.41028884  0.91822949  0.95572766  1  0  0.101391  0  0.956782  0  0  0.104936  0  1.023856  0  0  0.10837  0  1.020858  0  0  0.120663  0.102369  0  1.026243  0
H  H16  1  0.50794416  0.58970886  0.62239518  1  0  0.101393  0  0.956786  0  0  0.104935  0  1.023878  0  0  0.108371  0  1.020876  0  0  0.120659  0.102368  0  1.026268  0
H  H17  1  0.08177003  0.49206084  0.28906012  1  0  0.101371  0  0.956802  0  0  0.104897  0  1.023914  0  0  0.108332  0  1.020915  0  0  0.12062  0.102331  0  1.026302  0
H  H18  1  0.37590118  0.84853894  0.10429853  1  0  0.448161  0  0.840319  0  0  0.41966  0  0.898431  0  0  0.430471  0  0.882472  0  0  0.289023  0.412013  0  0.909709  0
H  H19  1  0.15146803  0.52736430  0.43762902  1  0  0.448129  0  0.840385  0  0  0.419629  0  0.898495  0  0  0.430439  0  0.882538  0  0  0.289022  0.411981  0  0.909773  0
H  H20  1  0.47263485  0.62409730  0.77096465  1  0  0.448165  0  0.840352  0  0  0.419666  0  0.898461  0  0  0.430478  0  0.8825  0  0  0.289027  0.412019  0  0.909739  0
H  H21  1  0.84854014  0.37590392  0.89571046  1  0  0.448292  0  0.840114  0  0  0.419738  0  0.898341  0  0  0.430548  0  0.88238  0  0  0.289059  0.41209  0  0.90962  0
H  H22  1  0.52736361  0.15146064  0.56237785  1  0  0.448288  0  0.840155  0  0  0.419737  0  0.898375  0  0  0.430547  0  0.882416  0  0  0.289077  0.412089  0  0.909655  0
H  H23  1  0.62409491  0.47263395  0.22904184  1  0  0.44831  0  0.840143  0  0  0.419741  0  0.898396  0  0  0.430553  0  0.882433  0  0  0.289057  0.412093  0  0.909673  0
H  H24  1  0.37009223  0.06877631  0.09366272  1  0  0.454116  0  0.83616  0  0  0.429016  0  0.889269  0  0  0.440333  0  0.872713  0  0  0.294838  0.421052  0  0.900945  0
H  H25  1  0.93122963  0.30131873  0.42699299  1  0  0.454135  0  0.83613  0  0  0.429031  0  0.889242  0  0  0.440351  0  0.872681  0  0  0.294832  0.421065  0  0.900921  0
H  H26  1  0.69868187  0.62990718  0.76033029  1  0  0.454115  0  0.836117  0  0  0.42902  0  0.889219  0  0  0.440336  0  0.872662  0  0  0.294844  0.421055  0  0.900896  0
H  H27  1  0.06877383  0.37009418  0.90634462  1  0  0.454185  0  0.836058  0  0  0.429053  0  0.889241  0  0  0.440379  0  0.872665  0  0  0.294835  0.421087  0  0.900921  0
H  H28  1  0.30131920  0.93122524  0.57301236  1  0  0.454196  0  0.836032  0  0  0.429064  0  0.889213  0  0  0.440389  0  0.872641  0  0  0.294851  0.421097  0  0.900895  0
H  H29  1  0.62990377  0.69867684  0.23967572  1  0  0.454055  0  0.836207  0  0  0.428962  0  0.889308  0  0  0.44028  0  0.872748  0  0  0.294839  0.420994  0  0.900989  0
C  C30  1  0.95289019  0.15622304  0.09913776  1  0  0.090748  0  3.621031  0  0  0.062193  0  3.871013  0  0  0.064563  0  3.888159  0  0  0.061458  0.060574  0  3.859551  0
C  C31  1  0.84377402  0.79666665  0.43246969  1  0  0.090825  0  3.621045  0  0  0.062234  0  3.871  0  0  0.064601  0  3.888152  0  0  0.061484  0.060618  0  3.859537  0
C  C32  1  0.20333162  0.04710942  0.76580664  1  0  0.090864  0  3.621017  0  0  0.062347  0  3.870967  0  0  0.064717  0  3.888113  0  0  0.061528  0.060726  0  3.859511  0
C  C33  1  0.15623208  0.95288950  0.90088152  1  0  0.091002  0  3.621495  0  0  0.062378  0  3.871476  0  0  0.064751  0  3.888612  0  0  0.061623  0.060763  0  3.860016  0
C  C34  1  0.79666225  0.84376814  0.56754562  1  0  0.090875  0  3.621409  0  0  0.062279  0  3.871406  0  0  0.064654  0  3.888546  0  0  0.06158  0.060664  0  3.859948  0
C  C35  1  0.04710817  0.20334113  0.23421338  1  0  0.090889  0  3.621515  0  0  0.0623  0  3.871494  0  0  0.064671  0  3.888639  0  0  0.061593  0.060685  0  3.860037  0
C  C36  1  0.95438701  0.35049858  0.09916578  1  0  0.094176  0  3.636137  0  0  0.067186  0  3.886397  0  0  0.069568  0  3.903324  0  0  0.062025  0.065535  0  3.875089  0
C  C37  1  0.64949936  0.60388906  0.43249879  1  0  0.094183  0  3.636132  0  0  0.067182  0  3.886449  0  0  0.069561  0  3.903382  0  0  0.062016  0.065529  0  3.87514  0
C  C38  1  0.39611085  0.04561286  0.76583530  1  0  0.09412  0  3.636108  0  0  0.067111  0  3.886423  0  0  0.069488  0  3.903353  0  0  0.061993  0.065459  0  3.87512  0
C  C39  1  0.35047856  0.95438460  0.90085117  1  0  0.094587  0  3.636341  0  0  0.067531  0  3.886779  0  0  0.069908  0  3.903702  0  0  0.062048  0.065881  0  3.875473  0
C  C40  1  0.60390476  0.64951502  0.56751631  1  0  0.09457  0  3.636216  0  0  0.0675  0  3.88664  0  0  0.069876  0  3.903567  0  0  0.062053  0.065847  0  3.875339  0
C  C41  1  0.04561144  0.39609302  0.23418239  1  0  0.094561  0  3.636383  0  0  0.067504  0  3.886756  0  0  0.069879  0  3.903689  0  0  0.062078  0.065854  0  3.875452  0
N  N42  1  0.00000404  0.47042473  0.16667940  1  0  -0.267605  0  3.212641  0  0  -0.197017  0  3.471638  0  0  -0.210363  0  3.487266  0  0  -0.292113  -0.187741  0  3.460936  0
N  N43  1  0.52957718  0.52958032  0.50001267  1  0  -0.267592  0  3.212561  0  0  -0.197046  0  3.471633  0  0  -0.21039  0  3.487262  0  0  -0.292123  -0.18777  0  3.460928  0
N  N44  1  0.47042044  0.99999619  0.83334884  1  0  -0.267594  0  3.212564  0  0  -0.197066  0  3.471657  0  0  -0.210404  0  3.487279  0  0  -0.292111  -0.187789  0  3.460956  0
N  N45  1  0.99999688  0.08257151  0.16667725  1  0  -0.269307  0  3.197028  0  0  -0.195366  0  3.4561  0  0  -0.20942  0  3.472105  0  0  -0.289761  -0.185573  0  3.445107  0
N  N46  1  0.91742938  0.91742627  0.50000923  1  0  -0.269389  0  3.196956  0  0  -0.195429  0  3.456035  0  0  -0.209483  0  3.47204  0  0  -0.289793  -0.185635  0  3.445035  0
N  N47  1  0.08257181  0.00000024  0.83334668  1  0  -0.26951  0  3.197074  0  0  -0.195571  0  3.456169  0  0  -0.20962  0  3.472165  0  0  -0.289853  -0.185775  0  3.445173  0
O  O48  1  0.47718392  0.31800479  0.05586849  1  0  -0.705851  0  1.5148  0  0  -0.720064  0  1.775531  0  0  -0.746722  0  1.767019  0  0  -0.513902  -0.702793  0  1.781694  0
O  O49  1  0.68200305  0.15918672  0.38919855  1  0  -0.705833  0  1.514746  0  0  -0.720035  0  1.77548  0  0  -0.74669  0  1.766952  0  0  -0.513812  -0.702759  0  1.781629  0
O  O50  1  0.84082277  0.52281517  0.72253661  1  0  -0.705843  0  1.514846  0  0  -0.720033  0  1.77553  0  0  -0.746708  0  1.76705  0  0  -0.513888  -0.70276  0  1.781686  0
O  O51  1  0.31800813  0.47718863  0.94413480  1  0  -0.705838  0  1.51475  0  0  -0.720038  0  1.775499  0  0  -0.746715  0  1.767013  0  0  -0.513873  -0.702768  0  1.781662  0
O  O52  1  0.15918405  0.68199375  0.61080354  1  0  -0.705869  0  1.514781  0  0  -0.720066  0  1.775534  0  0  -0.746726  0  1.767019  0  0  -0.513876  -0.70279  0  1.781686  0
O  O53  1  0.52280833  0.84081913  0.27746638  1  0  -0.705809  0  1.514837  0  0  -0.720012  0  1.775565  0  0  -0.746683  0  1.767078  0  0  -0.513875  -0.702742  0  1.781723  0
O  O54  1  0.28214975  0.91126419  0.10123985  1  0  -0.85232  0  1.910704  0  0  -0.795001  0  2.119476  0  0  -0.816222  0  2.0824  0  0  -0.578576  -0.779936  0  2.145033  0
O  O55  1  0.08874192  0.37088807  0.43457091  1  0  -0.85232  0  1.910709  0  0  -0.795011  0  2.119502  0  0  -0.816225  0  2.082406  0  0  -0.578582  -0.77995  0  2.145061  0
O  O56  1  0.62911652  0.71785242  0.76790667  1  0  -0.852323  0  1.910698  0  0  -0.794996  0  2.119453  0  0  -0.816212  0  2.082369  0  0  -0.578585  -0.779931  0  2.145011  0
O  O57  1  0.91126291  0.28215481  0.89876791  1  0  -0.852512  0  1.910491  0  0  -0.795172  0  2.119177  0  0  -0.816408  0  2.082145  0  0  -0.578636  -0.780104  0  2.144743  0
O  O58  1  0.37089246  0.08873792  0.56543584  1  0  -0.852499  0  1.91053  0  0  -0.795174  0  2.119239  0  0  -0.816412  0  2.082202  0  0  -0.578653  -0.78011  0  2.144805  0
O  O59  1  0.71784470  0.62910719  0.23209996  1  0  -0.852427  0  1.910649  0  0  -0.795091  0  2.119362  0  0  -0.816319  0  2.082312  0  0  -0.578637  -0.780021  0  2.144928  0
F  F60  1  0.48845717  0.69400353  0.08619906  1  0  -0.549513  0  0.886979  0  0  -0.51141  0  1.057331  0  0  -0.534263  0  1.04327  0  0  -0.320067  -0.495259  0  1.066827  0
F  F61  1  0.30600895  0.79446121  0.41953208  1  0  -0.549507  0  0.88712  0  0  -0.5114  0  1.057481  0  0  -0.534241  0  1.043411  0  0  -0.320084  -0.495247  0  1.066975  0
F  F62  1  0.20555288  0.51154277  0.75286870  1  0  -0.549498  0  0.886841  0  0  -0.51141  0  1.057189  0  0  -0.53426  0  1.043128  0  0  -0.320052  -0.495252  0  1.06668  0
F  F63  1  0.69400281  0.48845958  0.91380809  1  0  -0.549568  0  0.887188  0  0  -0.511418  0  1.057559  0  0  -0.534271  0  1.043498  0  0  -0.320049  -0.495265  0  1.067056  0
F  F64  1  0.79446462  0.30600585  0.58047624  1  0  -0.549506  0  0.887296  0  0  -0.511351  0  1.057677  0  0  -0.534212  0  1.043621  0  0  -0.320032  -0.495196  0  1.067169  0
F  F65  1  0.51153133  0.20554438  0.24713697  1  0  -0.549579  0  0.886994  0  0  -0.511416  0  1.057349  0  0  -0.534269  0  1.043288  0  0  -0.320032  -0.495261  0  1.066843  0
F  F66  1  0.84918729  0.69672308  0.05274066  1  0  -0.632477  0  0.952618  0  0  -0.58351  0  1.16668  0  0  -0.605381  0  1.144939  0  0  -0.348497  -0.567597  0  1.181314  0
F  F67  1  0.30328162  0.15246642  0.38607343  1  0  -0.632447  0  0.952557  0  0  -0.58347  0  1.166615  0  0  -0.605344  0  1.144878  0  0  -0.348476  -0.567556  0  1.181246  0
F  F68  1  0.84753086  0.15081043  0.71940669  1  0  -0.632472  0  0.952614  0  0  -0.583504  0  1.166683  0  0  -0.605373  0  1.144942  0  0  -0.348487  -0.567587  0  1.181316  0
F  F69  1  0.69672088  0.84919479  0.94726973  1  0  -0.632538  0  0.952659  0  0  -0.583472  0  1.166639  0  0  -0.605342  0  1.144902  0  0  -0.348436  -0.56756  0  1.181273  0
F  F70  1  0.15246917  0.30327758  0.61393575  1  0  -0.632518  0  0.95267  0  0  -0.583446  0  1.166644  0  0  -0.605319  0  1.144905  0  0  -0.348438  -0.567532  0  1.181277  0
F  F71  1  0.15080055  0.84752244  0.28060462  1  0  -0.632508  0  0.952647  0  0  -0.583466  0  1.16666  0  0  -0.60534  0  1.144924  0  0  -0.348417  -0.567549  0  1.181293  0
