# generated using pymatgen
data_CoCu2H12(C3N2)4
_symmetry_space_group_name_H-M   'P 1'
_cell_length_a   6.09916580
_cell_length_b   10.94795302
_cell_length_c   10.94791812
_cell_angle_alpha   90.00044851
_cell_angle_beta   90.00001405
_cell_angle_gamma   89.99969910
_symmetry_Int_Tables_number   1
_chemical_formula_structural   CoCu2H12(C3N2)4
_chemical_formula_sum   'Co2 Cu4 H24 C24 N16'
_cell_volume   731.02950335
_cell_formula_units_Z   2
loop_
 _symmetry_equiv_pos_site_id
 _symmetry_equiv_pos_as_xyz
  1  'x, y, z'
loop_
 _atom_site_type_symbol
 _atom_site_label
 _atom_site_symmetry_multiplicity
 _atom_site_fract_x
 _atom_site_fract_y
 _atom_site_fract_z
 _atom_site_occupancy
 _atom_site_hle17_ddec_charge
 _atom_site_hle17_ddec_spin_density
 _atom_site_hle17_ddec_sum_bond_order
 _atom_site_hle17_magmom
 _atom_site_hse06_10hf_ddec_charge
 _atom_site_hse06_10hf_ddec_spin_density
 _atom_site_hse06_10hf_ddec_sum_bond_order
 _atom_site_hse06_10hf_magmom
 _atom_site_hse06_ddec_charge
 _atom_site_hse06_ddec_spin_density
 _atom_site_hse06_ddec_sum_bond_order
 _atom_site_hse06_magmom
 _atom_site_pbe_cm5_charge
 _atom_site_pbe_ddec_charge
 _atom_site_pbe_ddec_spin_density
 _atom_site_pbe_ddec_sum_bond_order
 _atom_site_pbe_magmom
Co  Co0  1  0.99999027  0.50000173  0.50000209  1  0.800852  2.828544  2.243832  2.498  0.738995  2.809228  2.679456  2.541  0.819638  2.863305  2.612995  2.638  0.718796  0.675199  2.759139  2.731814  2.453
Co  Co1  1  0.50000328  0.99999925  0.99999954  1  0.800886  -2.828548  2.243688  -2.498  0.73899  -2.809235  2.679263  -2.541  0.819695  -2.863315  2.612758  -2.638  0.718769  0.675233  -2.759144  2.731615  -2.453
Cu  Cu2  1  0.66079156  0.50000327  0.99999942  1  0.391149  0.002864  1.733392  0.003  0.26213  0.002467  2.177589  0.003  0.283289  0.001261  2.125974  0.002  0.472394  0.247347  0.001941  2.215393  0.003
Cu  Cu3  1  0.33920718  0.00000055  0.49999919  1  0.391135  0.002863  1.733438  0.003  0.262114  0.002465  2.177632  0.003  0.283275  0.00126  2.126031  0.002  0.472389  0.247329  0.001941  2.215437  0.003
Cu  Cu4  1  0.83921675  0.99999954  0.49999856  1  0.391096  -0.002864  1.733397  -0.003  0.262036  -0.002465  2.1776  -0.003  0.283199  -0.00126  2.125979  -0.002  0.472356  0.247235  -0.001941  2.215431  -0.003
Cu  Cu5  1  0.16078356  0.49999917  0.00000105  1  0.391112  -0.002865  1.733301  -0.003  0.262059  -0.002466  2.177502  -0.003  0.283225  -0.001262  2.12587  -0.002  0.472356  0.24726  -0.001941  2.215336  -0.003
H  H6  1  0.07285492  0.22459413  0.39967779  1  0.075411  -0.00018  0.962975  0.0  0.08424  3.5e-05  1.031046  0.0  0.086021  1e-05  1.028743  0.0  0.120135  0.082607  3.5e-05  1.033522  0.0
H  H7  1  0.07285237  0.77541021  0.60032265  1  0.075401  -0.000179  0.963014  0.0  0.084248  3.5e-05  1.031056  0.0  0.086029  9e-06  1.028753  0.0  0.120138  0.08264  3.5e-05  1.0335  0.0
H  H8  1  0.92715135  0.39968188  0.77541114  1  0.075386  -0.000179  0.962991  0.0  0.084229  3.5e-05  1.031051  0.0  0.086012  1e-05  1.028748  0.0  0.12013  0.082599  3.5e-05  1.033527  0.0
H  H9  1  0.92715025  0.60032271  0.22458665  1  0.075313  -0.00018  0.962986  0.0  0.084173  3.5e-05  1.031029  0.0  0.085954  1e-05  1.028726  0.0  0.12011  0.082575  3.5e-05  1.033461  0.0
H  H10  1  0.42714425  0.27540781  0.89967261  1  0.07537  0.000179  0.962945  0.0  0.084217  -3.5e-05  1.031  0.0  0.085996  -9e-06  1.028701  0.0  0.120119  0.082594  -3.5e-05  1.033464  0.0
H  H11  1  0.42713863  0.72458910  0.10032969  1  0.075457  0.000179  0.962909  0.0  0.084282  -3.5e-05  1.030989  0.0  0.086062  -9e-06  1.028687  0.0  0.120143  0.082655  -3.5e-05  1.033454  0.0
H  H12  1  0.57286319  0.10032402  0.27540895  1  0.075405  0.000178  0.962943  0.0  0.084234  -3.5e-05  1.031011  0.0  0.086017  -9e-06  1.028705  0.0  0.120123  0.082596  -3.5e-05  1.033494  0.0
H  H13  1  0.57286118  0.89967429  0.72458880  1  0.0754  0.000179  0.962908  0.0  0.08423  -3.5e-05  1.030981  0.0  0.086012  -9e-06  1.028676  0.0  0.120114  0.082603  -3.5e-05  1.033443  0.0
H  H14  1  0.37831386  0.42445224  0.68166827  1  0.097714  0.000204  0.986239  0.001  0.106374  0.000471  1.050595  0.001  0.107459  0.000341  1.051804  0.001  0.109715  0.105646  0.00058  1.04984  0.001
H  H15  1  0.37830976  0.57554847  0.31833403  1  0.097707  0.000204  0.986242  0.001  0.106374  0.000471  1.05058  0.001  0.10746  0.000341  1.051788  0.001  0.109726  0.105646  0.00058  1.049826  0.001
H  H16  1  0.62167704  0.68166941  0.57554774  1  0.097737  0.000203  0.986149  0.001  0.106399  0.000471  1.050491  0.001  0.107486  0.000341  1.051697  0.001  0.109681  0.105664  0.00058  1.049735  0.001
H  H17  1  0.62168199  0.31833423  0.42445001  1  0.097724  0.000204  0.986192  0.001  0.106404  0.000471  1.050502  0.001  0.107491  0.000341  1.051707  0.001  0.10971  0.105679  0.00058  1.049751  0.001
H  H18  1  0.12168519  0.07554616  0.18166680  1  0.097701  -0.000202  0.986237  -0.001  0.106373  -0.000471  1.05056  -0.001  0.107459  -0.000341  1.051768  -0.001  0.10973  0.105644  -0.00058  1.049806  -0.001
H  H19  1  0.12168792  0.92445073  0.81833638  1  0.097624  -0.000202  0.986279  -0.001  0.106308  -0.000471  1.050596  -0.001  0.107394  -0.000341  1.051805  -0.001  0.109714  0.105587  -0.00058  1.049843  -0.001
H  H20  1  0.87831627  0.81833281  0.07554272  1  0.097625  -0.000204  0.986306  -0.001  0.106311  -0.000471  1.050609  -0.001  0.107397  -0.000341  1.051816  -0.001  0.109695  0.105584  -0.00058  1.049857  -0.001
H  H21  1  0.87831623  0.18166095  0.92445871  1  0.097617  -0.000204  0.98633  -0.001  0.106318  -0.000471  1.0506  -0.001  0.107403  -0.000341  1.051809  -0.001  0.109728  0.105596  -0.00058  1.049852  -0.001
H  H22  1  0.55501945  0.19156732  0.67492545  1  0.093091  0.000257  1.025423  0.0  0.100867  0.000337  1.089972  0.0  0.101469  0.000259  1.092789  0.0  0.10552  0.100307  0.000409  1.088352  0.0
H  H23  1  0.55501808  0.80843287  0.32507230  1  0.093125  0.000257  1.025407  0.0  0.10091  0.000337  1.089948  0.0  0.101513  0.000259  1.092763  0.0  0.105517  0.10035  0.000409  1.088322  0.0
H  H24  1  0.44498084  0.67493508  0.80843308  1  0.093079  0.000258  1.025445  0.0  0.100841  0.000336  1.090029  0.0  0.101445  0.000259  1.09284  0.0  0.10548  0.100277  0.00041  1.088405  0.0
H  H25  1  0.44498232  0.32506817  0.19156009  1  0.093064  0.000257  1.025443  0.0  0.100873  0.000336  1.089952  0.0  0.101478  0.000259  1.092766  0.0  0.105488  0.100311  0.00041  1.088333  0.0
H  H26  1  0.94497864  0.30843230  0.17493132  1  0.093137  -0.000258  1.025413  0.0  0.1009  -0.000336  1.089977  0.0  0.1015  -0.000259  1.092801  0.0  0.105513  0.100341  -0.000409  1.088349  0.0
H  H27  1  0.94497866  0.69156675  0.82507104  1  0.093125  -0.000258  1.025424  0.0  0.100892  -0.000336  1.089976  0.0  0.10149  -0.000259  1.092806  0.0  0.105508  0.100331  -0.000409  1.088344  0.0
H  H28  1  0.05502339  0.82506587  0.30842808  1  0.093114  -0.000257  1.02545  0.0  0.100891  -0.000337  1.090011  0.0  0.101497  -0.000259  1.09282  0.0  0.105509  0.100322  -0.000409  1.088394  0.0
H  H29  1  0.05501673  0.17492848  0.69157418  1  0.093138  -0.000257  1.025459  0.0  0.100939  -0.000336  1.089978  0.0  0.101544  -0.000259  1.09279  0.0  0.105542  0.100373  -0.000409  1.088373  0.0
C  C30  1  0.82037044  0.52423932  0.24668096  1  0.170943  0.000501  3.747068  0.001  0.130055  0.004847  4.00465  0.007  0.144019  0.003801  4.02118  0.005  0.109601  0.120234  0.00599  3.9935  0.008
C  C31  1  0.82037081  0.47576375  0.75331865  1  0.170905  0.000484  3.747078  0.001  0.130038  0.004848  4.004633  0.007  0.144002  0.003801  4.021163  0.005  0.109627  0.12024  0.005991  3.993519  0.008
C  C32  1  0.17963009  0.24668059  0.47575718  1  0.170875  0.000494  3.74698  0.001  0.129995  0.004848  4.00452  0.007  0.143958  0.0038  4.021051  0.005  0.109598  0.120205  0.00599  3.993399  0.008
C  C33  1  0.17962444  0.75332344  0.52424327  1  0.170891  0.000481  3.746913  0.001  0.129993  0.004847  4.004464  0.007  0.143958  0.003799  4.02099  0.005  0.109556  0.120175  0.00599  3.993322  0.008
C  C34  1  0.67963937  0.97575603  0.74667915  1  0.170861  -0.000491  3.747052  -0.001  0.129973  -0.004848  4.004613  -0.007  0.143935  -0.003799  4.021149  -0.005  0.109632  0.120179  -0.00599  3.993466  -0.008
C  C35  1  0.67963880  0.02424106  0.25331952  1  0.170932  -0.000476  3.747063  -0.001  0.130051  -0.004847  4.004622  -0.007  0.144014  -0.003798  4.021152  -0.005  0.109615  0.120261  -0.005989  3.993509  -0.008
C  C36  1  0.32036092  0.25331920  0.97575821  1  0.170873  -0.00049  3.747186  -0.001  0.129981  -0.004846  4.004757  -0.007  0.143944  -0.003799  4.021293  -0.005  0.109607  0.120183  -0.005989  3.993633  -0.008
C  C37  1  0.32036325  0.74667802  0.02424682  1  0.170801  -0.000486  3.746982  -0.001  0.129897  -0.004847  4.004545  -0.007  0.14386  -0.0038  4.021077  -0.005  0.109548  0.120098  -0.00599  3.99341  -0.008
C  C38  1  0.33928264  0.34757559  0.62299288  1  -0.021538  -0.002389  3.751043  -0.003  -0.046676  0.00155  4.008879  0.002  -0.04463  0.00075  4.031991  0.001  -0.017047  -0.04832  0.00198  3.992957  0.002
C  C39  1  0.33928605  0.65242614  0.37700758  1  -0.021485  -0.002386  3.750989  -0.003  -0.046614  0.001551  4.008813  0.002  -0.044568  0.00075  4.031923  0.001  -0.017087  -0.048269  0.00198  3.992892  0.002
C  C40  1  0.66071055  0.62299750  0.65242606  1  -0.021502  -0.002374  3.750777  -0.003  -0.046605  0.00155  4.008629  0.002  -0.04456  0.000753  4.031739  0.001  -0.017  -0.04825  0.00198  3.992697  0.002
C  C41  1  0.66071162  0.37700603  0.34756896  1  -0.021572  -0.002389  3.75118  -0.003  -0.046693  0.00155  4.009045  0.002  -0.044646  0.000752  4.032159  0.001  -0.017027  -0.048346  0.00198  3.993132  0.002
C  C42  1  0.16071474  0.15242326  0.12299111  1  -0.021404  0.002365  3.751013  0.003  -0.046533  -0.00155  4.008818  -0.002  -0.044486  -0.000751  4.03193  -0.001  -0.017032  -0.048181  -0.00198  3.9929  -0.002
C  C43  1  0.16071331  0.84757443  0.87701116  1  -0.021399  0.002363  3.750901  0.003  -0.046549  -0.00155  4.008741  -0.002  -0.044503  -0.000751  4.031853  -0.001  -0.017078  -0.048216  -0.00198  3.992831  -0.002
C  C44  1  0.83929265  0.87700898  0.15242332  1  -0.021428  0.002382  3.751156  0.003  -0.046545  -0.001549  4.008979  -0.002  -0.044498  -0.000752  4.032095  -0.001  -0.017022  -0.0482  -0.00198  3.99306  -0.002
C  C45  1  0.83929148  0.12298490  0.84757902  1  -0.021364  0.002381  3.751148  0.003  -0.046493  -0.00155  4.008968  -0.002  -0.044445  -0.000753  4.032086  -0.001  -0.017032  -0.048152  -0.00198  3.993065  -0.002
C  C46  1  0.42795924  0.23206070  0.61913600  1  -0.042407  0.006048  3.76714  0.008  -0.066489  0.003703  4.010849  0.005  -0.065989  0.002733  4.032842  0.004  -0.026059  -0.066535  0.004791  3.996171  0.006
C  C47  1  0.42795829  0.76794077  0.38086448  1  -0.042498  0.006043  3.767125  0.008  -0.066588  0.003703  4.010813  0.005  -0.066089  0.002733  4.032803  0.004  -0.026078  -0.066638  0.004791  3.996128  0.006
C  C48  1  0.57203782  0.61913983  0.76794115  1  -0.042444  0.006033  3.767129  0.008  -0.066494  0.003704  4.010777  0.005  -0.065991  0.002734  4.032765  0.004  -0.026003  -0.066539  0.004793  3.996086  0.006
C  C49  1  0.57204371  0.38086670  0.23205751  1  -0.042471  0.006048  3.767273  0.008  -0.066574  0.003703  4.010968  0.005  -0.066075  0.002734  4.032954  0.004  -0.026094  -0.06662  0.004792  3.996293  0.006
C  C50  1  0.07203649  0.26793812  0.11913786  1  -0.042541  -0.006027  3.767125  -0.008  -0.0666  -0.003704  4.010836  -0.005  -0.066103  -0.002732  4.032822  -0.004  -0.026049  -0.066644  -0.004791  3.996159  -0.006
C  C51  1  0.07203451  0.73205800  0.88086441  1  -0.042524  -0.006024  3.767061  -0.008  -0.066607  -0.003703  4.010791  -0.005  -0.066109  -0.002733  4.032773  -0.004  -0.026064  -0.066652  -0.004791  3.996108  -0.006
C  C52  1  0.92796217  0.88086116  0.26793754  1  -0.042467  -0.006041  3.767277  -0.008  -0.066543  -0.003703  4.010923  -0.005  -0.066047  -0.002732  4.032912  -0.004  -0.026042  -0.066583  -0.004791  3.996228  -0.006
C  C53  1  0.92795933  0.11913428  0.73206299  1  -0.042597  -0.00604  3.767282  -0.008  -0.066717  -0.003704  4.010996  -0.005  -0.066217  -0.002732  4.032981  -0.004  -0.026135  -0.066764  -0.004792  3.996322  -0.006
N  N54  1  0.67389980  0.47442535  0.16797081  1  -0.386186  0.00263  3.509736  0.004  -0.29275  0.002554  3.803829  0.004  -0.311574  0.001634  3.811728  0.002  -0.431528  -0.279514  0.002917  3.798287  0.004
N  N55  1  0.67389647  0.52557906  0.83202603  1  -0.386229  0.002642  3.509678  0.004  -0.2928  0.002554  3.803761  0.004  -0.311623  0.001635  3.811657  0.002  -0.431589  -0.279563  0.002918  3.798214  0.004
N  N56  1  0.32611280  0.16797271  0.52557366  1  -0.386265  0.002632  3.509683  0.004  -0.292821  0.002553  3.803756  0.004  -0.31165  0.001635  3.811664  0.002  -0.43156  -0.279582  0.002916  3.798207  0.004
N  N57  1  0.32610966  0.83202998  0.47442589  1  -0.386231  0.00264  3.509569  0.004  -0.292777  0.002553  3.803648  0.004  -0.311603  0.001635  3.811549  0.002  -0.431552  -0.279541  0.002917  3.798099  0.004
N  N58  1  0.82611796  0.02557148  0.66797372  1  -0.386162  -0.002636  3.50963  -0.004  -0.292715  -0.002554  3.8037  -0.004  -0.311537  -0.001634  3.811593  -0.002  -0.431534  -0.279477  -0.002917  3.79814  -0.004
N  N59  1  0.82611995  0.97442609  0.33202497  1  -0.386307  -0.002642  3.509659  -0.004  -0.292848  -0.002553  3.803725  -0.004  -0.311674  -0.001635  3.811621  -0.002  -0.431606  -0.279609  -0.002917  3.79817  -0.004
N  N60  1  0.17388288  0.33202447  0.02557329  1  -0.386254  -0.002639  3.509664  -0.004  -0.292853  -0.002554  3.803775  -0.004  -0.311674  -0.001634  3.811657  -0.002  -0.431601  -0.279617  -0.002917  3.798227  -0.004
N  N61  1  0.17388155  0.66797318  0.97442898  1  -0.386185  -0.002642  3.509569  -0.004  -0.292726  -0.002553  3.803614  -0.004  -0.311548  -0.001634  3.811499  -0.002  -0.431524  -0.279492  -0.002917  3.798055  -0.004
N  N62  1  0.81771300  0.46774517  0.35612255  1  -0.3826  0.04955  3.377767  0.072  -0.331282  0.03571  3.688879  0.042  -0.36318  0.02789  3.70674  0.031  -0.386157  -0.306763  0.04261  3.675873  0.051
N  N63  1  0.81771441  0.53225608  0.64387614  1  -0.382728  0.049558  3.37768  0.072  -0.331431  0.035713  3.688826  0.042  -0.36333  0.027893  3.706685  0.031  -0.386243  -0.306911  0.042614  3.67581  0.051
N  N64  1  0.18228077  0.35612227  0.53225420  1  -0.382628  0.049551  3.377631  0.072  -0.331264  0.035706  3.688716  0.042  -0.363158  0.027887  3.706575  0.031  -0.386148  -0.306743  0.042606  3.675699  0.051
N  N65  1  0.18227776  0.64388083  0.46774717  1  -0.382709  0.049556  3.377531  0.072  -0.331336  0.035707  3.688626  0.042  -0.363234  0.027889  3.706487  0.031  -0.386115  -0.306819  0.04261  3.675609  0.051
N  N66  1  0.68229011  0.03224765  0.85612092  1  -0.382651  -0.049553  3.377791  -0.072  -0.3313  -0.035709  3.688871  -0.042  -0.363213  -0.02789  3.706748  -0.031  -0.386199  -0.30679  -0.042611  3.675862  -0.051
N  N67  1  0.68229042  0.96774760  0.14387867  1  -0.382659  -0.049559  3.37777  -0.072  -0.331341  -0.035709  3.688874  -0.042  -0.363253  -0.02789  3.706746  -0.031  -0.386151  -0.306829  -0.042611  3.675865  -0.051
N  N68  1  0.31771327  0.14387953  0.03224872  1  -0.382661  -0.049545  3.377808  -0.072  -0.331287  -0.035708  3.688869  -0.042  -0.363198  -0.027888  3.706742  -0.031  -0.386147  -0.306775  -0.042608  3.675864  -0.051
N  N69  1  0.31771345  0.85611862  0.96775266  1  -0.382673  -0.049548  3.377604  -0.072  -0.33128  -0.035707  3.688651  -0.042  -0.363193  -0.027889  3.706526  -0.031  -0.38613  -0.306771  -0.04261  3.675643  -0.051
