# generated using pymatgen
data_NiP2H22(CO)10
_symmetry_space_group_name_H-M   'P 1'
_cell_length_a   4.87915405
_cell_length_b   6.92830509
_cell_length_c   11.84962641
_cell_angle_alpha   97.56532219
_cell_angle_beta   90.24680734
_cell_angle_gamma   105.26718659
_symmetry_Int_Tables_number   1
_chemical_formula_structural   NiP2H22(CO)10
_chemical_formula_sum   'Ni1 P2 H22 C10 O10'
_cell_volume   382.74924616
_cell_formula_units_Z   1
loop_
 _symmetry_equiv_pos_site_id
 _symmetry_equiv_pos_as_xyz
  1  'x, y, z'
loop_
 _atom_site_type_symbol
 _atom_site_label
 _atom_site_symmetry_multiplicity
 _atom_site_fract_x
 _atom_site_fract_y
 _atom_site_fract_z
 _atom_site_occupancy
 _atom_site_pbe_cm5_charge
 _atom_site_pbe_ddec_charge
 _atom_site_pbe_ddec_spin_density
 _atom_site_pbe_ddec_sum_bond_order
 _atom_site_pbe_magmom
Ni  Ni0  1  0.00000630  0.99999741  0.00000096  1  0.6134  1.047522  0.00793  2.160249  0.008
P  P1  1  0.79151055  0.28497936  0.79968330  1  0.369597  1.332957  -0.000713  5.238019  -0.001
P  P2  1  0.20849176  0.71502149  0.20031384  1  0.369557  1.332826  -0.000713  5.238169  -0.001
H  H3  1  0.26333216  0.41869622  0.80348988  1  0.313645  0.398328  1.1e-05  0.932264  0.0
H  H4  1  0.73668267  0.58129527  0.19650831  1  0.313643  0.398315  1.1e-05  0.932271  0.0
H  H5  1  0.60864333  0.15138324  0.08681008  1  0.296596  0.390208  -0.000419  0.94859  0.0
H  H6  1  0.39136952  0.84860830  0.91318725  1  0.296561  0.390166  -0.000418  0.948667  0.0
H  H7  1  0.87972401  0.26685795  0.15951799  1  0.304837  0.391041  -0.000706  0.93159  -0.001
H  H8  1  0.12028558  0.73313061  0.84047907  1  0.304826  0.390967  -0.000706  0.931681  -0.001
H  H9  1  0.43086289  0.28829602  0.95588795  1  0.301033  0.387578  0.000352  0.956606  0.0
H  H10  1  0.56915822  0.71170599  0.04411199  1  0.301004  0.387536  0.000352  0.956654  0.0
H  H11  1  0.34326603  0.36693139  0.07896006  1  0.300042  0.392757  0.000704  0.943889  0.001
H  H12  1  0.65675121  0.63306613  0.92103948  1  0.300022  0.392682  0.000704  0.943999  0.001
H  H13  1  0.05718729  0.36732980  0.52302901  1  0.094845  0.096643  7e-06  1.038278  0.0
H  H14  1  0.94279085  0.63266229  0.47696973  1  0.094768  0.096481  7e-06  1.038153  0.0
H  H15  1  0.44343538  0.08054269  0.66586101  1  0.114354  0.158075  -1.8e-05  0.99818  0.0
H  H16  1  0.55654649  0.91944921  0.33414450  1  0.114378  0.15814  -1.8e-05  0.998117  0.0
H  H17  1  0.61033713  0.31295270  0.62000074  1  0.10554  0.137533  -0.000117  1.030912  0.0
H  H18  1  0.38963908  0.68704538  0.38000437  1  0.105549  0.137596  -0.000117  1.030824  0.0
H  H19  1  0.58986537  0.58499576  0.61118338  1  0.084072  0.114974  -3e-06  1.045452  0.0
H  H20  1  0.41014083  0.41501552  0.38882223  1  0.084094  0.11494  -3e-06  1.045463  0.0
H  H21  1  0.37506666  0.75645042  0.61981494  1  0.088109  0.123058  -8.9e-05  1.039512  0.0
H  H22  1  0.62491164  0.24354765  0.38018934  1  0.088127  0.123058  -8.9e-05  1.039489  0.0
H  H23  1  0.64305296  0.78682545  0.72579515  1  0.095735  0.148298  -0.000249  1.000147  0.0
H  H24  1  0.35694597  0.21318757  0.27420546  1  0.095738  0.148287  -0.000249  1.000147  0.0
C  C25  1  0.03091065  0.20440243  0.51211959  1  -0.100832  -0.217115  0.000212  3.98915  0.0
C  C26  1  0.96907304  0.79561383  0.48788452  1  -0.100705  -0.216902  0.000212  3.989344  0.0
C  C27  1  0.80205266  0.87718880  0.56619747  1  -0.01351  0.113189  -0.000241  3.963388  0.0
C  C28  1  0.19794286  0.12281526  0.43379733  1  -0.013524  0.113163  -0.000241  3.963361  0.0
C  C29  1  0.65215420  0.18473895  0.65579078  1  -0.163453  -0.49756  -0.000441  3.956169  0.0
C  C30  1  0.34782554  0.81526222  0.34420955  1  -0.163483  -0.497625  -0.00044  3.955969  0.0
C  C31  1  0.83339817  0.08685594  0.57796204  1  -0.012577  0.105745  -9.4e-05  3.972557  0.0
C  C32  1  0.16656985  0.91315154  0.42203699  1  -0.012613  0.105702  -9.5e-05  3.97281  0.0
C  C33  1  0.59244172  0.74389315  0.63406902  1  -0.24603  -0.406096  -0.000372  3.939835  0.0
C  C34  1  0.40754790  0.25611238  0.36593344  1  -0.246074  -0.406048  -0.000371  3.939896  0.0
O  O35  1  0.58092824  0.40253854  0.85089292  1  -0.363592  -0.756715  0.001737  2.221208  0.002
O  O36  1  0.41908407  0.59746208  0.14910767  1  -0.363578  -0.756749  0.001737  2.221243  0.002
O  O37  1  0.84084644  0.12357666  0.86375714  1  -0.368102  -0.776234  -0.003789  2.311121  -0.004
O  O38  1  0.15916539  0.87642250  0.13624080  1  -0.36809  -0.776183  -0.003789  2.311285  -0.004
O  O39  1  0.08219890  0.45669772  0.78780874  1  -0.385377  -0.664374  -0.000319  2.246229  0.0
O  O40  1  0.91781190  0.54329386  0.21218857  1  -0.385364  -0.664336  -0.000319  2.246221  0.0
O  O41  1  0.78253413  0.12978201  0.12241506  1  -0.567352  -0.74045  -0.04235  2.164764  -0.044
O  O42  1  0.21747818  0.87020805  0.87758047  1  -0.567349  -0.740368  -0.042349  2.164767  -0.044
O  O43  1  0.35362406  0.23981189  0.02905505  1  -0.554259  -0.755564  0.042931  2.254115  0.045
O  O44  1  0.64638650  0.76018423  0.97094348  1  -0.554208  -0.75545  0.042933  2.254179  0.045
