# generated using pymatgen
data_BaH8C4O7
_symmetry_space_group_name_H-M   'P 1'
_cell_length_a   7.64776559
_cell_length_b   10.49356604
_cell_length_c   10.28575198
_cell_angle_alpha   102.19499881
_cell_angle_beta   90.00362841
_cell_angle_gamma   89.99953595
_symmetry_Int_Tables_number   1
_chemical_formula_structural   BaH8C4O7
_chemical_formula_sum   'Ba4 H32 C16 O28'
_cell_volume   806.82864182
_cell_formula_units_Z   4
loop_
 _symmetry_equiv_pos_site_id
 _symmetry_equiv_pos_as_xyz
  1  'x, y, z'
loop_
 _atom_site_type_symbol
 _atom_site_label
 _atom_site_symmetry_multiplicity
 _atom_site_fract_x
 _atom_site_fract_y
 _atom_site_fract_z
 _atom_site_occupancy
 _atom_site_hle17_bader_spin_density
 _atom_site_hle17_ddec_charge
 _atom_site_hle17_ddec_spin_density
 _atom_site_hle17_ddec_sum_bond_order
 _atom_site_hle17_magmom
 _atom_site_hse06_10hf_bader_spin_density
 _atom_site_hse06_10hf_ddec_charge
 _atom_site_hse06_10hf_ddec_spin_density
 _atom_site_hse06_10hf_ddec_sum_bond_order
 _atom_site_hse06_10hf_magmom
 _atom_site_hse06_bader_spin_density
 _atom_site_hse06_ddec_charge
 _atom_site_hse06_ddec_spin_density
 _atom_site_hse06_ddec_sum_bond_order
 _atom_site_hse06_magmom
 _atom_site_pbe_bader_spin_density
 _atom_site_pbe_cm5_charge
 _atom_site_pbe_ddec_charge
 _atom_site_pbe_ddec_spin_density
 _atom_site_pbe_ddec_sum_bond_order
 _atom_site_pbe_magmom
Ba  Ba0  1  0.74641551  0.61713555  0.79061928  1  0  1.648883  0  1.046082  0  0  1.49698  0  1.424909  0  0  1.539076  0  1.380479  0  0  0.919326  1.466152  0  1.456498  0
Ba  Ba1  1  0.24643687  0.88286471  0.70936738  1  0  1.648823  0  1.046167  0  0  1.496969  0  1.425008  0  0  1.53907  0  1.380571  0  0  0.919326  1.466137  0  1.456594  0
Ba  Ba2  1  0.25357785  0.38286609  0.20938231  1  0  1.648892  0  1.046112  0  0  1.496985  0  1.424911  0  0  1.539081  0  1.380477  0  0  0.919287  1.466156  0  1.456506  0
Ba  Ba3  1  0.75356565  0.11713723  0.29063913  1  0  1.648874  0  1.046089  0  0  1.497033  0  1.42488  0  0  1.539128  0  1.380444  0  0  0.919318  1.466196  0  1.45647  0
H  H4  1  0.81265296  0.19776707  0.81955059  1  0  0.059586  0  0.93949  0  0  0.068053  0  1.002828  0  0  0.070249  0  1.001345  0  0  0.112835  0.066079  0  1.00468  0
H  H5  1  0.31264262  0.30222538  0.68045401  1  0  0.059574  0  0.939567  0  0  0.068012  0  1.002966  0  0  0.070204  0  1.001481  0  0  0.112846  0.066041  0  1.004818  0
H  H6  1  0.18736393  0.80222885  0.18045206  1  0  0.059649  0  0.939534  0  0  0.06802  0  1.002994  0  0  0.070204  0  1.001525  0  0  0.112849  0.066049  0  1.004847  0
H  H7  1  0.68737035  0.69777134  0.31954585  1  0  0.059684  0  0.939548  0  0  0.068094  0  1.002984  0  0  0.07027  0  1.001519  0  0  0.112879  0.066121  0  1.00484  0
H  H8  1  0.43914586  0.27679792  0.90429706  1  0  0.110543  0  0.969261  0  0  0.123665  0  1.030917  0  0  0.12632  0  1.029348  0  0  0.112106  0.121538  0  1.032419  0
H  H9  1  0.93915173  0.22320663  0.59568203  1  0  0.110412  0  0.969422  0  0  0.123563  0  1.031102  0  0  0.126214  0  1.029533  0  0  0.112082  0.121443  0  1.032601  0
H  H10  1  0.56086057  0.72319449  0.09569531  1  0  0.110433  0  0.969327  0  0  0.123592  0  1.030988  0  0  0.126245  0  1.029418  0  0  0.112081  0.121466  0  1.032494  0
H  H11  1  0.06085210  0.77680347  0.40431600  1  0  0.110419  0  0.969405  0  0  0.123602  0  1.031033  0  0  0.126253  0  1.029464  0  0  0.112093  0.12148  0  1.032535  0
H  H12  1  0.50011507  0.11634282  0.81890384  1  0  0.101524  0  0.966273  0  0  0.114187  0  1.035391  0  0  0.116523  0  1.034079  0  0  0.11356  0.112407  0  1.036553  0
H  H13  1  0.00011037  0.38363776  0.68108574  1  0  0.101405  0  0.966478  0  0  0.114138  0  1.035535  0  0  0.116478  0  1.034228  0  0  0.113572  0.11236  0  1.036697  0
H  H14  1  0.49988353  0.88365997  0.18110085  1  0  0.101451  0  0.966303  0  0  0.114152  0  1.035419  0  0  0.116493  0  1.03411  0  0  0.113532  0.11237  0  1.036584  0
H  H15  1  0.99989607  0.61635645  0.31892055  1  0  0.101502  0  0.966274  0  0  0.114196  0  1.035407  0  0  0.116538  0  1.034101  0  0  0.113558  0.112418  0  1.036574  0
H  H16  1  0.92239292  0.86278705  0.98202492  1  0  0.418253  0  0.885248  0  0  0.388227  0  0.949318  0  0  0.399642  0  0.932586  0  0  0.298848  0.380406  0  0.960788  0
H  H17  1  0.42240669  0.63720027  0.51796772  1  0  0.418207  0  0.885369  0  0  0.388192  0  0.949394  0  0  0.399607  0  0.932662  0  0  0.2988  0.38037  0  0.960866  0
H  H18  1  0.07761352  0.13720468  0.01797222  1  0  0.418224  0  0.885257  0  0  0.388196  0  0.949354  0  0  0.399612  0  0.93262  0  0  0.298858  0.380373  0  0.960823  0
H  H19  1  0.57760497  0.36279358  0.48203267  1  0  0.418205  0  0.885341  0  0  0.38819  0  0.949379  0  0  0.399606  0  0.932647  0  0  0.298821  0.380365  0  0.960852  0
H  H20  1  0.21482924  0.58556247  0.79489775  1  0  0.420612  0  0.841501  0  0  0.401546  0  0.901624  0  0  0.409557  0  0.891686  0  0  0.328243  0.395828  0  0.908113  0
H  H21  1  0.71486874  0.91442558  0.70511091  1  0  0.420598  0  0.841556  0  0  0.401583  0  0.901544  0  0  0.40959  0  0.891608  0  0  0.328294  0.39587  0  0.908012  0
H  H22  1  0.78516804  0.41443869  0.20509598  1  0  0.420669  0  0.841424  0  0  0.401597  0  0.901558  0  0  0.40961  0  0.891616  0  0  0.328261  0.395876  0  0.908048  0
H  H23  1  0.28512724  0.08557240  0.29489401  1  0  0.420592  0  0.841552  0  0  0.401569  0  0.901566  0  0  0.409576  0  0.891635  0  0  0.328284  0.395854  0  0.90804  0
H  H24  1  0.13781700  0.47522777  0.86400714  1  0  0.416309  0  0.898759  0  0  0.382297  0  0.968465  0  0  0.394212  0  0.951255  0  0  0.293329  0.37397  0  0.980477  0
H  H25  1  0.63784575  0.02475839  0.63599246  1  0  0.416415  0  0.898673  0  0  0.382302  0  0.968489  0  0  0.394218  0  0.951279  0  0  0.293341  0.373986  0  0.980483  0
H  H26  1  0.86217898  0.52477540  0.13598787  1  0  0.416185  0  0.898944  0  0  0.382177  0  0.968641  0  0  0.394093  0  0.951431  0  0  0.293273  0.37385  0  0.980654  0
H  H27  1  0.36215807  0.97524160  0.36401375  1  0  0.416393  0  0.898711  0  0  0.382332  0  0.968459  0  0  0.394249  0  0.951248  0  0  0.293354  0.374015  0  0.980455  0
H  H28  1  0.82396583  0.95364991  0.91351148  1  0  0.422063  0  0.881863  0  0  0.392927  0  0.944343  0  0  0.404159  0  0.927666  0  0  0.297214  0.384831  0  0.956409  0
H  H29  1  0.32401290  0.54635276  0.58649757  1  0  0.422286  0  0.881663  0  0  0.393137  0  0.944136  0  0  0.404365  0  0.927463  0  0  0.297342  0.385045  0  0.956188  0
H  H30  1  0.17601969  0.04633622  0.08648868  1  0  0.422094  0  0.881831  0  0  0.393004  0  0.944218  0  0  0.40423  0  0.927551  0  0  0.297302  0.384913  0  0.956273  0
H  H31  1  0.67599615  0.45365174  0.41350349  1  0  0.42223  0  0.881694  0  0  0.393068  0  0.9442  0  0  0.404303  0  0.927517  0  0  0.297295  0.384975  0  0.95625  0
H  H32  1  0.79794231  0.38672303  0.98086886  1  0  0.387142  0  0.889511  0  0  0.365102  0  0.956069  0  0  0.375833  0  0.943776  0  0  0.308024  0.357369  0  0.964877  0
H  H33  1  0.29792769  0.11328908  0.51912642  1  0  0.387287  0  0.889398  0  0  0.365253  0  0.955935  0  0  0.375982  0  0.943643  0  0  0.308108  0.357523  0  0.964741  0
H  H34  1  0.20206152  0.61327271  0.01913084  1  0  0.387249  0  0.889452  0  0  0.36522  0  0.955968  0  0  0.375948  0  0.943682  0  0  0.3081  0.357488  0  0.964777  0
H  H35  1  0.70206567  0.88671329  0.48087138  1  0  0.387244  0  0.889496  0  0  0.365214  0  0.956019  0  0  0.375942  0  0.943731  0  0  0.308105  0.357482  0  0.964827  0
C  C36  1  0.64781261  0.26825082  0.68035319  1  0  0.633539  0  3.879672  0  0  0.58288  0  4.186923  0  0  0.61407  0  4.181481  0  0  0.22068  0.561339  0  4.190796  0
C  C37  1  0.14778668  0.23173766  0.81963650  1  0  0.633401  0  3.879812  0  0  0.582919  0  4.186839  0  0  0.614096  0  4.181416  0  0  0.220724  0.561384  0  4.190702  0
C  C38  1  0.35217814  0.73175660  0.31964832  1  0  0.633595  0  3.879636  0  0  0.583072  0  4.186669  0  0  0.614265  0  4.18122  0  0  0.220772  0.561538  0  4.190543  0
C  C39  1  0.85219491  0.76826502  0.18036622  1  0  0.633595  0  3.879841  0  0  0.583155  0  4.186813  0  0  0.614338  0  4.181376  0  0  0.220874  0.561619  0  4.190681  0
C  C40  1  0.69848869  0.26242173  0.82328402  1  0  0.138258  0  3.636255  0  0  0.115386  0  3.890615  0  0  0.117952  0  3.897953  0  0  0.000782  0.113185  0  3.886336  0
C  C41  1  0.19848792  0.23757030  0.67669976  1  0  0.138433  0  3.635998  0  0  0.115478  0  3.890468  0  0  0.118068  0  3.897799  0  0  0.000719  0.113269  0  3.886203  0
C  C42  1  0.30150860  0.73757310  0.17671652  1  0  0.138236  0  3.636289  0  0  0.115344  0  3.890736  0  0  0.117918  0  3.898069  0  0  0.00067  0.113128  0  3.886481  0
C  C43  1  0.80150936  0.76243426  0.32330229  1  0  0.138281  0  3.636485  0  0  0.115311  0  3.890998  0  0  0.117903  0  3.898323  0  0  0.0007  0.113099  0  3.886737  0
C  C44  1  0.54484831  0.20501866  0.88757477  1  0  -0.332398  0  3.667331  0  0  -0.376482  0  3.911686  0  0  -0.3818  0  3.916074  0  0  -0.160946  -0.372298  0  3.908239  0
C  C45  1  0.04484509  0.29498312  0.61239771  1  0  -0.332246  0  3.667559  0  0  -0.376518  0  3.912104  0  0  -0.381849  0  3.916497  0  0  -0.161062  -0.372344  0  3.908671  0
C  C46  1  0.45516074  0.79497343  0.11242827  1  0  -0.332171  0  3.667375  0  0  -0.37631  0  3.911569  0  0  -0.381632  0  3.915962  0  0  -0.160865  -0.372129  0  3.908134  0
C  C47  1  0.95515481  0.70502742  0.38759162  1  0  -0.332334  0  3.667538  0  0  -0.376529  0  3.911963  0  0  -0.381857  0  3.916358  0  0  -0.160979  -0.372358  0  3.908536  0
C  C48  1  0.59498401  0.16788060  0.01689076  1  0  0.734619  0  3.861692  0  0  0.689369  0  4.15796  0  0  0.723121  0  4.149628  0  0  0.214563  0.666575  0  4.162126  0
C  C49  1  0.09496227  0.33213265  0.48310652  1  0  0.734538  0  3.86228  0  0  0.689327  0  4.158465  0  0  0.723081  0  4.15013  0  0  0.214543  0.666532  0  4.162634  0
C  C50  1  0.40500804  0.83210741  0.98310873  1  0  0.734191  0  3.862179  0  0  0.689123  0  4.158215  0  0  0.722873  0  4.149889  0  0  0.214475  0.666326  0  4.162381  0
C  C51  1  0.90502979  0.66787150  0.51688864  1  0  0.7344  0  3.86242  0  0  0.689117  0  4.158722  0  0  0.722865  0  4.1504  0  0  0.214544  0.666326  0  4.162883  0
O  O52  1  0.60734288  0.37792174  0.65646300  1  0  -0.65812  0  2.008476  0  0  -0.595749  0  2.242422  0  0  -0.621314  0  2.233195  0  0  -0.340232  -0.578475  0  2.248668  0
O  O53  1  0.10734912  0.12207120  0.84352166  1  0  -0.658073  0  2.008919  0  0  -0.595735  0  2.242771  0  0  -0.621287  0  2.233531  0  0  -0.340225  -0.578459  0  2.249005  0
O  O54  1  0.39266487  0.62207901  0.34352384  1  0  -0.658296  0  2.008258  0  0  -0.595983  0  2.242168  0  0  -0.62153  0  2.232898  0  0  -0.340381  -0.578711  0  2.248413  0
O  O55  1  0.89264686  0.87792534  0.15647525  1  0  -0.658174  0  2.008979  0  0  -0.595905  0  2.242891  0  0  -0.621447  0  2.233628  0  0  -0.340317  -0.578636  0  2.249146  0
O  O56  1  0.74064983  0.39095724  0.89483660  1  0  -0.625681  0  2.106143  0  0  -0.569333  0  2.335239  0  0  -0.586676  0  2.322967  0  0  -0.43628  -0.55683  0  2.343904  0
O  O57  1  0.24064683  0.10905185  0.60515757  1  0  -0.6258  0  2.106404  0  0  -0.569431  0  2.335533  0  0  -0.586783  0  2.323262  0  0  -0.436264  -0.556928  0  2.344198  0
O  O58  1  0.25935660  0.60903918  0.10515834  1  0  -0.625731  0  2.106139  0  0  -0.569358  0  2.33523  0  0  -0.586701  0  2.322949  0  0  -0.436275  -0.556848  0  2.343902  0
O  O59  1  0.75933999  0.89095448  0.39484182  1  0  -0.625716  0  2.106478  0  0  -0.569345  0  2.335617  0  0  -0.586692  0  2.323338  0  0  -0.436295  -0.556839  0  2.344284  0
O  O60  1  0.12094308  0.56915277  0.85345429  1  0  -0.846088  0  1.809292  0  0  -0.791579  0  1.982559  0  0  -0.811378  0  1.955196  0  0  -0.56868  -0.777271  0  2.000893  0
O  O61  1  0.62096803  0.93084330  0.64656110  1  0  -0.846138  0  1.809343  0  0  -0.791564  0  1.982772  0  0  -0.811363  0  1.955389  0  0  -0.568751  -0.777265  0  2.00109  0
O  O62  1  0.87905813  0.43085241  0.14654201  1  0  -0.846036  0  1.809362  0  0  -0.791524  0  1.982639  0  0  -0.811327  0  1.95527  0  0  -0.568651  -0.777215  0  2.000977  0
O  O63  1  0.37902795  0.06916265  0.35344798  1  0  -0.846132  0  1.809278  0  0  -0.791614  0  1.982665  0  0  -0.811412  0  1.955287  0  0  -0.568741  -0.777314  0  2.000982  0
O  O64  1  0.52887632  0.23219897  0.12524537  1  0  -0.776305  0  1.993765  0  0  -0.707122  0  2.241559  0  0  -0.735982  0  2.231925  0  0  -0.427601  -0.686324  0  2.247148  0
O  O65  1  0.02886925  0.26781694  0.37474932  1  0  -0.776132  0  1.994095  0  0  -0.70703  0  2.241915  0  0  -0.735885  0  2.232282  0  0  -0.427533  -0.686233  0  2.247503  0
O  O66  1  0.47110527  0.76780894  0.87474842  1  0  -0.776111  0  1.994043  0  0  -0.706969  0  2.241755  0  0  -0.735826  0  2.232126  0  0  -0.427518  -0.68617  0  2.247343  0
O  O67  1  0.97113588  0.73218141  0.62526150  1  0  -0.776213  0  1.993773  0  0  -0.707068  0  2.24164  0  0  -0.735926  0  2.232008  0  0  -0.427621  -0.686269  0  2.247227  0
O  O68  1  0.89428645  0.87239221  0.88982149  1  0  -0.900699  0  1.791545  0  0  -0.848957  0  1.968273  0  0  -0.868985  0  1.936063  0  0  -0.616123  -0.834479  0  1.990159  0
O  O69  1  0.39432159  0.62760898  0.61017786  1  0  -0.900793  0  1.791426  0  0  -0.849156  0  1.968301  0  0  -0.869188  0  1.936081  0  0  -0.616207  -0.834674  0  1.990196  0
O  O70  1  0.10571476  0.12759970  0.11017860  1  0  -0.900749  0  1.791539  0  0  -0.849031  0  1.968268  0  0  -0.869056  0  1.936058  0  0  -0.616225  -0.834553  0  1.990154  0
O  O71  1  0.60569138  0.37238779  0.38982298  1  0  -0.900807  0  1.791522  0  0  -0.849102  0  1.968314  0  0  -0.869136  0  1.93609  0  0  -0.616178  -0.834613  0  1.990215  0
O  O72  1  0.64813890  0.16131652  0.59371688  1  0  -0.666724  0  1.981874  0  0  -0.608816  0  2.213066  0  0  -0.635202  0  2.204135  0  0  -0.3208  -0.59085  0  2.219419  0
O  O73  1  0.14814556  0.33867169  0.90628448  1  0  -0.666709  0  1.981712  0  0  -0.608903  0  2.212826  0  0  -0.635292  0  2.203903  0  0  -0.320838  -0.590931  0  2.219182  0
O  O74  1  0.35187669  0.83868963  0.40627956  1  0  -0.666609  0  1.982063  0  0  -0.608776  0  2.213215  0  0  -0.635168  0  2.204289  0  0  -0.320714  -0.590781  0  2.219503  0
O  O75  1  0.85186872  0.66132886  0.09371500  1  0  -0.666722  0  1.981632  0  0  -0.608948  0  2.212782  0  0  -0.635339  0  2.203856  0  0  -0.320872  -0.590957  0  2.219102  0
O  O76  1  0.70391693  0.07641542  0.01492795  1  0  -0.685304  0  1.967699  0  0  -0.622548  0  2.197029  0  0  -0.649344  0  2.187662  0  0  -0.34884  -0.603133  0  2.202722  0
O  O77  1  0.20391652  0.42359638  0.48510716  1  0  -0.685572  0  1.967836  0  0  -0.622569  0  2.196841  0  0  -0.649361  0  2.187472  0  0  -0.348802  -0.603159  0  2.202537  0
O  O78  1  0.29606205  0.92357345  0.98506972  1  0  -0.685152  0  1.967769  0  0  -0.622553  0  2.197108  0  0  -0.649351  0  2.187749  0  0  -0.348886  -0.603139  0  2.202799  0
O  O79  1  0.79608338  0.57643163  0.51491604  1  0  -0.685262  0  1.968194  0  0  -0.622349  0  2.197428  0  0  -0.64914  0  2.188066  0  0  -0.348793  -0.602939  0  2.203117  0
