# generated using pymatgen
data_CdH20C20(NO4)2
_symmetry_space_group_name_H-M   'P 1'
_cell_length_a   5.66853681
_cell_length_b   7.97727807
_cell_length_c   11.56775823
_cell_angle_alpha   107.89419439
_cell_angle_beta   98.63425479
_cell_angle_gamma   98.73478262
_symmetry_Int_Tables_number   1
_chemical_formula_structural   CdH20C20(NO4)2
_chemical_formula_sum   'Cd1 H20 C20 N2 O8'
_cell_volume   481.12212146
_cell_formula_units_Z   1
loop_
 _symmetry_equiv_pos_site_id
 _symmetry_equiv_pos_as_xyz
  1  'x, y, z'
loop_
 _atom_site_type_symbol
 _atom_site_label
 _atom_site_symmetry_multiplicity
 _atom_site_fract_x
 _atom_site_fract_y
 _atom_site_fract_z
 _atom_site_occupancy
 _atom_site_hle17_bader_spin_density
 _atom_site_hle17_ddec_charge
 _atom_site_hle17_ddec_spin_density
 _atom_site_hle17_ddec_sum_bond_order
 _atom_site_hle17_magmom
 _atom_site_hse06_10hf_bader_spin_density
 _atom_site_hse06_10hf_ddec_charge
 _atom_site_hse06_10hf_ddec_spin_density
 _atom_site_hse06_10hf_ddec_sum_bond_order
 _atom_site_hse06_10hf_magmom
 _atom_site_hse06_bader_spin_density
 _atom_site_hse06_ddec_charge
 _atom_site_hse06_ddec_spin_density
 _atom_site_hse06_ddec_sum_bond_order
 _atom_site_hse06_magmom
 _atom_site_pbe_bader_spin_density
 _atom_site_pbe_cm5_charge
 _atom_site_pbe_ddec_charge
 _atom_site_pbe_ddec_spin_density
 _atom_site_pbe_ddec_sum_bond_order
 _atom_site_pbe_magmom
Cd  Cd0  1  0.99999886  0.99999911  0.99999977  1  0  1.150706  0  1.679309  0  0  0.96237  0  2.120476  0  0  1.016535  0  2.068055  0  0  0.767976  0.924034  0  2.156206  0
H  H1  1  0.53105373  0.84834454  0.05864321  1  0  0.42129  0  0.879584  0  0  0.389401  0  0.944811  0  0  0.40095  0  0.928061  0  0  0.285743  0.381189  0  0.956683  0
H  H2  1  0.46894656  0.15165995  0.94135693  1  0  0.421296  0  0.879576  0  0  0.389409  0  0.9448  0  0  0.400958  0  0.928051  0  0  0.285751  0.381198  0  0.956669  0
H  H3  1  0.74997657  0.73972178  0.05418556  1  0  0.407301  0  0.911983  0  0  0.372737  0  0.983053  0  0  0.385069  0  0.965294  0  0  0.276853  0.364081  0  0.995482  0
H  H4  1  0.25001721  0.26027187  0.94580925  1  0  0.407254  0  0.912038  0  0  0.372698  0  0.983095  0  0  0.385029  0  0.965337  0  0  0.276834  0.364043  0  0.995523  0
H  H5  1  0.31326287  0.49646237  0.66050514  1  0  0.108038  0  0.967489  0  0  0.117479  0  1.029501  0  0  0.120703  0  1.028583  0  0  0.109092  0.115142  0  1.030387  0
H  H6  1  0.68676088  0.50352902  0.33950685  1  0  0.107929  0  0.967762  0  0  0.117412  0  1.029709  0  0  0.12063  0  1.028789  0  0  0.109075  0.115077  0  1.030591  0
H  H7  1  0.30135279  0.70324764  0.86522274  1  0  0.094027  0  0.960813  0  0  0.101174  0  1.025835  0  0  0.104217  0  1.022674  0  0  0.118515  0.098865  0  1.028256  0
H  H8  1  0.69865244  0.29672749  0.13479147  1  0  0.094193  0  0.960734  0  0  0.101306  0  1.025765  0  0  0.104347  0  1.022605  0  0  0.118545  0.098995  0  1.02819  0
H  H9  1  0.68529571  0.85629528  0.72169533  1  0  0.086607  0  0.949431  0  0  0.091375  0  1.017473  0  0  0.093447  0  1.016965  0  0  0.115584  0.089809  0  1.017959  0
H  H10  1  0.31471893  0.14369595  0.27830649  1  0  0.086626  0  0.949354  0  0  0.091402  0  1.017404  0  0  0.093474  0  1.0169  0  0  0.115561  0.089838  0  1.017889  0
H  H11  1  0.67143755  0.65763586  0.50937961  1  0  0.103572  0  0.972202  0  0  0.112779  0  1.034943  0  0  0.11526  0  1.035575  0  0  0.10526  0.111023  0  1.034625  0
H  H12  1  0.32861039  0.34237317  0.49062741  1  0  0.103539  0  0.971964  0  0  0.112768  0  1.03472  0  0  0.115247  0  1.035344  0  0  0.105242  0.111011  0  1.034402  0
H  H13  1  0.88050900  0.04137670  0.42195808  1  0  0.104806  0  0.968996  0  0  0.115984  0  1.029454  0  0  0.11875  0  1.028931  0  0  0.099952  0.11404  0  1.029873  0
H  H14  1  0.11945712  0.95863409  0.57803060  1  0  0.104702  0  0.969025  0  0  0.115842  0  1.029513  0  0  0.118611  0  1.028986  0  0  0.099927  0.113897  0  1.029933  0
H  H15  1  0.14335601  0.75588407  0.37216548  1  0  0.107791  0  0.978032  0  0  0.117954  0  1.040533  0  0  0.120813  0  1.039781  0  0  0.101258  0.115885  0  1.041219  0
H  H16  1  0.85662169  0.24412958  0.62783153  1  0  0.107728  0  0.978101  0  0  0.117934  0  1.040552  0  0  0.120792  0  1.039802  0  0  0.101188  0.115862  0  1.041244  0
H  H17  1  0.26872432  0.55524839  0.24062298  1  0  0.070778  0  0.968486  0  0  0.076607  0  1.042756  0  0  0.077403  0  1.043587  0  0  0.098481  0.075986  0  1.042411  0
H  H18  1  0.73127737  0.44475476  0.75937524  1  0  0.070704  0  0.968616  0  0  0.076549  0  1.042896  0  0  0.077337  0  1.043722  0  0  0.098474  0.075927  0  1.042549  0
H  H19  1  0.43066403  0.55407189  0.12001023  1  0  0.113463  0  0.911855  0  0  0.127237  0  0.967356  0  0  0.129366  0  0.965525  0  0  0.120461  0.12567  0  0.968802  0
H  H20  1  0.56933009  0.44593654  0.87998511  1  0  0.113528  0  0.911898  0  0  0.127304  0  0.967392  0  0  0.129427  0  0.965555  0  0  0.12047  0.125738  0  0.968836  0
C  C21  1  0.17199842  0.57509896  0.66731302  1  0  -0.148493  0  3.676324  0  0  -0.167151  0  3.926215  0  0  -0.174361  0  3.945688  0  0  -0.077556  -0.162462  0  3.913227  0
C  C22  1  0.82800920  0.42489226  0.33269608  1  0  -0.148333  0  3.676589  0  0  -0.167071  0  3.926438  0  0  -0.174271  0  3.9459  0  0  -0.077501  -0.162382  0  3.913453  0
C  C23  1  0.16494764  0.69033109  0.78404519  1  0  0.151058  0  3.678375  0  0  0.119321  0  3.931776  0  0  0.127709  0  3.947145  0  0  0.057014  0.113798  0  3.921489  0
C  C24  1  0.83504465  0.30964925  0.21596488  1  0  0.150845  0  3.678468  0  0  0.119156  0  3.931833  0  0  0.127545  0  3.947198  0  0  0.056957  0.113633  0  3.921549  0
C  C25  1  0.82123918  0.77365760  0.70366165  1  0  0.12748  0  3.713975  0  0  0.098493  0  3.967143  0  0  0.105376  0  3.98553  0  0  0.04761  0.094052  0  3.954633  0
C  C26  1  0.17877362  0.22634701  0.29633852  1  0  0.127308  0  3.71402  0  0  0.098323  0  3.967202  0  0  0.105205  0  3.985587  0  0  0.047592  0.093881  0  3.954698  0
C  C27  1  0.81550161  0.66085644  0.58422492  1  0  -0.159953  0  3.69545  0  0  -0.177092  0  3.943736  0  0  -0.184892  0  3.965265  0  0  -0.081292  -0.172081  0  3.929325  0
C  C28  1  0.18453299  0.33915643  0.41577592  1  0  -0.159837  0  3.695264  0  0  -0.177063  0  3.943578  0  0  -0.184856  0  3.965103  0  0  -0.081283  -0.172052  0  3.929165  0
C  C29  1  0.99681527  0.55921006  0.56295966  1  0  0.087001  0  3.752469  0  0  0.098442  0  3.982974  0  0  0.102121  0  4.004795  0  0  0.011883  0.096175  0  3.967985  0
C  C30  1  0.00320617  0.44080003  0.43704486  1  0  0.086873  0  3.752566  0  0  0.098444  0  3.982991  0  0  0.102127  0  4.004807  0  0  0.011837  0.096177  0  3.968003  0
C  C31  1  0.16161340  0.71903281  0.13163757  1  0  0.66917  0  3.866536  0  0  0.615103  0  4.174091  0  0  0.648339  0  4.16736  0  0  0.207398  0.592646  0  4.17778  0
C  C32  1  0.83838611  0.28096896  0.86835848  1  0  0.668928  0  3.867064  0  0  0.615035  0  4.174381  0  0  0.648263  0  4.167648  0  0  0.207362  0.592575  0  4.17807  0
C  C33  1  0.71338162  0.02437647  0.45654146  1  0  -0.159202  0  3.770172  0  0  -0.179617  0  4.022861  0  0  -0.1823  0  4.041712  0  0  -0.10888  -0.17772  0  4.010117  0
C  C34  1  0.28659717  0.97562779  0.54345539  1  0  -0.159052  0  3.770146  0  0  -0.179426  0  4.022858  0  0  -0.182106  0  4.041705  0  0  -0.108885  -0.177529  0  4.010113  0
C  C35  1  0.51802135  0.88382723  0.38385674  1  0  0.236431  0  3.834552  0  0  0.227308  0  4.099307  0  0  0.236531  0  4.114734  0  0  0.06345  0.220773  0  4.08891  0
C  C36  1  0.48196324  0.11617176  0.61614460  1  0  0.236344  0  3.834692  0  0  0.227218  0  4.099456  0  0  0.236447  0  4.114885  0  0  0.063448  0.220684  0  4.089051  0
C  C37  1  0.30167477  0.86070373  0.42758765  1  0  -0.195438  0  3.783898  0  0  -0.213978  0  4.036407  0  0  -0.217549  0  4.056168  0  0  -0.115931  -0.21149  0  4.02307  0
C  C38  1  0.69831013  0.13929657  0.57241053  1  0  -0.195282  0  3.783888  0  0  -0.21385  0  4.036348  0  0  -0.217419  0  4.056109  0  0  -0.11589  -0.211361  0  4.023009  0
C  C39  1  0.35478491  0.63970828  0.19291033  1  0  -0.076505  0  3.618124  0  0  -0.12952  0  3.876659  0  0  -0.126652  0  3.877139  0  0  -0.071219  -0.131659  0  3.876507  0
C  C40  1  0.64521249  0.36029885  0.80708843  1  0  -0.076372  0  3.618326  0  0  -0.129477  0  3.876886  0  0  -0.126565  0  3.877327  0  0  -0.071203  -0.131617  0  3.876733  0
N  N41  1  0.99413805  0.79015950  0.80230615  1  0  -0.333255  0  3.221469  0  0  -0.257787  0  3.484488  0  0  -0.276725  0  3.501085  0  0  -0.325058  -0.244992  0  3.47305  0
N  N42  1  0.00585480  0.20983019  0.19769641  1  0  -0.333109  0  3.22166  0  0  -0.257629  0  3.484619  0  0  -0.276566  0  3.501219  0  0  -0.324961  -0.244836  0  3.473182  0
O  O43  1  0.24520302  0.85509070  0.10116527  1  0  -0.676602  0  2.041126  0  0  -0.597064  0  2.284366  0  0  -0.627137  0  2.272288  0  0  -0.327698  -0.576019  0  2.291875  0
O  O44  1  0.75479291  0.14491103  0.89883052  1  0  -0.67653  0  2.041344  0  0  -0.597049  0  2.284488  0  0  -0.627121  0  2.272413  0  0  -0.327721  -0.576013  0  2.292023  0
O  O45  1  0.94150426  0.64491232  0.11455579  1  0  -0.597493  0  1.967461  0  0  -0.547287  0  2.194406  0  0  -0.572717  0  2.186753  0  0  -0.309402  -0.529463  0  2.199046  0
O  O46  1  0.05849414  0.35508540  0.88543760  1  0  -0.597428  0  1.967624  0  0  -0.547287  0  2.194499  0  0  -0.572717  0  2.186846  0  0  -0.309374  -0.529461  0  2.199135  0
O  O47  1  0.55874607  0.77356271  0.27444115  1  0  -0.266693  0  2.338646  0  0  -0.204422  0  2.576945  0  0  -0.219611  0  2.578043  0  0  -0.190051  -0.193576  0  2.575925  0
O  O48  1  0.44124784  0.22644444  0.72556255  1  0  -0.266679  0  2.338666  0  0  -0.20439  0  2.57697  0  0  -0.219607  0  2.578074  0  0  -0.190013  -0.193541  0  2.575947  0
O  O49  1  0.65404530  0.80720547  0.00956556  1  0  -0.850541  0  1.874186  0  0  -0.78871  0  2.074042  0  0  -0.812437  0  2.038783  0  0  -0.595434  -0.771738  0  2.098327  0
O  O50  1  0.34594851  0.19279491  0.99043153  1  0  -0.850515  0  1.8742  0  0  -0.788694  0  2.074065  0  0  -0.81242  0  2.038807  0  0  -0.59544  -0.771715  0  2.098332  0
