# generated using pymatgen
data_Zn4H33C36N3O13
_symmetry_space_group_name_H-M   'P 1'
_cell_length_a   16.92380740
_cell_length_b   16.45719313
_cell_length_c   16.99659806
_cell_angle_alpha   62.52226044
_cell_angle_beta   62.78420126
_cell_angle_gamma   61.86796429
_symmetry_Int_Tables_number   1
_chemical_formula_structural   Zn4H33C36N3O13
_chemical_formula_sum   'Zn8 H66 C72 N6 O26'
_cell_volume   3525.44404770
_cell_formula_units_Z   2
loop_
 _symmetry_equiv_pos_site_id
 _symmetry_equiv_pos_as_xyz
  1  'x, y, z'
loop_
 _atom_site_type_symbol
 _atom_site_label
 _atom_site_symmetry_multiplicity
 _atom_site_fract_x
 _atom_site_fract_y
 _atom_site_fract_z
 _atom_site_occupancy
 _atom_site_pbe_bader_charge
 _atom_site_pbe_bader_spin_density
 _atom_site_pbe_cm5_charge
 _atom_site_pbe_ddec_charge
 _atom_site_pbe_ddec_spin_density
 _atom_site_pbe_ddec_sum_bond_order
 _atom_site_pbe_magmom
Zn  Zn0  1  0.92355707  0.95553874  0.97612666  1  1.307879  0  0.675565  0.968154  0  2.26979  0
Zn  Zn1  1  0.93032682  0.96588146  0.15885300  1  1.3246  0  0.68071  0.975205  0  2.364562  0
Zn  Zn2  1  0.93647081  0.15286223  0.97367998  1  1.311786  0  0.678162  0.977173  0  2.308622  0
Zn  Zn3  1  0.10965415  0.95724256  0.98243730  1  1.295787  0  0.67209  0.94525  0  2.435335  0
Zn  Zn4  1  0.52576607  0.55801298  0.58033448  1  1.306127  0  0.664573  0.93826  0  2.4234  0
Zn  Zn5  1  0.51858155  0.57080214  0.39252038  1  1.322446  0  0.678249  0.986731  0  2.305561  0
Zn  Zn6  1  0.33528256  0.56840455  0.58083776  1  1.315513  0  0.677096  0.974765  0  2.336341  0
Zn  Zn7  1  0.52576515  0.37538525  0.57493221  1  1.31918  0  0.683044  0.987438  0  2.298522  0
H  H8  1  0.73470924  0.73495352  0.24758183  1  0.129522  0  0.112262  0.121265  0  0.979867  0
H  H9  1  0.50859498  0.85334931  0.46191391  1  0.100772  0  0.111139  0.114814  0  0.987029  0
H  H10  1  0.52760322  0.01507886  0.36911332  1  0.037538  0  0.101969  0.094219  0  1.027933  0
H  H11  1  0.73000938  0.06004714  0.18641328  1  0.034768  0  0.097071  0.045436  0  1.007791  0
H  H12  1  0.67710096  0.15529998  0.05329738  1  0.06539  0  0.09157  0.095874  0  0.97993  0
H  H13  1  0.66963476  0.04285081  0.07299711  1  0.081486  0  0.092656  0.100559  0  1.013893  0
H  H14  1  0.51331248  0.20927920  0.06669543  1  0.016334  0  0.092033  0.087098  0  0.982504  0
H  H15  1  0.50191587  0.09535188  0.14427239  1  0.012188  0  0.089482  0.083281  0  1.006007  0
H  H16  1  0.47214241  0.26005595  0.19476996  1  0.022104  0  0.091872  0.062859  0  0.985061  0
H  H17  1  0.44929854  0.14955897  0.26866448  1  0.004341  0  0.081886  0.034985  0  1.025811  0
H  H18  1  0.58049379  0.13104346  0.30123359  1  0.386856  0  0.28412  0.224037  0  1.00837  0
H  H19  1  0.70476402  0.24239150  0.79382271  1  0.07118  0  0.110745  0.117944  0  0.981715  0
H  H20  1  0.82988990  0.37731971  0.50349874  1  0.058015  0  0.10277  0.103606  0  1.001337  0
H  H21  1  0.98834321  0.28872094  0.52464609  1  0.065402  0  0.101472  0.094277  0  1.027533  0
H  H22  1  0.03010947  0.17270070  0.74893228  1  0.013709  0  0.098028  0.046053  0  0.995231  0
H  H23  1  0.12556881  0.01791699  0.72585916  1  0.033611  0  0.089389  0.094253  0  0.997026  0
H  H24  1  0.01606563  0.02675748  0.72741686  1  0.062059  0  0.093438  0.10239  0  1.001321  0
H  H25  1  0.16782118  0.99709913  0.57448746  1  0.06128  0  0.090304  0.089723  0  1.027597  0
H  H26  1  0.05965147  0.08624665  0.55804882  1  0.00085  0  0.087095  0.079355  0  0.987593  0
H  H27  1  0.23465020  0.11634086  0.53187287  1  -0.02593  0  0.081027  0.039482  0  1.007197  0
H  H28  1  0.14985238  0.19176335  0.47155221  1  0.004795  0  0.084713  0.041554  0  1.000597  0
H  H29  1  0.09115770  0.27550479  0.57923760  1  0.420271  0  0.296299  0.242721  0  0.965468  0
H  H30  1  0.19633053  0.76117437  0.76376491  1  0.097146  0  0.112403  0.1227  0  0.979591  0
H  H31  1  0.39296829  0.49412780  0.87954954  1  0.09134  0  0.107281  0.111276  0  0.992423  0
H  H32  1  0.31152361  0.52075937  0.03426090  1  0.092539  0  0.102455  0.097798  0  1.024744  0
H  H33  1  0.14771299  0.75728209  0.06379962  1  0.026621  0  0.095813  0.038429  0  1.044258  0
H  H34  1  0.02752365  0.69600939  0.18495126  1  0.040238  0  0.094775  0.103919  0  0.976811  0
H  H35  1  0.03163761  0.67040465  0.09192907  1  0.05646  0  0.092878  0.09915  0  0.995083  0
H  H36  1  0.05476993  0.52076157  0.25210447  1  0.017984  0  0.090543  0.085275  0  0.987115  0
H  H37  1  0.13056256  0.50233767  0.14309252  1  0.017337  0  0.08518  0.074943  0  1.002902  0
H  H38  1  0.17782713  0.52630712  0.28085059  1  -0.00577  0  0.092254  0.065619  0  0.977044  0
H  H39  1  0.25342674  0.46860391  0.19399936  1  -0.002858  0  0.083038  0.035828  0  1.017388  0
H  H40  1  0.28653694  0.61439593  0.11562178  1  0.388247  0  0.293328  0.239118  0  0.968827  0
H  H41  1  0.69756147  0.24575797  0.28563468  1  0.085952  0  0.107177  0.114971  0  0.998286  0
H  H42  1  0.80463135  0.40005319  0.33993016  1  0.057787  0  0.104875  0.105007  0  0.992509  0
H  H43  1  0.96390507  0.32904587  0.24350121  1  0.047361  0  0.103674  0.099686  0  1.018655  0
H  H44  1  0.02556755  0.14453678  0.13750380  1  0.011153  0  0.094402  0.034331  0  1.00576  0
H  H45  1  0.10264976  0.23878088  0.99792374  1  0.001213  0  0.091717  0.093751  0  0.990919  0
H  H46  1  0.98928793  0.32721838  0.01697551  1  0.059301  0  0.099326  0.109083  0  0.977166  0
H  H47  1  0.13856338  0.37030423  0.99063227  1  0.04185  0  0.09479  0.093389  0  0.983351  0
H  H48  1  0.03567829  0.39687361  0.08400432  1  -0.003551  0  0.088972  0.082518  0  0.997794  0
H  H49  1  0.21801069  0.22589812  0.09254986  1  0.026204  0  0.090247  0.060585  0  0.973028  0
H  H50  1  0.14260009  0.29034479  0.17426971  1  0.014879  0  0.090192  0.050569  0  0.997851  0
H  H51  1  0.06906112  0.17749533  0.25064473  1  0.378331  0  0.288539  0.227958  0  0.982945  0
H  H52  1  0.23775846  0.70408400  0.27480536  1  0.083001  0  0.107525  0.114776  0  0.999535  0
H  H53  1  0.12476093  0.01700067  0.18611118  1  0.077258  0  0.09798  0.094528  0  1.05267  0
H  H54  1  0.18680412  0.02204472  0.28675757  1  0.069366  0  0.09838  0.084885  0  1.070033  0
H  H55  1  0.27701008  0.81266134  0.47008133  1  0.055089  0  0.102723  0.060469  0  0.981411  0
H  H56  1  0.42136762  0.84247144  0.40815538  1  0.023541  0  0.088725  0.085349  0  1.037091  0
H  H57  1  0.42987038  0.81155006  0.31639063  1  0.03841  0  0.092655  0.099743  0  1.004619  0
H  H58  1  0.44887563  0.98297232  0.27227386  1  0.025051  0  0.085626  0.080696  0  1.042499  0
H  H59  1  0.37262083  0.98244947  0.22773484  1  0.01689  0  0.091203  0.088821  0  0.984953  0
H  H60  1  0.31942326  0.05621687  0.38506361  1  0.00284  0  0.081737  0.042956  0  1.005852  0
H  H61  1  0.25627636  0.09493321  0.30776234  1  0.004689  0  0.086108  0.045835  0  1.002728  0
H  H62  1  0.17421248  0.99400667  0.43137347  1  0.385477  0  0.29052  0.232852  0  0.976261  0
H  H63  1  0.18835641  0.30620465  0.81874842  1  0.071006  0  0.109188  0.115179  0  0.995728  0
H  H64  1  0.23217143  0.07696065  0.73066274  1  0.075023  0  0.109094  0.110641  0  0.994034  0
H  H65  1  0.32229156  0.15363471  0.57108671  1  0.046823  0  0.102856  0.097354  0  1.013619  0
H  H66  1  0.35424409  0.39233554  0.50425882  1  0.008087  0  0.099235  0.045666  0  0.984546  0
H  H67  1  0.50501084  0.30467964  0.44082157  1  0.04256  0  0.083228  0.086199  0  1.040702  0
H  H68  1  0.48222701  0.19401853  0.50396212  1  0.056107  0  0.090751  0.095042  0  0.98678  0
H  H69  1  0.51523429  0.27553422  0.30962181  1  0.036092  0  0.092661  0.091375  0  1.012937  0
H  H70  1  0.44300214  0.20076839  0.38284255  1  -0.003319  0  0.083649  0.067861  0  1.018509  0
H  H71  1  0.37650510  0.42248729  0.31827694  1  0.016496  0  0.098377  0.077464  0  0.95473  0
H  H72  1  0.33126899  0.34750786  0.31353469  1  0.003686  0  0.097241  0.065828  0  1.001317  0
H  H73  1  0.26572079  0.30127034  0.47344189  1  0.359733  0  0.277914  0.221179  0  1.002837  0
C  C74  1  0.80168476  0.89141318  0.15815497  1  1.566626  0  0.237529  0.623487  0  4.150049  0
C  C75  1  0.70870115  0.88368325  0.22905654  1  -0.039174  0  -0.01043  -0.065926  0  3.938457  0
C  C76  1  0.68995591  0.79635782  0.27431996  1  -0.051165  0  -0.074956  -0.109516  0  3.935351  0
C  C77  1  0.61520054  0.78643856  0.35728767  1  0.005358  0  -0.015818  -0.035781  0  3.983992  0
C  C78  1  0.56242973  0.86356727  0.39438793  1  -0.019333  0  -0.076186  -0.079314  0  3.974888  0
C  C79  1  0.57479633  0.95367695  0.34266398  1  -0.055857  0  -0.090692  -0.132617  0  4.009371  0
C  C80  1  0.64631628  0.96642416  0.25795921  1  -0.020555  0  0.001145  0.049934  0  3.877074  0
C  C81  1  0.65848534  0.06548862  0.19714661  1  0.341058  0  0.004138  0.101289  0  3.906514  0
C  C82  1  0.64184810  0.10111751  0.10261005  1  -0.089542  0  -0.162529  -0.200023  0  3.885271  0
C  C83  1  0.53429388  0.14843950  0.12593087  1  0.000295  0  -0.160652  -0.153418  0  3.895415  0
C  C84  1  0.50337322  0.18076117  0.21060390  1  0.284531  0  -0.075458  -0.010925  0  3.935158  0
C  C85  1  0.58649125  0.69801177  0.40684911  1  1.557287  0  0.227078  0.60237  0  4.167983  0
C  C86  1  0.86643172  0.15069763  0.84388110  1  1.603398  0  0.238613  0.628622  0  4.143588  0
C  C87  1  0.85570671  0.20878502  0.74799174  1  -0.107732  0  -0.008977  -0.065326  0  3.937672  0
C  C88  1  0.76706902  0.25292754  0.73499913  1  0.056653  0  -0.077393  -0.116289  0  3.9416  0
C  C89  1  0.75776249  0.31422143  0.64677258  1  -0.002761  0  -0.015226  -0.022216  0  3.985528  0
C  C90  1  0.83774147  0.32815949  0.57161737  1  0.011439  0  -0.086931  -0.098905  0  4.004878  0
C  C91  1  0.92618358  0.27918638  0.58414718  1  -0.036531  0  -0.093164  -0.131911  0  4.025814  0
C  C92  1  0.93713004  0.21971730  0.67199502  1  -0.015865  0  -0.001529  0.041624  0  3.894864  0
C  C93  1  0.03462504  0.16712826  0.68460815  1  0.369989  0  0.006425  0.11205  0  3.895282  0
C  C94  1  0.07175873  0.05961723  0.68971955  1  -0.048913  0  -0.162966  -0.200502  0  3.888255  0
C  C95  1  0.11545006  0.06534977  0.58686340  1  -0.016747  0  -0.167513  -0.165311  0  3.918669  0
C  C96  1  0.15808960  0.14691495  0.54142922  1  0.323587  0  -0.073189  -0.000363  0  3.956448  0
C  C97  1  0.66482071  0.37018050  0.62885080  1  1.522135  0  0.229735  0.612133  0  4.148373  0
C  C98  1  0.10989266  0.82449934  0.91566501  1  1.573865  0  0.235577  0.6198  0  4.155831  0
C  C99  1  0.17987284  0.72677913  0.90855066  1  -0.014858  0  -0.011898  -0.06594  0  3.937309  0
C  C100  1  0.22108022  0.70869174  0.82350660  1  -0.036464  0  -0.075245  -0.109845  0  3.935474  0
C  C101  1  0.29857622  0.62490159  0.81302326  1  -0.065473  0  -0.019268  -0.037026  0  4.004355  0
C  C102  1  0.33156750  0.55809021  0.88902070  1  -0.064325  0  -0.083465  -0.08938  0  3.994894  0
C  C103  1  0.28606290  0.57395849  0.97514064  1  -0.029181  0  -0.093213  -0.137993  0  4.017931  0
C  C104  1  0.21055590  0.65871914  0.98664518  1  0.005387  0  0.001297  0.048735  0  3.880461  0
C  C105  1  0.16323134  0.67955855  0.07923551  1  0.33386  0  0.00179  0.101322  0  3.908272  0
C  C106  1  0.07184605  0.65370994  0.13606679  1  -0.016737  0  -0.159108  -0.194542  0  3.888599  0
C  C107  1  0.10838446  0.54517027  0.18816200  1  -0.011878  0  -0.16354  -0.16182  0  3.931364  0
C  C108  1  0.19405665  0.53403299  0.20767126  1  0.301898  0  -0.074605  -0.008125  0  3.938443  0
C  C109  1  0.34937168  0.60826697  0.72088660  1  1.570845  0  0.226945  0.606497  0  4.15561  0
C  C110  1  0.86288972  0.16600835  0.16400179  1  1.561119  0  0.23743  0.624215  0  4.142244  0
C  C111  1  0.84551553  0.22850413  0.21720099  1  -0.025357  0  -0.008698  -0.059922  0  3.916615  0
C  C112  1  0.75567972  0.26489620  0.27598583  1  -0.009699  0  -0.078921  -0.119053  0  3.925748  0
C  C113  1  0.74050710  0.32737299  0.31983300  1  -0.020814  0  -0.010911  -0.015195  0  3.96809  0
C  C114  1  0.81613928  0.35086579  0.30650117  1  0.008152  0  -0.088652  -0.106351  0  4.012256  0
C  C115  1  0.90550337  0.31179464  0.25097145  1  -0.057009  0  -0.092792  -0.132898  0  4.027299  0
C  C116  1  0.92213075  0.25139932  0.20414953  1  0.005595  0  -0.004357  0.033785  0  3.904005  0
C  C117  1  0.02113321  0.21064583  0.14360389  1  0.339602  0  0.006308  0.109347  0  3.877067  0
C  C118  1  0.04892595  0.28163694  0.04471645  1  0.000446  0  -0.158773  -0.189232  0  3.882706  0
C  C119  1  0.09163684  0.33773686  0.05646409  1  -0.010414  0  -0.163991  -0.172509  0  3.947953  0
C  C120  1  0.14347157  0.26004286  0.12789669  1  0.273761  0  -0.074851  -0.013155  0  3.955227  0
C  C121  1  0.64682951  0.37597128  0.38001410  1  1.576143  0  0.235908  0.621858  0  4.14255  0
C  C122  1  0.32219246  0.68681603  0.39058205  1  1.580465  0  0.239625  0.633964  0  4.133741  0
C  C123  1  0.26292505  0.77719069  0.33539162  1  -0.00513  0  -0.011392  -0.066645  0  3.935639  0
C  C124  1  0.22663675  0.77341748  0.27823631  1  0.034369  0  -0.081017  -0.121146  0  3.943057  0
C  C125  1  0.17436816  0.85984697  0.22653769  1  -0.02489  0  -0.014348  -0.018582  0  3.98805  0
C  C126  1  0.16203131  0.94890904  0.22901136  1  -0.058461  0  -0.090988  -0.103409  0  4.004217  0
C  C127  1  0.19759692  0.95151923  0.28646525  1  -0.01985  0  -0.095786  -0.130185  0  4.039676  0
C  C128  1  0.24660435  0.86640872  0.34212877  1  -0.083638  0  -0.006792  0.035812  0  3.916158  0
C  C129  1  0.28579813  0.87151582  0.40354555  1  0.334798  0  0.00081  0.098462  0  3.916319  0
C  C130  1  0.38986006  0.86423176  0.35474258  1  -0.02046  0  -0.166498  -0.200634  0  3.900863  0
C  C131  1  0.38425253  0.96856775  0.29198519  1  -0.010374  0  -0.167114  -0.169306  0  3.916553  0
C  C132  1  0.29804389  0.03005408  0.35099948  1  0.281851  0  -0.075621  -0.003561  0  3.939822  0
C  C133  1  0.12391560  0.86988091  0.16819570  1  1.584459  0  0.240072  0.629313  0  4.140813  0
C  C134  1  0.32528208  0.37613794  0.65935393  1  1.573007  0  0.233595  0.620052  0  4.169742  0
C  C135  1  0.27902196  0.30771026  0.67838531  1  -0.013938  0  -0.010259  -0.062424  0  3.945098  0
C  C136  1  0.21802784  0.27254046  0.76466619  1  -0.007148  0  -0.079396  -0.117908  0  3.943429  0
C  C137  1  0.19900140  0.19065816  0.78194391  1  0.033157  0  -0.016481  -0.032326  0  3.987618  0
C  C138  1  0.24292490  0.14391188  0.71436143  1  -0.045371  0  -0.076811  -0.076754  0  3.982828  0
C  C139  1  0.29488377  0.18624585  0.62559653  1  -0.026855  0  -0.088543  -0.131528  0  4.023947  0
C  C140  1  0.31058005  0.27057248  0.60531128  1  0.007388  0  0.00157  0.050102  0  3.927511  0
C  C141  1  0.35445509  0.32440390  0.50626294  1  0.33287  0  0.001566  0.105903  0  3.84442  0
C  C142  1  0.45720167  0.26760270  0.45789210  1  -0.075735  0  -0.170926  -0.206157  0  3.873329  0
C  C143  1  0.45223871  0.26833582  0.36970394  1  -0.043675  0  -0.172117  -0.181039  0  3.945476  0
C  C144  1  0.36218954  0.35311464  0.35453773  1  0.333889  0  -0.0772  -0.023892  0  3.973909  0
C  C145  1  0.13264139  0.14721869  0.86897184  1  1.563594  0  0.230622  0.609131  0  4.174698  0
N  N146  1  0.59095621  0.14621474  0.23274878  1  -1.060745  0  -0.498042  -0.415621  0  3.39191  0
N  N147  1  0.10907323  0.20224857  0.60740784  1  -1.100326  0  -0.486928  -0.403088  0  3.417915  0
N  N148  1  0.21645381  0.62439529  0.14588475  1  -1.030626  0  -0.487303  -0.40101  0  3.34304  0
N  N149  1  0.09513802  0.18673874  0.18118662  1  -1.039075  0  -0.484616  -0.396303  0  3.329856  0
N  N150  1  0.24454601  0.96380759  0.42260986  1  -1.038094  0  -0.488516  -0.401449  0  3.348873  0
N  N151  1  0.29597341  0.35307204  0.44797388  1  -1.000996  0  -0.49508  -0.410697  0  3.279445  0
O  O152  1  0.97122143  0.01016216  0.02168751  1  -1.217552  0  -0.567288  -1.030564  0  2.495087  0
O  O153  1  0.85834252  0.88354450  0.19342948  1  -1.179175  0  -0.320902  -0.564984  0  2.338602  0
O  O154  1  0.81758286  0.90783163  0.07245161  1  -1.149128  0  -0.298225  -0.520107  0  2.280745  0
O  O155  1  0.59696891  0.65044799  0.35877485  1  -1.168325  0  -0.316649  -0.557917  0  2.276577  0
O  O156  1  0.54898297  0.67943073  0.49515272  1  -1.160121  0  -0.316246  -0.542548  0  2.338001  0
O  O157  1  0.86590224  0.19676342  0.88742864  1  -1.171329  0  -0.315271  -0.553826  0  2.303089  0
O  O158  1  0.87713344  0.06076810  0.87225078  1  -1.175047  0  -0.305679  -0.538309  0  2.307189  0
O  O159  1  0.60875933  0.32577980  0.65227484  1  -1.154869  0  -0.316054  -0.547028  0  2.256868  0
O  O160  1  0.65001938  0.46118531  0.58726127  1  -1.161807  0  -0.317917  -0.547963  0  2.310044  0
O  O161  1  0.14591527  0.88644927  0.89773381  1  -1.174236  0  -0.321872  -0.562762  0  2.329471  0
O  O162  1  0.02231776  0.83916046  0.94002159  1  -1.157158  0  -0.30161  -0.527374  0  2.278015  0
O  O163  1  0.30233394  0.63895699  0.66567721  1  -1.165678  0  -0.31845  -0.554166  0  2.289098  0
O  O164  1  0.43823341  0.56360653  0.70402388  1  -1.180599  0  -0.316686  -0.544146  0  2.316965  0
O  O165  1  0.86757501  0.07739758  0.20849662  1  -1.165795  0  -0.309199  -0.547063  0  2.289283  0
O  O166  1  0.87425693  0.20782260  0.07689690  1  -1.154025  0  -0.306112  -0.538982  0  2.314026  0
O  O167  1  0.60540886  0.46386298  0.33932315  1  -1.168245  0  -0.313066  -0.544037  0  2.295063  0
O  O168  1  0.61988233  0.32833318  0.46594300  1  -1.172403  0  -0.307117  -0.548444  0  2.301229  0
O  O169  1  0.28204438  0.65630369  0.47770925  1  -1.169941  0  -0.307494  -0.540277  0  2.317264  0
O  O170  1  0.40828658  0.65113787  0.34613073  1  -1.174472  0  -0.314005  -0.553477  0  2.291582  0
O  O171  1  0.16828617  0.87893886  0.08208283  1  -1.163813  0  -0.306315  -0.531197  0  2.324242  0
O  O172  1  0.03681625  0.87903241  0.20779440  1  -1.168942  0  -0.315497  -0.547788  0  2.31416  0
O  O173  1  0.27780124  0.46460909  0.65420296  1  -1.159378  0  -0.308532  -0.531598  0  2.284486  0
O  O174  1  0.41394899  0.33543024  0.64712901  1  -1.179541  0  -0.317624  -0.555612  0  2.326243  0
O  O175  1  0.16806539  0.05700287  0.90862853  1  -1.181048  0  -0.31749  -0.541779  0  2.358602  0
O  O176  1  0.04660034  0.19972488  0.89410514  1  -1.16923  0  -0.310882  -0.550922  0  2.30319  0
O  O177  1  0.47260167  0.51734158  0.52809029  1  -1.232774  0  -0.575984  -1.041306  0  2.533643  0
