# generated using pymatgen
data_MgH18(C7O)2
_symmetry_space_group_name_H-M   'P 1'
_cell_length_a   10.15338602
_cell_length_b   10.30213906
_cell_length_c   11.58888135
_cell_angle_alpha   90.00036660
_cell_angle_beta   90.00001405
_cell_angle_gamma   92.56803446
_symmetry_Int_Tables_number   1
_chemical_formula_structural   MgH18(C7O)2
_chemical_formula_sum   'Mg4 H72 C56 O8'
_cell_volume   1210.99806820
_cell_formula_units_Z   4
loop_
 _symmetry_equiv_pos_site_id
 _symmetry_equiv_pos_as_xyz
  1  'x, y, z'
loop_
 _atom_site_type_symbol
 _atom_site_label
 _atom_site_symmetry_multiplicity
 _atom_site_fract_x
 _atom_site_fract_y
 _atom_site_fract_z
 _atom_site_occupancy
 _atom_site_hle17_bader_spin_density
 _atom_site_hle17_ddec_charge
 _atom_site_hle17_ddec_spin_density
 _atom_site_hle17_ddec_sum_bond_order
 _atom_site_hle17_magmom
 _atom_site_hse06_10hf_bader_spin_density
 _atom_site_hse06_10hf_ddec_charge
 _atom_site_hse06_10hf_ddec_spin_density
 _atom_site_hse06_10hf_ddec_sum_bond_order
 _atom_site_hse06_10hf_magmom
 _atom_site_hse06_bader_spin_density
 _atom_site_hse06_ddec_charge
 _atom_site_hse06_ddec_spin_density
 _atom_site_hse06_ddec_sum_bond_order
 _atom_site_hse06_magmom
 _atom_site_pbe_bader_spin_density
 _atom_site_pbe_cm5_charge
 _atom_site_pbe_ddec_charge
 _atom_site_pbe_ddec_spin_density
 _atom_site_pbe_ddec_sum_bond_order
 _atom_site_pbe_magmom
Mg  Mg0  1  0.24771418  0.76791983  0.97579095  1  0  1.251384  0  1.348435  0  0  1.202514  0  1.484601  0  0  1.215271  0  1.473373  0  0  0.706567  1.19385  0  1.491986  0
Mg  Mg1  1  0.75228545  0.73208074  0.47579183  1  0  1.251391  0  1.348424  0  0  1.202541  0  1.484563  0  0  1.215304  0  1.473331  0  0  0.706578  1.193875  0  1.491947  0
Mg  Mg2  1  0.75228504  0.23208042  0.02420756  1  0  1.251386  0  1.348426  0  0  1.202527  0  1.484601  0  0  1.215291  0  1.473368  0  0  0.706571  1.193862  0  1.491985  0
Mg  Mg3  1  0.24771570  0.26791854  0.52420841  1  0  1.251359  0  1.348484  0  0  1.202537  0  1.484587  0  0  1.215304  0  1.473348  0  0  0.706564  1.193868  0  1.491976  0
H  H4  1  0.01478573  0.66956099  0.11663093  1  0  0.078843  0  1.013759  0  0  0.091051  0  1.078072  0  0  0.093727  0  1.076418  0  0  0.084158  0.089101  0  1.079374  0
H  H5  1  0.98521017  0.83044669  0.61663489  1  0  0.078899  0  1.013718  0  0  0.091093  0  1.078042  0  0  0.093767  0  1.076376  0  0  0.084183  0.089101  0  1.079399  0
H  H6  1  0.98521242  0.33043732  0.88337017  1  0  0.078834  0  1.013726  0  0  0.091044  0  1.078037  0  0  0.093723  0  1.076379  0  0  0.084157  0.089074  0  1.07936  0
H  H7  1  0.01479103  0.16955356  0.38336535  1  0  0.078888  0  1.013793  0  0  0.091081  0  1.078109  0  0  0.093758  0  1.076446  0  0  0.084184  0.089112  0  1.079436  0
H  H8  1  0.06987975  0.42187607  0.07689215  1  0  0.077171  0  0.99945  0  0  0.08844  0  1.06547  0  0  0.090644  0  1.065615  0  0  0.083457  0.086916  0  1.06544  0
H  H9  1  0.93011340  0.07812909  0.57689725  1  0  0.07719  0  0.999412  0  0  0.088432  0  1.065457  0  0  0.090634  0  1.065607  0  0  0.083432  0.086908  0  1.065428  0
H  H10  1  0.93011944  0.57812321  0.92310896  1  0  0.077147  0  0.999304  0  0  0.088413  0  1.065341  0  0  0.090618  0  1.065484  0  0  0.083434  0.08689  0  1.065313  0
H  H11  1  0.06988586  0.92187213  0.42310386  1  0  0.077208  0  0.999448  0  0  0.088487  0  1.065457  0  0  0.090691  0  1.065604  0  0  0.083447  0.086962  0  1.06543  0
H  H12  1  0.32612403  0.39268792  0.12592702  1  0  0.076586  0  0.989825  0  0  0.092813  0  1.04501  0  0  0.095316  0  1.044245  0  0  0.081872  0.09095  0  1.045927  0
H  H13  1  0.67387112  0.10731760  0.62592965  1  0  0.07662  0  0.98976  0  0  0.092788  0  1.045018  0  0  0.095292  0  1.044251  0  0  0.081862  0.09094  0  1.045918  0
H  H14  1  0.67387630  0.60731525  0.87407322  1  0  0.076633  0  0.989774  0  0  0.092833  0  1.044993  0  0  0.095335  0  1.044229  0  0  0.081871  0.090968  0  1.045912  0
H  H15  1  0.32612811  0.89268265  0.37407146  1  0  0.07672  0  0.989761  0  0  0.092895  0  1.044992  0  0  0.095397  0  1.044227  0  0  0.081894  0.091026  0  1.045915  0
H  H16  1  0.43282783  0.62306202  0.19226886  1  0  0.078942  0  1.017423  0  0  0.092042  0  1.082871  0  0  0.09428  0  1.081953  0  0  0.082799  0.090491  0  1.083525  0
H  H17  1  0.56716392  0.87694037  0.69226954  1  0  0.078982  0  1.017359  0  0  0.09207  0  1.082822  0  0  0.094301  0  1.081908  0  0  0.082817  0.090518  0  1.083477  0
H  H18  1  0.56716951  0.37694017  0.80773052  1  0  0.078943  0  1.017437  0  0  0.092045  0  1.082885  0  0  0.094281  0  1.081966  0  0  0.082804  0.090494  0  1.08354  0
H  H19  1  0.43283526  0.12305891  0.30773070  1  0  0.078951  0  1.017384  0  0  0.092042  0  1.082841  0  0  0.094274  0  1.081926  0  0  0.082798  0.09049  0  1.083496  0
H  H20  1  0.23603868  0.79281871  0.20302187  1  0  0.101815  0  1.021464  0  0  0.108609  0  1.089878  0  0  0.111235  0  1.08992  0  0  0.088069  0.105786  0  1.09173  0
H  H21  1  0.76395902  0.70718474  0.70302422  1  0  0.101823  0  1.021414  0  0  0.108611  0  1.089831  0  0  0.11124  0  1.089871  0  0  0.088035  0.105788  0  1.091684  0
H  H22  1  0.76395853  0.20718056  0.79697751  1  0  0.10179  0  1.021523  0  0  0.108584  0  1.089938  0  0  0.111211  0  1.089978  0  0  0.08804  0.105761  0  1.091793  0
H  H23  1  0.23604217  0.29281551  0.29697603  1  0  0.101811  0  1.021426  0  0  0.108602  0  1.089837  0  0  0.111228  0  1.089882  0  0  0.088043  0.105778  0  1.091691  0
H  H24  1  0.51249847  0.74242607  0.84679226  1  0  0.096292  0  0.991399  0  0  0.106575  0  1.055358  0  0  0.109252  0  1.053883  0  0  0.09069  0.104668  0  1.056484  0
H  H25  1  0.48750301  0.75757261  0.34679236  1  0  0.096293  0  0.991368  0  0  0.106577  0  1.055333  0  0  0.109255  0  1.053856  0  0  0.090695  0.104672  0  1.056455  0
H  H26  1  0.48750072  0.25757322  0.15320712  1  0  0.096294  0  0.991368  0  0  0.106573  0  1.055335  0  0  0.109251  0  1.053859  0  0  0.090692  0.104667  0  1.056458  0
H  H27  1  0.51249715  0.24242667  0.65320788  1  0  0.0963  0  0.99139  0  0  0.106585  0  1.055347  0  0  0.109262  0  1.053872  0  0  0.0907  0.104681  0  1.056468  0
H  H28  1  0.33201568  0.88166336  0.73460752  1  0  0.10886  0  1.005489  0  0  0.120473  0  1.064739  0  0  0.122669  0  1.065008  0  0  0.089626  0.118365  0  1.065725  0
H  H29  1  0.66798474  0.61833450  0.23460773  1  0  0.108891  0  1.005506  0  0  0.120519  0  1.064726  0  0  0.122716  0  1.064995  0  0  0.089629  0.118411  0  1.065711  0
H  H30  1  0.66798452  0.11833690  0.26539186  1  0  0.108875  0  1.005482  0  0  0.120489  0  1.064731  0  0  0.122686  0  1.065  0  0  0.089633  0.11838  0  1.065717  0
H  H31  1  0.33201542  0.38166478  0.76539251  1  0  0.108863  0  1.005475  0  0  0.120485  0  1.064714  0  0  0.122683  0  1.064982  0  0  0.089619  0.118378  0  1.0657  0
H  H32  1  0.13609505  0.52134677  0.85641202  1  0  0.116812  0  0.984168  0  0  0.127965  0  1.04208  0  0  0.129987  0  1.042571  0  0  0.096274  0.126408  0  1.041973  0
H  H33  1  0.86390647  0.97865295  0.35641173  1  0  0.116887  0  0.984292  0  0  0.128046  0  1.042174  0  0  0.130064  0  1.042672  0  0  0.096316  0.126488  0  1.042068  0
H  H34  1  0.86390425  0.47865543  0.14358736  1  0  0.116892  0  0.984234  0  0  0.128048  0  1.042117  0  0  0.130071  0  1.042608  0  0  0.096316  0.12649  0  1.042011  0
H  H35  1  0.13609468  0.02134634  0.64358851  1  0  0.116861  0  0.984185  0  0  0.128018  0  1.042081  0  0  0.13004  0  1.042572  0  0  0.096289  0.12646  0  1.041976  0
H  H36  1  0.10120794  0.74405090  0.73895351  1  0  0.096442  0  1.009307  0  0  0.107855  0  1.071091  0  0  0.110634  0  1.069582  0  0  0.087618  0.105835  0  1.072336  0
H  H37  1  0.89879356  0.75594893  0.23895369  1  0  0.096487  0  1.009222  0  0  0.107897  0  1.071013  0  0  0.110675  0  1.069504  0  0  0.087627  0.105874  0  1.072267  0
H  H38  1  0.89879235  0.25595129  0.26104587  1  0  0.096426  0  1.009362  0  0  0.107885  0  1.071081  0  0  0.110635  0  1.069607  0  0  0.08763  0.105861  0  1.072335  0
H  H39  1  0.10120665  0.24405132  0.76104741  1  0  0.096453  0  1.009268  0  0  0.107846  0  1.071081  0  0  0.110621  0  1.069573  0  0  0.087603  0.105825  0  1.072329  0
H  H40  1  0.39070641  0.52171434  0.92373779  1  0  0.11423  0  0.972771  0  0  0.12591  0  1.027382  0  0  0.128339  0  1.027283  0  0  0.097736  0.124171  0  1.027757  0
H  H41  1  0.60929418  0.97828586  0.42373744  1  0  0.114224  0  0.972759  0  0  0.125893  0  1.027385  0  0  0.128324  0  1.027285  0  0  0.097721  0.124155  0  1.027761  0
H  H42  1  0.60929179  0.47828493  0.07626159  1  0  0.114204  0  0.972787  0  0  0.125873  0  1.027416  0  0  0.128302  0  1.027317  0  0  0.097711  0.124134  0  1.027791  0
H  H43  1  0.39070689  0.02171148  0.57626194  1  0  0.114225  0  0.972633  0  0  0.125894  0  1.027272  0  0  0.128325  0  1.027173  0  0  0.097727  0.124154  0  1.02765  0
H  H44  1  0.81576387  0.00260178  0.86787334  1  0  0.093061  0  0.940378  0  0  0.101864  0  1.006787  0  0  0.102492  0  1.007149  0  0  0.116913  0.101563  0  1.006223  0
H  H45  1  0.18423696  0.49739676  0.36787387  1  0  0.093054  0  0.940355  0  0  0.101852  0  1.006769  0  0  0.10248  0  1.007132  0  0  0.116905  0.10155  0  1.006206  0
H  H46  1  0.18423630  0.99739751  0.13212604  1  0  0.093042  0  0.94036  0  0  0.101838  0  1.006796  0  0  0.102466  0  1.007159  0  0  0.116903  0.101538  0  1.006229  0
H  H47  1  0.81576325  0.50260350  0.63212551  1  0  0.093044  0  0.940349  0  0  0.101842  0  1.006779  0  0  0.10247  0  1.007141  0  0  0.116909  0.101541  0  1.006215  0
H  H48  1  0.97995822  0.06537367  0.84331810  1  0  0.079553  0  0.917578  0  0  0.091563  0  0.98151  0  0  0.091699  0  0.98199  0  0  0.109297  0.091225  0  0.981524  0
H  H49  1  0.02004165  0.43462566  0.34331824  1  0  0.079527  0  0.91757  0  0  0.091528  0  0.981518  0  0  0.091664  0  0.981996  0  0  0.109279  0.09119  0  0.981531  0
H  H50  1  0.02004101  0.93462659  0.15668128  1  0  0.079512  0  0.917571  0  0  0.091563  0  0.981471  0  0  0.0917  0  0.98195  0  0  0.109278  0.091224  0  0.981485  0
H  H51  1  0.97995851  0.56537362  0.65668200  1  0  0.079491  0  0.917591  0  0  0.091538  0  0.981499  0  0  0.091674  0  0.981978  0  0  0.109278  0.0912  0  0.981513  0
H  H52  1  0.09964388  0.16674571  0.99994255  1  0  0.067172  0  0.913943  0  0  0.080278  0  0.979455  0  0  0.081022  0  0.97845  0  0  0.107854  0.079799  0  0.97993  0
H  H53  1  0.90035604  0.33325379  0.49994231  1  0  0.06719  0  0.913913  0  0  0.080278  0  0.979443  0  0  0.081022  0  0.978438  0  0  0.10785  0.079801  0  0.979916  0
H  H54  1  0.90035633  0.83325455  0.00005682  1  0  0.067171  0  0.913914  0  0  0.08028  0  0.979428  0  0  0.081022  0  0.978425  0  0  0.107865  0.079801  0  0.979904  0
H  H55  1  0.09964417  0.66674647  0.50005879  1  0  0.067195  0  0.913926  0  0  0.080269  0  0.97945  0  0  0.08101  0  0.978448  0  0  0.107852  0.079791  0  0.979924  0
H  H56  1  0.02172290  0.17361570  0.13878007  1  0  0.086708  0  0.941282  0  0  0.097987  0  1.007  0  0  0.097924  0  1.007813  0  0  0.116232  0.097749  0  1.006907  0
H  H57  1  0.97827697  0.32638506  0.63877969  1  0  0.086713  0  0.941283  0  0  0.097996  0  1.006993  0  0  0.097933  0  1.007807  0  0  0.116237  0.097758  0  1.006901  0
H  H58  1  0.97827735  0.82638552  0.86121931  1  0  0.086699  0  0.941267  0  0  0.097981  0  1.006984  0  0  0.097916  0  1.007802  0  0  0.116233  0.097743  0  1.006892  0
H  H59  1  0.02172221  0.67361422  0.36122056  1  0  0.086728  0  0.941298  0  0  0.098011  0  1.006989  0  0  0.097946  0  1.0078  0  0  0.116241  0.097773  0  1.006897  0
H  H60  1  0.47353906  0.82490889  0.13631322  1  0  0.086217  0  0.953937  0  0  0.09753  0  1.019556  0  0  0.09734  0  1.020615  0  0  0.11472  0.097641  0  1.018796  0
H  H61  1  0.52646139  0.67509020  0.63631447  1  0  0.086212  0  0.953972  0  0  0.097527  0  1.019592  0  0  0.097338  0  1.020652  0  0  0.114718  0.097638  0  1.018834  0
H  H62  1  0.52646213  0.17509136  0.86368702  1  0  0.086199  0  0.953925  0  0  0.097519  0  1.019544  0  0  0.09733  0  1.020603  0  0  0.11472  0.09763  0  1.018786  0
H  H63  1  0.47353976  0.32490909  0.36368577  1  0  0.08617  0  0.953984  0  0  0.097512  0  1.019601  0  0  0.097324  0  1.020659  0  0  0.114717  0.097623  0  1.018843  0
H  H64  1  0.46438784  0.99368281  0.16764286  1  0  0.076632  0  0.941186  0  0  0.087536  0  1.008208  0  0  0.08774  0  1.008798  0  0  0.105814  0.087317  0  1.00794  0
H  H65  1  0.53561272  0.50631845  0.66764316  1  0  0.076622  0  0.941175  0  0  0.087542  0  1.008175  0  0  0.087746  0  1.008764  0  0  0.105809  0.087323  0  1.007909  0
H  H66  1  0.53561241  0.00631841  0.83235652  1  0  0.076608  0  0.941183  0  0  0.087513  0  1.008211  0  0  0.087717  0  1.0088  0  0  0.1058  0.087294  0  1.007944  0
H  H67  1  0.46438847  0.49368181  0.33235708  1  0  0.076575  0  0.941183  0  0  0.087501  0  1.008218  0  0  0.087705  0  1.00881  0  0  0.1058  0.087283  0  1.007952  0
H  H68  1  0.36484556  0.13073346  0.01905488  1  0  0.064819  0  0.912198  0  0  0.077855  0  0.97566  0  0  0.078671  0  0.974467  0  0  0.106556  0.077409  0  0.976268  0
H  H69  1  0.63515424  0.36926643  0.51905380  1  0  0.06477  0  0.912206  0  0  0.077815  0  0.975666  0  0  0.07863  0  0.974472  0  0  0.106548  0.077368  0  0.976276  0
H  H70  1  0.63515367  0.86926679  0.98094622  1  0  0.064765  0  0.912207  0  0  0.077799  0  0.975672  0  0  0.07862  0  0.974483  0  0  0.106546  0.077354  0  0.976282  0
H  H71  1  0.36484588  0.63073188  0.48094730  1  0  0.064781  0  0.912198  0  0  0.077824  0  0.975655  0  0  0.078632  0  0.974456  0  0  0.106552  0.077376  0  0.976265  0
H  H72  1  0.30793968  0.05193265  0.88883834  1  0  0.093645  0  0.927215  0  0  0.103401  0  0.994105  0  0  0.103731  0  0.994758  0  0  0.116429  0.103027  0  0.993801  0
H  H73  1  0.69206116  0.44806604  0.38883784  1  0  0.09363  0  0.927209  0  0  0.103411  0  0.994068  0  0  0.103741  0  0.994715  0  0  0.116441  0.103036  0  0.993766  0
H  H74  1  0.69206053  0.94806760  0.11116190  1  0  0.093645  0  0.927195  0  0  0.103404  0  0.994073  0  0  0.103738  0  0.994727  0  0  0.116437  0.10303  0  0.993771  0
H  H75  1  0.30793999  0.55193325  0.61116240  1  0  0.093636  0  0.927229  0  0  0.103388  0  0.994126  0  0  0.103711  0  0.994772  0  0  0.116427  0.103012  0  0.993824  0
C  C76  1  0.11088929  0.62807165  0.12644886  1  0  -0.231723  0  3.950677  0  0  -0.241106  0  4.194557  0  0  -0.243946  0  4.217699  0  0  -0.168218  -0.238727  0  4.178259  0
C  C77  1  0.88910747  0.87193319  0.62645216  1  0  -0.23183  0  3.950654  0  0  -0.241198  0  4.194533  0  0  -0.244027  0  4.217671  0  0  -0.168251  -0.238787  0  4.178255  0
C  C78  1  0.88910698  0.37192859  0.87355225  1  0  -0.231727  0  3.950839  0  0  -0.241108  0  4.194707  0  0  -0.243946  0  4.217854  0  0  -0.168203  -0.23871  0  4.17842  0
C  C79  1  0.11089090  0.12806998  0.37354894  1  0  -0.231791  0  3.9506  0  0  -0.241154  0  4.194478  0  0  -0.243988  0  4.217619  0  0  -0.168237  -0.238761  0  4.178188  0
C  C80  1  0.13901145  0.49689648  0.10932777  1  0  -0.150851  0  3.865304  0  0  -0.159992  0  4.112704  0  0  -0.16398  0  4.137996  0  0  -0.148959  -0.156833  0  4.095335  0
C  C81  1  0.86098081  0.00311085  0.60932898  1  0  -0.150816  0  3.865091  0  0  -0.159929  0  4.112493  0  0  -0.16392  0  4.137783  0  0  -0.148933  -0.156768  0  4.09512  0
C  C82  1  0.86098469  0.50310085  0.89067248  1  0  -0.15076  0  3.865336  0  0  -0.159899  0  4.112722  0  0  -0.16389  0  4.138016  0  0  -0.148898  -0.15674  0  4.095348  0
C  C83  1  0.13901631  0.99688648  0.39067213  1  0  -0.150848  0  3.865037  0  0  -0.16  0  4.112428  0  0  -0.163991  0  4.137717  0  0  -0.14896  -0.156838  0  4.095053  0
C  C84  1  0.27347505  0.48170660  0.13568317  1  0  -0.157147  0  3.869272  0  0  -0.165887  0  4.116073  0  0  -0.170276  0  4.140512  0  0  -0.151429  -0.162958  0  4.099872  0
C  C85  1  0.72651698  0.01829509  0.63568530  1  0  -0.157204  0  3.869325  0  0  -0.1659  0  4.11611  0  0  -0.170291  0  4.140548  0  0  -0.151415  -0.162985  0  4.09991  0
C  C86  1  0.72652417  0.51829365  0.86431793  1  0  -0.157266  0  3.869377  0  0  -0.165992  0  4.116184  0  0  -0.170382  0  4.140621  0  0  -0.151457  -0.163062  0  4.099986  0
C  C87  1  0.27348413  0.98170322  0.36431408  1  0  -0.157289  0  3.869311  0  0  -0.165987  0  4.116094  0  0  -0.170377  0  4.14053  0  0  -0.151422  -0.163054  0  4.099897  0
C  C88  1  0.33005890  0.60293435  0.16937789  1  0  -0.180272  0  3.911231  0  0  -0.196868  0  4.165021  0  0  -0.199034  0  4.188251  0  0  -0.157672  -0.195066  0  4.148722  0
C  C89  1  0.66993985  0.89707080  0.66937956  1  0  -0.18032  0  3.911365  0  0  -0.196905  0  4.165157  0  0  -0.199063  0  4.188382  0  0  -0.157679  -0.195103  0  4.148869  0
C  C90  1  0.66993942  0.39706784  0.83062149  1  0  -0.180228  0  3.911233  0  0  -0.196821  0  4.165017  0  0  -0.198981  0  4.188241  0  0  -0.157655  -0.195019  0  4.148722  0
C  C91  1  0.33006036  0.10292945  0.33062068  1  0  -0.180303  0  3.911412  0  0  -0.196886  0  4.165202  0  0  -0.199042  0  4.188426  0  0  -0.157685  -0.195083  0  4.148904  0
C  C92  1  0.23017482  0.69638331  0.16370546  1  0  -0.375917  0  4.028461  0  0  -0.361561  0  4.258174  0  0  -0.367793  0  4.281921  0  0  -0.210557  -0.35739  0  4.243013  0
C  C93  1  0.76982004  0.80362277  0.66370749  1  0  -0.375909  0  4.028588  0  0  -0.361492  0  4.258216  0  0  -0.367729  0  4.281965  0  0  -0.210527  -0.357319  0  4.243044  0
C  C94  1  0.76982342  0.30361694  0.83629392  1  0  -0.375923  0  4.028626  0  0  -0.361556  0  4.258313  0  0  -0.367789  0  4.282061  0  0  -0.210569  -0.357386  0  4.243151  0
C  C95  1  0.23018116  0.19637749  0.33629361  1  0  -0.375909  0  4.028608  0  0  -0.361527  0  4.25829  0  0  -0.367763  0  4.282042  0  0  -0.21054  -0.357357  0  4.243123  0
C  C96  1  0.40949846  0.71339943  0.83305918  1  0  -0.236715  0  3.943918  0  0  -0.244423  0  4.191476  0  0  -0.247234  0  4.212794  0  0  -0.171164  -0.242262  0  4.176538  0
C  C97  1  0.59050305  0.78660012  0.33305860  1  0  -0.23669  0  3.943889  0  0  -0.244394  0  4.191447  0  0  -0.247203  0  4.212764  0  0  -0.171132  -0.242232  0  4.17651  0
C  C98  1  0.59050076  0.28660082  0.16694020  1  0  -0.236684  0  3.943809  0  0  -0.244386  0  4.191365  0  0  -0.247197  0  4.212681  0  0  -0.171135  -0.242225  0  4.176423  0
C  C99  1  0.40949810  0.21339917  0.66694078  1  0  -0.23674  0  3.943874  0  0  -0.244445  0  4.191436  0  0  -0.247256  0  4.212753  0  0  -0.171163  -0.242287  0  4.176504  0
C  C100  1  0.31529895  0.78673919  0.77415205  1  0  -0.234441  0  3.908099  0  0  -0.243544  0  4.152488  0  0  -0.2466  0  4.174173  0  0  -0.176036  -0.241198  0  4.138264  0
C  C101  1  0.68470248  0.71325896  0.27415194  1  0  -0.234509  0  3.908196  0  0  -0.243621  0  4.152561  0  0  -0.246676  0  4.174245  0  0  -0.176033  -0.241276  0  4.138336  0
C  C102  1  0.68470126  0.21326106  0.22584733  1  0  -0.234487  0  3.907993  0  0  -0.243593  0  4.152392  0  0  -0.246647  0  4.174069  0  0  -0.176063  -0.241246  0  4.138164  0
C  C103  1  0.31529867  0.28674033  0.72584744  1  0  -0.234402  0  3.90805  0  0  -0.243508  0  4.152401  0  0  -0.246564  0  4.174085  0  0  -0.175996  -0.241163  0  4.138178  0
C  C104  1  0.21121607  0.59684700  0.83864176  1  0  -0.240439  0  3.921411  0  0  -0.247084  0  4.162655  0  0  -0.25021  0  4.184872  0  0  -0.170621  -0.244773  0  4.147801  0
C  C105  1  0.78878549  0.90315356  0.33864189  1  0  -0.240532  0  3.921524  0  0  -0.247184  0  4.162768  0  0  -0.250307  0  4.18499  0  0  -0.170639  -0.244872  0  4.147912  0
C  C106  1  0.78878320  0.40315423  0.16135675  1  0  -0.240563  0  3.921552  0  0  -0.247208  0  4.162801  0  0  -0.250335  0  4.185013  0  0  -0.170674  -0.244898  0  4.147945  0
C  C107  1  0.21121665  0.09684572  0.66135835  1  0  -0.240522  0  3.921465  0  0  -0.247175  0  4.162713  0  0  -0.250302  0  4.184935  0  0  -0.17064  -0.244863  0  4.147859  0
C  C108  1  0.19274085  0.71437570  0.77735749  1  0  -0.249505  0  3.941624  0  0  -0.257481  0  4.192393  0  0  -0.260499  0  4.213065  0  0  -0.176244  -0.255262  0  4.178084  0
C  C109  1  0.80726063  0.78562345  0.27735868  1  0  -0.249575  0  3.941623  0  0  -0.257558  0  4.192414  0  0  -0.260576  0  4.213081  0  0  -0.17633  -0.255342  0  4.178105  0
C  C110  1  0.80725846  0.28562650  0.22264102  1  0  -0.249493  0  3.941678  0  0  -0.257503  0  4.192453  0  0  -0.260497  0  4.213143  0  0  -0.176256  -0.255284  0  4.178143  0
C  C111  1  0.19274052  0.21437584  0.72264156  1  0  -0.249562  0  3.941573  0  0  -0.257525  0  4.192359  0  0  -0.260538  0  4.213027  0  0  -0.176275  -0.255307  0  4.178051  0
C  C112  1  0.34577231  0.59648145  0.87304976  1  0  -0.229154  0  3.917222  0  0  -0.231674  0  4.151131  0  0  -0.23528  0  4.174009  0  0  -0.167231  -0.229103  0  4.135843  0
C  C113  1  0.65422828  0.90351936  0.37305072  1  0  -0.229113  0  3.917149  0  0  -0.231632  0  4.15107  0  0  -0.235235  0  4.173941  0  0  -0.167223  -0.229059  0  4.135774  0
C  C114  1  0.65422691  0.40351881  0.12694876  1  0  -0.229108  0  3.917182  0  0  -0.231619  0  4.151089  0  0  -0.235224  0  4.173969  0  0  -0.167212  -0.229052  0  4.135809  0
C  C115  1  0.34577197  0.09648187  0.62695038  1  0  -0.229105  0  3.91706  0  0  -0.231619  0  4.150978  0  0  -0.235227  0  4.17386  0  0  -0.167232  -0.229045  0  4.135684  0
C  C116  1  0.91427475  0.01524208  0.90612729  1  0  0.05487  0  3.572078  0  0  -0.004107  0  3.837763  0  0  0.002382  0  3.842109  0  0  -0.068791  -0.008253  0  3.834337  0
C  C117  1  0.08572516  0.48475770  0.40612773  1  0  0.05494  0  3.572028  0  0  -0.004027  0  3.83767  0  0  0.00246  0  3.842019  0  0  -0.068776  -0.008172  0  3.834243  0
C  C118  1  0.08572546  0.98475817  0.09387209  1  0  0.055012  0  3.571963  0  0  -0.004003  0  3.837659  0  0  0.002484  0  3.842005  0  0  -0.068752  -0.008147  0  3.834228  0
C  C119  1  0.91427505  0.51524256  0.59387251  1  0  0.055047  0  3.571989  0  0  -0.00396  0  3.837679  0  0  0.002527  0  3.842027  0  0  -0.068741  -0.008105  0  3.83425  0
C  C120  1  0.96675148  0.88550430  0.93873429  1  0  0.061862  0  3.590489  0  0  -0.002762  0  3.863464  0  0  0.004138  0  3.867502  0  0  -0.066068  -0.007515  0  3.860636  0
C  C121  1  0.03324911  0.61449601  0.43873607  1  0  0.061759  0  3.590623  0  0  -0.002784  0  3.863492  0  0  0.004119  0  3.867529  0  0  -0.066054  -0.00754  0  3.860666  0
C  C122  1  0.03324872  0.11449595  0.06126509  1  0  0.061786  0  3.590542  0  0  -0.002822  0  3.863522  0  0  0.004077  0  3.867563  0  0  -0.066079  -0.007575  0  3.860691  0
C  C123  1  0.96675110  0.38550425  0.56126504  1  0  0.061767  0  3.590506  0  0  -0.002828  0  3.86348  0  0  0.004072  0  3.867518  0  0  -0.066075  -0.00758  0  3.860651  0
C  C124  1  0.48144956  0.92252361  0.09924003  1  0  0.055195  0  3.584098  0  0  -0.006986  0  3.850036  0  0  -0.000463  0  3.855192  0  0  -0.070511  -0.011513  0  3.846692  0
C  C125  1  0.51854996  0.57747715  0.59924072  1  0  0.055221  0  3.584025  0  0  -0.006957  0  3.850017  0  0  -0.000441  0  3.855155  0  0  -0.070482  -0.011489  0  3.846677  0
C  C126  1  0.51854966  0.07747664  0.90076021  1  0  0.055308  0  3.583976  0  0  -0.006848  0  3.849951  0  0  -0.00032  0  3.855103  0  0  -0.070436  -0.011378  0  3.846607  0
C  C127  1  0.48145119  0.42252213  0.40075952  1  0  0.055399  0  3.584025  0  0  -0.00683  0  3.850124  0  0  -0.000304  0  3.855285  0  0  -0.070442  -0.011369  0  3.846786  0
C  C128  1  0.38464420  0.05412889  0.95567656  1  0  0.066671  0  3.578303  0  0  0.006454  0  3.846695  0  0  0.013215  0  3.850863  0  0  -0.065085  0.001843  0  3.843674  0
C  C129  1  0.61535672  0.44587125  0.45567689  1  0  0.06668  0  3.578371  0  0  0.006497  0  3.846776  0  0  0.013275  0  3.850936  0  0  -0.065078  0.001887  0  3.843756  0
C  C130  1  0.61535605  0.94587234  0.04432282  1  0  0.066724  0  3.578272  0  0  0.006558  0  3.846644  0  0  0.013305  0  3.850851  0  0  -0.065079  0.001939  0  3.843636  0
C  C131  1  0.38464443  0.55412803  0.54432335  1  0  0.06665  0  3.578325  0  0  0.006496  0  3.846728  0  0  0.013311  0  3.85085  0  0  -0.065095  0.001883  0  3.843705  0
O  O132  1  0.37657783  0.92997819  0.01475734  1  0  -0.402165  0  2.378491  0  0  -0.32613  0  2.622225  0  0  -0.341799  0  2.623474  0  0  -0.258842  -0.314879  0  2.620418  0
O  O133  1  0.62342259  0.57002099  0.51475801  1  0  -0.402067  0  2.378444  0  0  -0.326114  0  2.622247  0  0  -0.341816  0  2.623523  0  0  -0.25883  -0.314851  0  2.620405  0
O  O134  1  0.62342238  0.07002207  0.98524204  1  0  -0.402097  0  2.378448  0  0  -0.326182  0  2.622259  0  0  -0.34188  0  2.623542  0  0  -0.258871  -0.314918  0  2.620428  0
O  O135  1  0.37657856  0.42997829  0.48524137  1  0  -0.402118  0  2.378531  0  0  -0.326241  0  2.622402  0  0  -0.341959  0  2.623669  0  0  -0.258886  -0.314962  0  2.620562  0
O  O136  1  0.90406858  0.09686909  0.00824880  1  0  -0.395455  0  2.328685  0  0  -0.319145  0  2.572951  0  0  -0.334625  0  2.573586  0  0  -0.255267  -0.308415  0  2.571807  0
O  O137  1  0.09593121  0.40313072  0.50824866  1  0  -0.395482  0  2.328728  0  0  -0.319169  0  2.572965  0  0  -0.334649  0  2.573595  0  0  -0.255268  -0.308441  0  2.571828  0
O  O138  1  0.09593158  0.90313019  0.99175144  1  0  -0.395536  0  2.328708  0  0  -0.319192  0  2.57296  0  0  -0.334667  0  2.573591  0  0  -0.255279  -0.308461  0  2.571816  0
O  O139  1  0.90406900  0.59686953  0.49175245  1  0  -0.395512  0  2.328756  0  0  -0.319217  0  2.573032  0  0  -0.334693  0  2.573662  0  0  -0.255296  -0.308484  0  2.571891  0
