# generated using pymatgen
data_H22PbC27(NO)4
_symmetry_space_group_name_H-M   'P 1'
_cell_length_a   11.39923425
_cell_length_b   11.48350408
_cell_length_c   12.73280801
_cell_angle_alpha   63.55611374
_cell_angle_beta   66.49544821
_cell_angle_gamma   61.18421875
_symmetry_Int_Tables_number   1
_chemical_formula_structural   H22PbC27(NO)4
_chemical_formula_sum   'H44 Pb2 C54 N8 O8'
_cell_volume   1271.03163613
_cell_formula_units_Z   2
loop_
 _symmetry_equiv_pos_site_id
 _symmetry_equiv_pos_as_xyz
  1  'x, y, z'
loop_
 _atom_site_type_symbol
 _atom_site_label
 _atom_site_symmetry_multiplicity
 _atom_site_fract_x
 _atom_site_fract_y
 _atom_site_fract_z
 _atom_site_occupancy
 _atom_site_hle17_bader_spin_density
 _atom_site_hle17_ddec_charge
 _atom_site_hle17_ddec_spin_density
 _atom_site_hle17_ddec_sum_bond_order
 _atom_site_hle17_magmom
 _atom_site_hse06_10hf_bader_spin_density
 _atom_site_hse06_10hf_ddec_charge
 _atom_site_hse06_10hf_ddec_spin_density
 _atom_site_hse06_10hf_ddec_sum_bond_order
 _atom_site_hse06_10hf_magmom
 _atom_site_hse06_bader_spin_density
 _atom_site_hse06_ddec_charge
 _atom_site_hse06_ddec_spin_density
 _atom_site_hse06_ddec_sum_bond_order
 _atom_site_hse06_magmom
 _atom_site_pbe_bader_spin_density
 _atom_site_pbe_cm5_charge
 _atom_site_pbe_ddec_charge
 _atom_site_pbe_ddec_spin_density
 _atom_site_pbe_ddec_sum_bond_order
 _atom_site_pbe_magmom
H  H0  1  0.50708677  0.73494203  0.95052909  1  0  0.115667  0  0.952722  0  0  0.120309  0  1.020684  0  0  0.124416  0  1.018091  0  0  0.105226  0.117541  0  1.022327  0
H  H1  1  0.49290224  0.26506722  0.04947225  1  0  0.115728  0  0.952659  0  0  0.120312  0  1.020681  0  0  0.12442  0  1.018084  0  0  0.105234  0.117541  0  1.022326  0
H  H2  1  0.33790775  0.96521816  0.98228127  1  0  0.062436  0  1.002638  0  0  0.072177  0  1.071136  0  0  0.074239  0  1.070244  0  0  0.088652  0.070899  0  1.071515  0
H  H3  1  0.66207622  0.03479219  0.01771586  1  0  0.062419  0  1.002627  0  0  0.072163  0  1.071122  0  0  0.074226  0  1.070231  0  0  0.088672  0.070885  0  1.071502  0
H  H4  1  0.08819203  0.00474200  0.06557339  1  0  0.089839  0  0.964264  0  0  0.100167  0  1.025414  0  0  0.102728  0  1.025042  0  0  0.099398  0.098083  0  1.026454  0
H  H5  1  0.91179015  0.99526840  0.93441805  1  0  0.089827  0  0.964318  0  0  0.100144  0  1.025471  0  0  0.102704  0  1.025101  0  0  0.099382  0.098059  0  1.026506  0
H  H6  1  0.00691348  0.81841822  0.10660538  1  0  0.097466  0  0.952804  0  0  0.106998  0  1.017032  0  0  0.110175  0  1.0151  0  0  0.103169  0.104298  0  1.019633  0
H  H7  1  0.99307239  0.18159010  0.89338247  1  0  0.097489  0  0.953017  0  0  0.107068  0  1.017177  0  0  0.110241  0  1.015251  0  0  0.103213  0.104381  0  1.019752  0
H  H8  1  0.64640360  0.36205265  0.48686132  1  0  0.096457  0  0.94983  0  0  0.107375  0  1.010834  0  0  0.11006  0  1.010301  0  0  0.102302  0.104796  0  1.012947  0
H  H9  1  0.35360432  0.63794078  0.51314919  1  0  0.096601  0  0.949666  0  0  0.107472  0  1.010718  0  0  0.110159  0  1.010187  0  0  0.102338  0.10489  0  1.012835  0
H  H10  1  0.50172355  0.41211928  0.68116930  1  0  0.094335  0  0.956136  0  0  0.106323  0  1.01456  0  0  0.109383  0  1.012961  0  0  0.101955  0.10394  0  1.016159  0
H  H11  1  0.49827984  0.58787628  0.31883878  1  0  0.094361  0  0.956147  0  0  0.106353  0  1.014564  0  0  0.109374  0  1.013012  0  0  0.101963  0.103971  0  1.016164  0
H  H12  1  0.57739644  0.50428578  0.77563032  1  0  0.092803  0  0.975131  0  0  0.097807  0  1.043366  0  0  0.100756  0  1.04158  0  0  0.098676  0.095847  0  1.044457  0
H  H13  1  0.42259821  0.49572341  0.22437461  1  0  0.09276  0  0.975077  0  0  0.097799  0  1.043285  0  0  0.100748  0  1.041499  0  0  0.098663  0.095843  0  1.044378  0
H  H14  1  0.79998221  0.54310670  0.67869154  1  0  0.121728  0  0.959381  0  0  0.124041  0  1.030722  0  0  0.128378  0  1.027649  0  0  0.107969  0.121052  0  1.032589  0
H  H15  1  0.20001419  0.45690040  0.32131204  1  0  0.121792  0  0.959288  0  0  0.124117  0  1.0306  0  0  0.12845  0  1.027533  0  0  0.10799  0.121126  0  1.032474  0
H  H16  1  0.35768152  0.07743402  0.06231821  1  0  0.050978  0  0.971987  0  0  0.062357  0  1.037488  0  0  0.064167  0  1.035431  0  0  0.109901  0.061165  0  1.038733  0
H  H17  1  0.64231224  0.92255953  0.93768688  1  0  0.050954  0  0.972034  0  0  0.062334  0  1.037533  0  0  0.064146  0  1.035476  0  0  0.109877  0.061144  0  1.038769  0
H  H18  1  0.55626708  0.85901039  0.12723185  1  0  0.10016  0  0.95144  0  0  0.115248  0  1.005342  0  0  0.118074  0  1.00451  0  0  0.108308  0.113231  0  1.006058  0
H  H19  1  0.44372750  0.14098108  0.87277063  1  0  0.100132  0  0.951481  0  0  0.115241  0  1.00535  0  0  0.118069  0  1.004515  0  0  0.108313  0.113225  0  1.006067  0
H  H20  1  0.38625743  0.90067910  0.48320035  1  0  0.102982  0  0.968298  0  0  0.113083  0  1.029685  0  0  0.115941  0  1.029744  0  0  0.104  0.111055  0  1.02968  0
H  H21  1  0.61375853  0.09931645  0.51679794  1  0  0.103018  0  0.968275  0  0  0.113117  0  1.029653  0  0  0.115975  0  1.029713  0  0  0.104047  0.111088  0  1.029648  0
H  H22  1  0.19264157  0.11570538  0.40386233  1  0  0.08578  0  0.974609  0  0  0.091083  0  1.044548  0  0  0.093907  0  1.042043  0  0  0.116256  0.08903  0  1.046197  0
H  H23  1  0.80736320  0.88428915  0.59614333  1  0  0.085808  0  0.974648  0  0  0.091127  0  1.044568  0  0  0.093949  0  1.042065  0  0  0.116292  0.089075  0  1.046222  0
H  H24  1  0.65657871  0.66866334  0.30039016  1  0  0.098539  0  0.946793  0  0  0.113287  0  1.008456  0  0  0.115303  0  1.00703  0  0  0.098877  0.111973  0  1.009232  0
H  H25  1  0.34342162  0.33133334  0.69960910  1  0  0.098642  0  0.946753  0  0  0.113264  0  1.008493  0  0  0.115278  0  1.007072  0  0  0.098873  0.111954  0  1.009265  0
H  H26  1  0.59639574  0.69253893  0.44385094  1  0  0.082917  0  0.948681  0  0  0.099383  0  1.01023  0  0  0.099595  0  1.012661  0  0  0.093308  0.099151  0  1.008745  0
H  H27  1  0.40360461  0.30745775  0.55614752  1  0  0.082926  0  0.948688  0  0  0.09936  0  1.010233  0  0  0.099569  0  1.012661  0  0  0.093314  0.099131  0  1.00875  0
H  H28  1  0.83354557  0.71142144  0.31393914  1  0  0.081637  0  0.944982  0  0  0.093395  0  1.014128  0  0  0.094881  0  1.013393  0  0  0.093551  0.09231  0  1.014722  0
H  H29  1  0.16645846  0.28857837  0.68605526  1  0  0.081708  0  0.94497  0  0  0.093444  0  1.014115  0  0  0.094928  0  1.01338  0  0  0.093572  0.092363  0  1.014701  0
H  H30  1  0.74158440  0.87177976  0.21874732  1  0  0.060616  0  0.943777  0  0  0.081509  0  1.003169  0  0  0.08177  0  1.004492  0  0  0.086836  0.081222  0  1.002323  0
H  H31  1  0.25841237  0.12821905  0.78124918  1  0  0.060647  0  0.943782  0  0  0.081542  0  1.003151  0  0  0.081786  0  1.004492  0  0  0.086845  0.081253  0  1.002308  0
H  H32  1  0.72705529  0.79702571  0.48532261  1  0  0.084297  0  0.928914  0  0  0.101971  0  0.988412  0  0  0.102736  0  0.98896  0  0  0.096093  0.101515  0  0.987821  0
H  H33  1  0.27294241  0.20297830  0.51467389  1  0  0.084312  0  0.92891  0  0  0.101966  0  0.988405  0  0  0.102729  0  0.988954  0  0  0.096066  0.101513  0  0.98781  0
H  H34  1  0.59881148  0.94514012  0.41396558  1  0  0.065273  0  0.956784  0  0  0.083123  0  1.021202  0  0  0.084212  0  1.020979  0  0  0.088117  0.082508  0  1.020934  0
H  H35  1  0.40119146  0.05486285  0.58602560  1  0  0.065254  0  0.956829  0  0  0.08313  0  1.021186  0  0  0.084219  0  1.020958  0  0  0.088108  0.082516  0  1.020924  0
H  H36  1  0.64311052  0.15276435  0.26148972  1  0  0.107124  0  0.94258  0  0  0.119994  0  0.996953  0  0  0.12287  0  0.996971  0  0  0.105553  0.118037  0  0.996863  0
H  H37  1  0.35689480  0.84723963  0.73850575  1  0  0.107134  0  0.942556  0  0  0.120023  0  0.996909  0  0  0.122897  0  0.996929  0  0  0.105581  0.118065  0  0.996823  0
H  H38  1  0.78744686  0.29407514  0.18693178  1  0  0.078723  0  0.940397  0  0  0.086708  0  1.004522  0  0  0.088904  0  1.002382  0  0  0.115465  0.085066  0  1.006191  0
H  H39  1  0.21255653  0.70592564  0.81307504  1  0  0.07865  0  0.940378  0  0  0.086655  0  1.004499  0  0  0.08885  0  1.002361  0  0  0.115464  0.085012  0  1.006166  0
H  H40  1  0.10363042  0.95166795  0.33522984  1  0  0.069453  0  0.945778  0  0  0.077257  0  1.010338  0  0  0.079237  0  1.009475  0  0  0.109991  0.076085  0  1.010391  0
H  H41  1  0.89637780  0.04832558  0.66476560  1  0  0.069465  0  0.94581  0  0  0.077316  0  1.01033  0  0  0.079295  0  1.009463  0  0  0.110001  0.076141  0  1.010383  0
H  H42  1  0.97014461  0.79757328  0.42140718  1  0  0.114395  0  0.966046  0  0  0.119156  0  1.033726  0  0  0.121998  0  1.033846  0  0  0.105123  0.117138  0  1.033781  0
H  H43  1  0.02986070  0.20242344  0.57858093  1  0  0.114396  0  0.966085  0  0  0.119196  0  1.03372  0  0  0.122042  0  1.033835  0  0  0.105133  0.117161  0  1.033796  0
Pb  Pb44  1  0.07121612  0.32846868  0.14098172  1  0  1.175979  0  1.523638  0  0  0.98309  0  1.916582  0  0  1.04251  0  1.87729  0  0  0.604253  0.938961  0  1.946546  0
Pb  Pb45  1  0.92879887  0.67150801  0.85902980  1  0  1.175986  0  1.523685  0  0  0.983097  0  1.916636  0  0  1.042519  0  1.877339  0  0  0.604219  0.938946  0  1.946604  0
C  C46  1  0.15715133  0.56333033  0.08020393  1  0  0.650955  0  3.917401  0  0  0.599452  0  4.211356  0  0  0.634716  0  4.204482  0  0  0.204549  0.575653  0  4.215077  0
C  C47  1  0.84284470  0.43667580  0.91978995  1  0  0.650836  0  3.917814  0  0  0.599382  0  4.211749  0  0  0.634644  0  4.204871  0  0  0.204519  0.575584  0  4.215469  0
C  C48  1  0.20868109  0.67465299  0.05215587  1  0  -0.110271  0  3.703537  0  0  -0.094623  0  3.938304  0  0  -0.102529  0  3.959538  0  0  -0.009044  -0.090065  0  3.924559  0
C  C49  1  0.79131145  0.32535209  0.94784118  1  0  -0.110176  0  3.70341  0  0  -0.094616  0  3.938293  0  0  -0.102519  0  3.959524  0  0  -0.00901  -0.09006  0  3.924545  0
C  C50  1  0.35034890  0.65120870  0.01083460  1  0  0.145828  0  3.797898  0  0  0.145095  0  4.049482  0  0  0.148058  0  4.070941  0  0  0.094079  0.143494  0  4.035161  0
C  C51  1  0.64964172  0.34880161  0.98916263  1  0  0.145988  0  3.797604  0  0  0.145282  0  4.0492  0  0  0.148243  0  4.07066  0  0  0.094146  0.143692  0  4.034866  0
C  C52  1  0.39694515  0.75578232  0.98603398  1  0  -0.146445  0  3.725756  0  0  -0.167993  0  3.976542  0  0  -0.171809  0  3.996703  0  0  -0.08939  -0.164542  0  3.962014  0
C  C53  1  0.60304067  0.24422800  0.01396567  1  0  -0.146594  0  3.725806  0  0  -0.168077  0  3.976576  0  0  -0.171894  0  3.996736  0  0  -0.089418  -0.164625  0  3.962044  0
C  C54  1  0.30196701  0.88300489  0.00429367  1  0  -0.061702  0  3.81419  0  0  -0.076874  0  4.068185  0  0  -0.077546  0  4.090032  0  0  -0.096556  -0.076364  0  4.052558  0
C  C55  1  0.69801793  0.11700546  0.99570234  1  0  -0.06166  0  3.814092  0  0  -0.076832  0  4.068061  0  0  -0.077506  0  4.08991  0  0  -0.096557  -0.076327  0  4.052436  0
C  C56  1  0.16170386  0.90604119  0.04916462  1  0  -0.074872  0  3.7671  0  0  -0.089968  0  4.019156  0  0  -0.092648  0  4.040743  0  0  -0.092824  -0.08762  0  4.005133  0
C  C57  1  0.83828344  0.09396813  0.95082785  1  0  -0.074831  0  3.766919  0  0  -0.089906  0  4.018987  0  0  -0.092589  0  4.040575  0  0  -0.092842  -0.087554  0  4.004962  0
C  C58  1  0.11587580  0.80234654  0.07198327  1  0  -0.061557  0  3.734797  0  0  -0.085667  0  3.985192  0  0  -0.085319  0  4.005228  0  0  -0.082597  -0.085785  0  3.97304  0
C  C59  1  0.88411362  0.19765964  0.92800813  1  0  -0.061678  0  3.735025  0  0  -0.085824  0  3.985455  0  0  -0.08547  0  4.005483  0  0  -0.082644  -0.085946  0  3.973316  0
C  C60  1  0.88539804  0.39552089  0.35671545  1  0  0.642791  0  3.902858  0  0  0.58913  0  4.199311  0  0  0.62468  0  4.191681  0  0  0.208591  0.56558  0  4.202999  0
C  C61  1  0.11460334  0.60447784  0.64328815  1  0  0.642978  0  3.902714  0  0  0.589283  0  4.199191  0  0  0.624834  0  4.191555  0  0  0.208635  0.565736  0  4.202871  0
C  C62  1  0.80363024  0.42227190  0.47498596  1  0  -0.108341  0  3.710287  0  0  -0.088442  0  3.939808  0  0  -0.095608  0  3.960462  0  0  -0.006967  -0.085714  0  3.927885  0
C  C63  1  0.19636649  0.57772891  0.52502155  1  0  -0.108411  0  3.71042  0  0  -0.08846  0  3.939896  0  0  -0.095631  0  3.96056  0  0  -0.006942  -0.08574  0  3.927968  0
C  C64  1  0.67978876  0.39949073  0.53098850  1  0  -0.08266  0  3.760562  0  0  -0.106485  0  4.010633  0  0  -0.107301  0  4.032029  0  0  -0.088444  -0.106416  0  3.998655  0
C  C65  1  0.32021448  0.60050797  0.46901682  1  0  -0.082792  0  3.760335  0  0  -0.106587  0  4.010386  0  0  -0.107397  0  4.031762  0  0  -0.088508  -0.106507  0  3.998403  0
C  C66  1  0.59941431  0.42747606  0.63930235  1  0  -0.07217  0  3.760775  0  0  -0.086706  0  4.010125  0  0  -0.089201  0  4.031658  0  0  -0.090113  -0.083911  0  3.995597  0
C  C67  1  0.40058725  0.57252476  0.36070115  1  0  -0.072332  0  3.760674  0  0  -0.086882  0  4.010038  0  0  -0.089346  0  4.031576  0  0  -0.09018  -0.084092  0  3.995518  0
C  C68  1  0.64212845  0.47953860  0.69249837  1  0  -0.054051  0  3.761138  0  0  -0.064653  0  4.007474  0  0  -0.065821  0  4.028797  0  0  -0.088942  -0.064031  0  3.991679  0
C  C69  1  0.35786910  0.52046537  0.30750527  1  0  -0.053875  0  3.761112  0  0  -0.064497  0  4.00745  0  0  -0.065661  0  4.028757  0  0  -0.088942  -0.063881  0  3.991667  0
C  C70  1  0.76628993  0.50067966  0.63922061  1  0  -0.133015  0  3.702191  0  0  -0.15484  0  3.953451  0  0  -0.15793  0  3.973399  0  0  -0.08434  -0.151126  0  3.938267  0
C  C71  1  0.23371148  0.49932430  0.36078013  1  0  -0.133255  0  3.702317  0  0  -0.15509  0  3.953637  0  0  -0.158183  0  3.973591  0  0  -0.084393  -0.151376  0  3.938455  0
C  C72  1  0.84809202  0.47138520  0.53073539  1  0  0.134924  0  3.78089  0  0  0.133924  0  4.032364  0  0  0.135876  0  4.054583  0  0  0.089728  0.132917  0  4.01787  0
C  C73  1  0.15190649  0.52861876  0.46926792  1  0  0.135106  0  3.780821  0  0  0.134075  0  4.032305  0  0  0.136027  0  4.054524  0  0  0.089846  0.133074  0  4.017804  0
C  C74  1  0.36856978  0.03494201  0.15498921  1  0  0.115089  0  3.779682  0  0  0.087044  0  4.029036  0  0  0.093483  0  4.050304  0  0  0.045772  0.082981  0  4.014422  0
C  C75  1  0.63143180  0.96505359  0.84501397  1  0  0.115125  0  3.779729  0  0  0.087073  0  4.029095  0  0  0.093508  0  4.050363  0  0  0.045793  0.083011  0  4.014475  0
C  C76  1  0.47936104  0.91488084  0.19076258  1  0  -0.176381  0  3.726002  0  0  -0.192788  0  3.971066  0  0  -0.201601  0  3.994045  0  0  -0.085032  -0.187058  0  3.955828  0
C  C77  1  0.52064287  0.08511372  0.80923865  1  0  -0.176362  0  3.725964  0  0  -0.192764  0  3.971042  0  0  -0.201576  0  3.994021  0  0  -0.085081  -0.187035  0  3.955804  0
C  C78  1  0.49190398  0.86504104  0.30971499  1  0  0.166132  0  3.72144  0  0  0.180918  0  3.958245  0  0  0.18657  0  3.980298  0  0  0.017045  0.177433  0  3.942656  0
C  C79  1  0.50810207  0.13495561  0.69028390  1  0  0.166137  0  3.72143  0  0  0.180844  0  3.958272  0  0  0.186489  0  3.980335  0  0  0.017081  0.177362  0  3.942685  0
C  C80  1  0.38535961  0.93724488  0.38836016  1  0  -0.181643  0  3.706512  0  0  -0.196822  0  3.951178  0  0  -0.204957  0  3.971467  0  0  -0.085273  -0.191479  0  3.936774  0
C  C81  1  0.61465035  0.06275381  0.61164209  1  0  -0.181768  0  3.706624  0  0  -0.196927  0  3.951345  0  0  -0.205063  0  3.971634  0  0  -0.085369  -0.191586  0  3.936944  0
C  C82  1  0.27692274  0.05645160  0.34557899  1  0  0.138745  0  3.697643  0  0  0.106253  0  3.950154  0  0  0.114858  0  3.966324  0  0  0.052127  0.100897  0  3.938369  0
C  C83  1  0.72308852  0.94354081  0.65442607  1  0  0.138821  0  3.697738  0  0  0.106299  0  3.95026  0  0  0.114909  0  3.966422  0  0  0.052079  0.10094  0  3.938481  0
C  C84  1  0.61890380  0.74616729  0.34611611  1  0  -0.181611  0  3.689898  0  0  -0.222365  0  3.936007  0  0  -0.225101  0  3.949245  0  0  -0.161978  -0.220246  0  3.926587  0
C  C85  1  0.38110186  0.25382518  0.65388376  1  0  -0.18171  0  3.690051  0  0  -0.222264  0  3.936001  0  0  -0.224991  0  3.94923  0  0  -0.162006  -0.22016  0  3.926604  0
C  C86  1  0.73414603  0.79999967  0.31203693  1  0  -0.08555  0  3.627745  0  0  -0.121446  0  3.880868  0  0  -0.122791  0  3.895002  0  0  -0.157497  -0.120287  0  3.87097  0
C  C87  1  0.26585720  0.19999700  0.68795977  1  0  -0.085677  0  3.627769  0  0  -0.12156  0  3.880746  0  0  -0.122898  0  3.894877  0  0  -0.157521  -0.120404  0  3.870859  0
C  C88  1  0.70792160  0.87546174  0.39772404  1  0  -0.161914  0  3.702058  0  0  -0.206174  0  3.954782  0  0  -0.207463  0  3.966769  0  0  -0.160553  -0.20519  0  3.946142  0
C  C89  1  0.29208092  0.12453705  0.60226972  1  0  -0.16196  0  3.702084  0  0  -0.206165  0  3.954678  0  0  -0.207443  0  3.966644  0  0  -0.160547  -0.20519  0  3.946054  0
C  C90  1  0.79446997  0.96210801  0.34838503  1  0  0.146216  0  3.731335  0  0  0.162252  0  3.969076  0  0  0.166824  0  3.991669  0  0  0.008901  0.159353  0  3.953766  0
C  C91  1  0.20553804  0.03788865  0.65161083  1  0  0.146206  0  3.731341  0  0  0.162179  0  3.969136  0  0  0.166747  0  3.991734  0  0  0.008897  0.159274  0  3.953837  0
C  C92  1  0.74478381  0.10371548  0.28036373  1  0  -0.184822  0  3.725285  0  0  -0.199211  0  3.969112  0  0  -0.207762  0  3.991669  0  0  -0.090258  -0.193916  0  3.954044  0
C  C93  1  0.25522357  0.89628533  0.71963465  1  0  -0.184803  0  3.72519  0  0  -0.199188  0  3.969041  0  0  -0.207738  0  3.991604  0  0  -0.09025  -0.193887  0  3.953976  0
C  C94  1  0.82551039  0.18284772  0.23739730  1  0  0.12852  0  3.752092  0  0  0.099587  0  4.006498  0  0  0.106565  0  4.026353  0  0  0.044122  0.09533  0  3.992816  0
C  C95  1  0.17449237  0.81715519  0.76260340  1  0  0.128644  0  3.752115  0  0  0.099672  0  4.006584  0  0  0.10665  0  4.026442  0  0  0.044144  0.095414  0  3.992895  0
C  C96  1  0.00083788  0.99291380  0.32067767  1  0  0.132027  0  3.744926  0  0  0.103318  0  4.000411  0  0  0.110938  0  4.018195  0  0  0.04464  0.098476  0  3.987736  0
C  C97  1  0.99916836  0.00707971  0.67932160  1  0  0.131962  0  3.744864  0  0  0.10321  0  4.000377  0  0  0.110836  0  4.018156  0  0  0.044619  0.098374  0  3.98769  0
C  C98  1  0.92642653  0.90647067  0.36784780  1  0  -0.17177  0  3.688379  0  0  -0.1854  0  3.932121  0  0  -0.193471  0  3.953338  0  0  -0.085611  -0.180034  0  3.917871  0
C  C99  1  0.07357961  0.09352601  0.63214634  1  0  -0.17173  0  3.688267  0  0  -0.185384  0  3.932014  0  0  -0.193455  0  3.953226  0  0  -0.085606  -0.18001  0  3.91777  0
N  N100  1  0.44498346  0.52618947  0.98323526  1  0  -0.116167  0  3.000553  0  0  -0.096076  0  3.288268  0  0  -0.095971  0  3.293956  0  0  -0.12955  -0.096763  0  3.285805  0
N  N101  1  0.55500788  0.47381874  0.01676412  1  0  -0.116184  0  3.000486  0  0  -0.096155  0  3.288252  0  0  -0.096045  0  3.29394  0  0  -0.12958  -0.096851  0  3.285791  0
N  N102  1  0.96714517  0.50607113  0.46680544  1  0  -0.125717  0  2.997578  0  0  -0.103354  0  3.285458  0  0  -0.103385  0  3.292726  0  0  -0.13212  -0.104074  0  3.28195  0
N  N103  1  0.03285141  0.49393806  0.53319805  1  0  -0.125673  0  2.99752  0  0  -0.103307  0  3.285399  0  0  -0.103335  0  3.292662  0  0  -0.132116  -0.104021  0  3.281883  0
N  N104  1  0.26945695  0.10605036  0.22995127  1  0  -0.327766  0  3.222256  0  0  -0.253368  0  3.472961  0  0  -0.273141  0  3.493898  0  0  -0.301777  -0.239659  0  3.457957  0
N  N105  1  0.73054898  0.89394625  0.77005317  1  0  -0.327786  0  3.222203  0  0  -0.253394  0  3.472932  0  0  -0.273162  0  3.493859  0  0  -0.301712  -0.239686  0  3.457922  0
N  N106  1  0.95193519  0.12908758  0.25675659  1  0  -0.360659  0  3.210619  0  0  -0.294594  0  3.469182  0  0  -0.313708  0  3.490108  0  0  -0.310028  -0.281277  0  3.454122  0
N  N107  1  0.04807056  0.87090695  0.74324795  1  0  -0.360682  0  3.210713  0  0  -0.294613  0  3.469323  0  0  -0.313727  0  3.490247  0  0  -0.310081  -0.281297  0  3.454255  0
O  O108  1  0.23382978  0.43542336  0.12012771  1  0  -0.621742  0  1.934442  0  0  -0.563171  0  2.163588  0  0  -0.593023  0  2.156934  0  0  -0.306215  -0.542898  0  2.167677  0
O  O109  1  0.76616798  0.56458067  0.87986562  1  0  -0.621771  0  1.934738  0  0  -0.563182  0  2.163835  0  0  -0.593053  0  2.157223  0  0  -0.306238  -0.542908  0  2.167919  0
O  O110  1  0.03840247  0.60250746  0.06400830  1  0  -0.697551  0  1.952383  0  0  -0.62766  0  2.179702  0  0  -0.659099  0  2.174267  0  0  -0.319615  -0.605135  0  2.182254  0
O  O111  1  0.96159140  0.39749136  0.93598997  1  0  -0.697475  0  1.952591  0  0  -0.6276  0  2.179895  0  0  -0.659036  0  2.17446  0  0  -0.319597  -0.605078  0  2.182445  0
O  O112  1  0.01572389  0.32545711  0.34459952  1  0  -0.612493  0  1.974805  0  0  -0.546423  0  2.216135  0  0  -0.576265  0  2.20851  0  0  -0.293078  -0.525471  0  2.220425  0
O  O113  1  0.98427999  0.67453744  0.65540329  1  0  -0.612501  0  1.974756  0  0  -0.546409  0  2.216092  0  0  -0.576252  0  2.208465  0  0  -0.293073  -0.525459  0  2.220377  0
O  O114  1  0.82356753  0.44089951  0.27479806  1  0  -0.619967  0  1.890354  0  0  -0.557714  0  2.106192  0  0  -0.585358  0  2.098478  0  0  -0.304705  -0.537942  0  2.110275  0
O  O115  1  0.17643229  0.55909295  0.72520853  1  0  -0.6201  0  1.890209  0  0  -0.55785  0  2.106077  0  0  -0.585488  0  2.098341  0  0  -0.304736  -0.538078  0  2.110157  0
