# generated using pymatgen
data_GdH16C9NO7
_symmetry_space_group_name_H-M   'P 1'
_cell_length_a   8.20390332
_cell_length_b   9.36926622
_cell_length_c   16.99037730
_cell_angle_alpha   89.99996469
_cell_angle_beta   89.99994523
_cell_angle_gamma   93.88355951
_symmetry_Int_Tables_number   1
_chemical_formula_structural   GdH16C9NO7
_chemical_formula_sum   'Gd4 H64 C36 N4 O28'
_cell_volume   1302.95897721
_cell_formula_units_Z   4
loop_
 _symmetry_equiv_pos_site_id
 _symmetry_equiv_pos_as_xyz
  1  'x, y, z'
loop_
 _atom_site_type_symbol
 _atom_site_label
 _atom_site_symmetry_multiplicity
 _atom_site_fract_x
 _atom_site_fract_y
 _atom_site_fract_z
 _atom_site_occupancy
 _atom_site_hle17_bader_spin_density
 _atom_site_hle17_ddec_charge
 _atom_site_hle17_ddec_spin_density
 _atom_site_hle17_ddec_sum_bond_order
 _atom_site_hle17_magmom
 _atom_site_hse06_10hf_bader_spin_density
 _atom_site_hse06_10hf_ddec_charge
 _atom_site_hse06_10hf_ddec_spin_density
 _atom_site_hse06_10hf_ddec_sum_bond_order
 _atom_site_hse06_10hf_magmom
 _atom_site_hse06_bader_spin_density
 _atom_site_hse06_ddec_charge
 _atom_site_hse06_ddec_spin_density
 _atom_site_hse06_ddec_sum_bond_order
 _atom_site_hse06_magmom
 _atom_site_pbe_bader_spin_density
 _atom_site_pbe_cm5_charge
 _atom_site_pbe_ddec_charge
 _atom_site_pbe_ddec_spin_density
 _atom_site_pbe_ddec_sum_bond_order
 _atom_site_pbe_magmom
Gd  Gd0  1  0.70270498  0.41082187  0.24286018  1  0  2.189798  0  1.77902  0  0  2.101188  0  2.128496  0  0  2.157843  0  2.074177  0  0  1.466592  2.057671  0  2.171884  0
Gd  Gd1  1  0.79729459  0.58917898  0.74286020  1  0  2.189798  0  1.779064  0  0  2.101195  0  2.128525  0  0  2.157845  0  2.074215  0  0  1.466597  2.057621  0  2.172  0
Gd  Gd2  1  0.29729467  0.58917764  0.75713958  1  0  2.189776  0  1.779045  0  0  2.101166  0  2.128516  0  0  2.157824  0  2.074197  0  0  1.466595  2.057663  0  2.171877  0
Gd  Gd3  1  0.20270523  0.41082266  0.25713955  1  0  2.18981  0  1.779039  0  0  2.101231  0  2.128469  0  0  2.157886  0  2.074149  0  0  1.466602  2.057668  0  2.171934  0
H  H4  1  0.11343027  0.39700030  0.03321400  1  0  0.157671  0  0.936738  0  0  0.176696  0  0.993714  0  0  0.179489  0  0.993017  0  0  0.108702  0.174758  0  0.994173  0
H  H5  1  0.38656985  0.60299706  0.53321398  1  0  0.157676  0  0.936677  0  0  0.176701  0  0.993651  0  0  0.179494  0  0.992954  0  0  0.108716  0.174762  0  0.994111  0
H  H6  1  0.88657044  0.60299706  0.96678576  1  0  0.157733  0  0.936651  0  0  0.176732  0  0.993653  0  0  0.179526  0  0.992955  0  0  0.108724  0.174794  0  0.994113  0
H  H7  1  0.61342972  0.39700137  0.46678578  1  0  0.1577  0  0.936694  0  0  0.176702  0  0.993693  0  0  0.179495  0  0.992996  0  0  0.108706  0.174764  0  0.994153  0
H  H8  1  0.93448268  0.32621433  0.98176074  1  0  0.137596  0  0.960236  0  0  0.153437  0  1.02449  0  0  0.155998  0  1.023621  0  0  0.095562  0.151553  0  1.025214  0
H  H9  1  0.56551623  0.67378408  0.48176127  1  0  0.137631  0  0.960177  0  0  0.153472  0  1.024432  0  0  0.156032  0  1.023562  0  0  0.095597  0.151588  0  1.025158  0
H  H10  1  0.06551689  0.67378410  0.01823902  1  0  0.137641  0  0.960173  0  0  0.153489  0  1.024415  0  0  0.156049  0  1.023545  0  0  0.095607  0.151605  0  1.025139  0
H  H11  1  0.43448343  0.32621542  0.51823848  1  0  0.137593  0  0.960259  0  0  0.15345  0  1.024478  0  0  0.15601  0  1.023609  0  0  0.095585  0.151565  0  1.025201  0
H  H12  1  0.04552890  0.21645663  0.04812366  1  0  0.129648  0  0.949691  0  0  0.147591  0  1.013823  0  0  0.150428  0  1.012337  0  0  0.097402  0.145612  0  1.014845  0
H  H13  1  0.45447013  0.78354285  0.54812355  1  0  0.129657  0  0.949662  0  0  0.14759  0  1.013801  0  0  0.150426  0  1.012317  0  0  0.097396  0.14561  0  1.014823  0
H  H14  1  0.95447067  0.78354180  0.95187668  1  0  0.129664  0  0.949686  0  0  0.147604  0  1.013814  0  0  0.150441  0  1.012326  0  0  0.097406  0.145625  0  1.014836  0
H  H15  1  0.54552952  0.21645665  0.45187621  1  0  0.129656  0  0.949665  0  0  0.147598  0  1.013794  0  0  0.150433  0  1.01231  0  0  0.097403  0.145618  0  1.014815  0
H  H16  1  0.40648349  0.64848170  0.01654151  1  0  0.152055  0  0.957496  0  0  0.168491  0  1.018016  0  0  0.171747  0  1.016519  0  0  0.099621  0.1661  0  1.019186  0
H  H17  1  0.09351569  0.35151889  0.51654113  1  0  0.152088  0  0.957427  0  0  0.168505  0  1.017968  0  0  0.171759  0  1.016473  0  0  0.099626  0.166113  0  1.019138  0
H  H18  1  0.59351624  0.35151887  0.98345883  1  0  0.152087  0  0.957434  0  0  0.168502  0  1.017974  0  0  0.171756  0  1.016479  0  0  0.099625  0.16611  0  1.019144  0
H  H19  1  0.90648405  0.64848168  0.48345863  1  0  0.152084  0  0.95744  0  0  0.168499  0  1.017978  0  0  0.171753  0  1.016482  0  0  0.099618  0.166107  0  1.019146  0
H  H20  1  0.59640252  0.59621290  0.05880599  1  0  0.158427  0  0.944417  0  0  0.177321  0  0.999434  0  0  0.180438  0  0.998233  0  0  0.107154  0.175156  0  1.00025  0
H  H21  1  0.90359507  0.40378925  0.55880603  1  0  0.15845  0  0.944343  0  0  0.177361  0  0.99934  0  0  0.180479  0  0.998137  0  0  0.107174  0.175194  0  1.000155  0
H  H22  1  0.40359477  0.40378767  0.94119377  1  0  0.158438  0  0.944386  0  0  0.177347  0  0.99939  0  0  0.180465  0  0.998186  0  0  0.107155  0.17518  0  1.000205  0
H  H23  1  0.09640467  0.59621132  0.44119373  1  0  0.15846  0  0.944344  0  0  0.17737  0  0.99934  0  0  0.180487  0  0.998137  0  0  0.107178  0.175203  0  1.000154  0
H  H24  1  0.51099275  0.75446835  0.09109367  1  0  0.127281  0  0.950384  0  0  0.145133  0  1.015893  0  0  0.147419  0  1.015181  0  0  0.097856  0.143606  0  1.016357  0
H  H25  1  0.98900844  0.24553375  0.59109372  1  0  0.127308  0  0.950372  0  0  0.145161  0  1.015879  0  0  0.147448  0  1.015168  0  0  0.097871  0.143634  0  1.016344  0
H  H26  1  0.48900690  0.24553115  0.90890609  1  0  0.127295  0  0.950367  0  0  0.145146  0  1.015875  0  0  0.147433  0  1.015163  0  0  0.097855  0.143619  0  1.016339  0
H  H27  1  0.01099382  0.75446789  0.40890603  1  0  0.127304  0  0.950373  0  0  0.145154  0  1.015877  0  0  0.147441  0  1.015166  0  0  0.09786  0.143628  0  1.016342  0
H  H28  1  0.32658776  0.11288651  0.04123678  1  0  0.125716  0  0.951046  0  0  0.145822  0  1.009003  0  0  0.148205  0  1.008152  0  0  0.095003  0.144096  0  1.009701  0
H  H29  1  0.17341259  0.88711405  0.54123735  1  0  0.125728  0  0.951045  0  0  0.145835  0  1.008997  0  0  0.148217  0  1.008147  0  0  0.095004  0.144109  0  1.009698  0
H  H30  1  0.67341067  0.88711299  0.95876298  1  0  0.12572  0  0.951052  0  0  0.145826  0  1.009011  0  0  0.148208  0  1.008161  0  0  0.09501  0.1441  0  1.009712  0
H  H31  1  0.82658845  0.11288759  0.45876182  1  0  0.125717  0  0.95106  0  0  0.145823  0  1.009013  0  0  0.148206  0  1.00816  0  0  0.095004  0.144098  0  1.009711  0
H  H32  1  0.42352294  0.97970054  0.09553146  1  0  0.122676  0  0.958584  0  0  0.144085  0  1.017765  0  0  0.146004  0  1.017806  0  0  0.09723  0.142809  0  1.017713  0
H  H33  1  0.07647616  0.02030103  0.59553178  1  0  0.122693  0  0.958559  0  0  0.144094  0  1.017748  0  0  0.146013  0  1.017789  0  0  0.097209  0.142817  0  1.017696  0
H  H34  1  0.57647550  0.02029896  0.90446830  1  0  0.122673  0  0.958552  0  0  0.144078  0  1.017745  0  0  0.145997  0  1.017786  0  0  0.097208  0.142803  0  1.017691  0
H  H35  1  0.92352365  0.97970062  0.40446739  1  0  0.122683  0  0.958581  0  0  0.144094  0  1.017755  0  0  0.146013  0  1.017797  0  0  0.097227  0.142821  0  1.017702  0
H  H36  1  0.54536621  0.11626899  0.04711947  1  0  0.130039  0  0.956925  0  0  0.149725  0  1.016438  0  0  0.151923  0  1.015959  0  0  0.099149  0.148206  0  1.016734  0
H  H37  1  0.95463359  0.88372996  0.54711932  1  0  0.130068  0  0.956896  0  0  0.149759  0  1.016397  0  0  0.151957  0  1.015918  0  0  0.099169  0.14824  0  1.016695  0
H  H38  1  0.45463344  0.88373051  0.95288088  1  0  0.130032  0  0.956922  0  0  0.149725  0  1.016431  0  0  0.151923  0  1.015952  0  0  0.099152  0.148206  0  1.016729  0
H  H39  1  0.04536719  0.11626847  0.45287985  1  0  0.130022  0  0.956951  0  0  0.149704  0  1.01647  0  0  0.151903  0  1.015991  0  0  0.099135  0.148185  0  1.016767  0
H  H40  1  0.00914146  0.65935947  0.17288892  1  0  0.055132  0  0.967107  0  0  0.059578  0  1.045229  0  0  0.062062  0  1.039312  0  0  0.136283  0.057619  0  1.049619  0
H  H41  1  0.49086228  0.34064093  0.67288954  1  0  0.055138  0  0.967174  0  0  0.05958  0  1.045276  0  0  0.062051  0  1.039364  0  0  0.136309  0.057628  0  1.049646  0
H  H42  1  0.99085690  0.34063896  0.82711142  1  0  0.055077  0  0.967166  0  0  0.059534  0  1.045284  0  0  0.062013  0  1.039364  0  0  0.136278  0.057576  0  1.04967  0
H  H43  1  0.50913876  0.65936071  0.32711140  1  0  0.055069  0  0.967243  0  0  0.059533  0  1.045331  0  0  0.061994  0  1.039421  0  0  0.1363  0.057584  0  1.049695  0
H  H44  1  0.16780954  0.83503765  0.13891080  1  0  0.109414  0  0.947556  0  0  0.128472  0  1.011125  0  0  0.129462  0  1.011233  0  0  0.111841  0.12765  0  1.011133  0
H  H45  1  0.33219435  0.16496386  0.63891096  1  0  0.109392  0  0.947555  0  0  0.128417  0  1.011165  0  0  0.12941  0  1.011273  0  0  0.111802  0.127596  0  1.01117  0
H  H46  1  0.83219125  0.16496078  0.86108954  1  0  0.109437  0  0.947548  0  0  0.128506  0  1.011095  0  0  0.129496  0  1.011203  0  0  0.111853  0.127683  0  1.011101  0
H  H47  1  0.66780661  0.83503671  0.36108880  1  0  0.109433  0  0.947558  0  0  0.128477  0  1.011133  0  0  0.12947  0  1.01124  0  0  0.111834  0.127655  0  1.011141  0
H  H48  1  0.12023341  0.01257746  0.16770431  1  0  0.120794  0  0.949547  0  0  0.137954  0  1.012882  0  0  0.139645  0  1.012805  0  0  0.111609  0.136659  0  1.012989  0
H  H49  1  0.37976789  0.98742294  0.66770534  1  0  0.120719  0  0.94955  0  0  0.137915  0  1.012849  0  0  0.139607  0  1.012773  0  0  0.1116  0.136618  0  1.012958  0
H  H50  1  0.87976616  0.98742097  0.83229545  1  0  0.120786  0  0.949524  0  0  0.137948  0  1.01286  0  0  0.139639  0  1.012783  0  0  0.111599  0.136652  0  1.012967  0
H  H51  1  0.62023306  0.01257763  0.33229559  1  0  0.120802  0  0.949541  0  0  0.13796  0  1.012875  0  0  0.139653  0  1.012799  0  0  0.111619  0.136664  0  1.012984  0
H  H52  1  0.06742883  0.94698072  0.07191112  1  0  0.079894  0  0.946121  0  0  0.098591  0  1.01542  0  0  0.098882  0  1.015649  0  0  0.096158  0.098227  0  1.0154  0
H  H53  1  0.43257268  0.05301981  0.57191126  1  0  0.079855  0  0.946019  0  0  0.098548  0  1.015338  0  0  0.09884  0  1.015566  0  0  0.09614  0.098185  0  1.015319  0
H  H54  1  0.93257074  0.05301772  0.92808923  1  0  0.079899  0  0.946136  0  0  0.0986  0  1.015432  0  0  0.09889  0  1.015663  0  0  0.096161  0.098236  0  1.015414  0
H  H55  1  0.56742820  0.94697969  0.42808908  1  0  0.079894  0  0.946128  0  0  0.098591  0  1.015421  0  0  0.098882  0  1.015651  0  0  0.096163  0.098228  0  1.015401  0
H  H56  1  0.68368947  0.89820253  0.19544973  1  0  0.11223  0  0.944075  0  0  0.131989  0  1.005235  0  0  0.133493  0  1.004435  0  0  0.112026  0.13085  0  1.005894  0
H  H57  1  0.81631264  0.10179838  0.69544992  1  0  0.112218  0  0.944062  0  0  0.13197  0  1.005222  0  0  0.133473  0  1.004427  0  0  0.112021  0.130831  0  1.00588  0
H  H58  1  0.31631027  0.10179804  0.80455061  1  0  0.112237  0  0.944074  0  0  0.131996  0  1.005236  0  0  0.1335  0  1.004436  0  0  0.112032  0.130857  0  1.005894  0
H  H59  1  0.18368718  0.89820326  0.30455043  1  0  0.112244  0  0.944044  0  0  0.131993  0  1.005209  0  0  0.133498  0  1.00441  0  0  0.112032  0.130854  0  1.005869  0
H  H60  1  0.76087150  0.99472029  0.11098130  1  0  0.090304  0  0.936116  0  0  0.113437  0  0.998266  0  0  0.113221  0  0.998659  0  0  0.103312  0.113531  0  0.998065  0
H  H61  1  0.73913200  0.00528072  0.61098214  1  0  0.090293  0  0.936164  0  0  0.113426  0  0.998297  0  0  0.11321  0  0.998691  0  0  0.103309  0.113519  0  0.998097  0
H  H62  1  0.23912946  0.00528028  0.88901905  1  0  0.090291  0  0.936121  0  0  0.113426  0  0.998271  0  0  0.113209  0  0.998664  0  0  0.103306  0.11352  0  0.998072  0
H  H63  1  0.26086904  0.99472092  0.38901879  1  0  0.090305  0  0.936127  0  0  0.113431  0  0.998277  0  0  0.113214  0  0.998672  0  0  0.103308  0.113525  0  0.998076  0
H  H64  1  0.83014505  0.04796711  0.20614590  1  0  0.117942  0  0.941424  0  0  0.136396  0  1.005058  0  0  0.137474  0  1.00486  0  0  0.116027  0.135429  0  1.005541  0
H  H65  1  0.66985590  0.95203486  0.70614586  1  0  0.117982  0  0.941415  0  0  0.136413  0  1.005058  0  0  0.137492  0  1.00486  0  0  0.116033  0.135446  0  1.005541  0
H  H66  1  0.16985460  0.95203240  0.79385445  1  0  0.117946  0  0.941412  0  0  0.136398  0  1.005053  0  0  0.137476  0  1.004854  0  0  0.116021  0.135431  0  1.005535  0
H  H67  1  0.33014400  0.04796785  0.29385448  1  0  0.117955  0  0.941414  0  0  0.136403  0  1.005047  0  0  0.137482  0  1.00485  0  0  0.116031  0.135436  0  1.00553  0
C  C68  1  0.90114155  0.36681592  0.10487556  1  0  0.780082  0  3.8095  0  0  0.745649  0  4.102003  0  0  0.779216  0  4.093289  0  0  0.215463  0.722666  0  4.107383  0
C  C69  1  0.59885700  0.63318403  0.60487626  1  0  0.780038  0  3.809393  0  0  0.745591  0  4.10192  0  0  0.779158  0  4.093206  0  0  0.215431  0.722608  0  4.107296  0
C  C70  1  0.09885924  0.63318251  0.89512360  1  0  0.779952  0  3.809509  0  0  0.74552  0  4.10201  0  0  0.779085  0  4.093295  0  0  0.215373  0.722537  0  4.107392  0
C  C71  1  0.40114273  0.36681655  0.39512409  1  0  0.779934  0  3.80942  0  0  0.745479  0  4.101961  0  0  0.779046  0  4.093249  0  0  0.215409  0.722498  0  4.107337  0
C  C72  1  0.00359425  0.32341624  0.03676782  1  0  -0.454455  0  3.624978  0  0  -0.528821  0  3.852272  0  0  -0.536123  0  3.854099  0  0  -0.242081  -0.523656  0  3.850964  0
C  C73  1  0.49640594  0.67658219  0.53676831  1  0  -0.454505  0  3.624869  0  0  -0.528856  0  3.852188  0  0  -0.536158  0  3.854018  0  0  -0.24212  -0.52369  0  3.850884  0
C  C74  1  0.99640532  0.67658219  0.96323194  1  0  -0.454556  0  3.624834  0  0  -0.528905  0  3.852159  0  0  -0.536204  0  3.853983  0  0  -0.242142  -0.523739  0  3.850855  0
C  C75  1  0.50359493  0.32341731  0.46323145  1  0  -0.454494  0  3.624958  0  0  -0.528834  0  3.852278  0  0  -0.536137  0  3.854109  0  0  -0.242117  -0.523671  0  3.850972  0
C  C76  1  0.38702736  0.56473562  0.13373905  1  0  0.794137  0  3.784948  0  0  0.758876  0  4.073246  0  0  0.793588  0  4.063212  0  0  0.219433  0.73519  0  4.07913  0
C  C77  1  0.11297393  0.43526376  0.63373803  1  0  0.794143  0  3.784823  0  0  0.758897  0  4.073092  0  0  0.793608  0  4.063057  0  0  0.219428  0.735209  0  4.078984  0
C  C78  1  0.61297107  0.43526388  0.86626071  1  0  0.794161  0  3.784891  0  0  0.7589  0  4.073177  0  0  0.793613  0  4.063143  0  0  0.21941  0.735213  0  4.079063  0
C  C79  1  0.88702580  0.56473681  0.36626114  1  0  0.794307  0  3.784629  0  0  0.758992  0  4.073005  0  0  0.793701  0  4.062973  0  0  0.219496  0.735296  0  4.078907  0
C  C80  1  0.48092113  0.64477944  0.07001941  1  0  -0.459581  0  3.617541  0  0  -0.532509  0  3.843142  0  0  -0.540173  0  3.844301  0  0  -0.243365  -0.527116  0  3.842251  0
C  C81  1  0.01907672  0.35522109  0.57001906  1  0  -0.459645  0  3.617381  0  0  -0.532592  0  3.842999  0  0  -0.540257  0  3.844157  0  0  -0.243388  -0.527196  0  3.842108  0
C  C82  1  0.51907730  0.35522007  0.92998093  1  0  -0.459622  0  3.617427  0  0  -0.532561  0  3.843035  0  0  -0.540225  0  3.844191  0  0  -0.243343  -0.527163  0  3.842143  0
C  C83  1  0.98092302  0.64477948  0.42998129  1  0  -0.459707  0  3.617352  0  0  -0.532622  0  3.842978  0  0  -0.540286  0  3.844136  0  0  -0.243388  -0.527222  0  3.842088  0
C  C84  1  0.43009074  0.18365928  0.15317716  1  0  0.800723  0  3.799042  0  0  0.769005  0  4.084068  0  0  0.803458  0  4.073776  0  0  0.232414  0.745479  0  4.090364  0
C  C85  1  0.06991068  0.81634221  0.65317781  1  0  0.800608  0  3.799174  0  0  0.768905  0  4.084167  0  0  0.803358  0  4.073873  0  0  0.232359  0.745383  0  4.090459  0
C  C86  1  0.56990892  0.81634022  0.84682259  1  0  0.800594  0  3.799178  0  0  0.768984  0  4.084041  0  0  0.803437  0  4.073749  0  0  0.232388  0.745453  0  4.090345  0
C  C87  1  0.93008914  0.18365943  0.34682136  1  0  0.800864  0  3.798971  0  0  0.769003  0  4.08418  0  0  0.803457  0  4.073887  0  0  0.232421  0.745481  0  4.090471  0
C  C88  1  0.43079929  0.09343530  0.07913291  1  0  -0.452532  0  3.660157  0  0  -0.529471  0  3.888212  0  0  -0.536577  0  3.891456  0  0  -0.242331  -0.524494  0  3.885985  0
C  C89  1  0.06920098  0.90656521  0.57913294  1  0  -0.452609  0  3.660077  0  0  -0.52955  0  3.888124  0  0  -0.536655  0  3.891367  0  0  -0.242357  -0.524574  0  3.885898  0
C  C90  1  0.56920036  0.90656420  0.92086684  1  0  -0.452478  0  3.660157  0  0  -0.529454  0  3.888196  0  0  -0.53656  0  3.891441  0  0  -0.242308  -0.524477  0  3.885971  0
C  C91  1  0.93079876  0.09343536  0.42086623  1  0  -0.452642  0  3.660127  0  0  -0.529524  0  3.888209  0  0  -0.53663  0  3.891454  0  0  -0.242384  -0.524551  0  3.885979  0
C  C92  1  0.89922057  0.71881247  0.18144944  1  0  0.40982  0  3.781985  0  0  0.33657  0  4.071523  0  0  0.365513  0  4.070312  0  0  0.185783  0.317213  0  4.071965  0
C  C93  1  0.60077278  0.28118525  0.68144789  1  0  0.409662  0  3.781782  0  0  0.336494  0  4.071176  0  0  0.365448  0  4.069953  0  0  0.185694  0.317136  0  4.071619  0
C  C94  1  0.10077664  0.28118704  0.81855091  1  0  0.409874  0  3.781876  0  0  0.336603  0  4.071438  0  0  0.365558  0  4.070215  0  0  0.185774  0.317246  0  4.071877  0
C  C95  1  0.39922948  0.71881639  0.31855245  1  0  0.409742  0  3.781893  0  0  0.336533  0  4.071359  0  0  0.365499  0  4.070123  0  0  0.185737  0.317175  0  4.071802  0
C  C96  1  0.07851042  0.91658373  0.13426465  1  0  -0.186772  0  3.672264  0  0  -0.287605  0  3.924539  0  0  -0.285431  0  3.936077  0  0  -0.132521  -0.288801  0  3.916714  0
C  C97  1  0.42148998  0.08341993  0.63426597  1  0  -0.186604  0  3.67213  0  0  -0.287452  0  3.924452  0  0  -0.285272  0  3.935969  0  0  -0.132473  -0.28865  0  3.91663  0
C  C98  1  0.92148923  0.08341577  0.86573511  1  0  -0.186783  0  3.672235  0  0  -0.287631  0  3.924533  0  0  -0.285452  0  3.936064  0  0  -0.132528  -0.288827  0  3.916709  0
C  C99  1  0.57850870  0.91658278  0.36573497  1  0  -0.186782  0  3.672301  0  0  -0.287605  0  3.924594  0  0  -0.285428  0  3.936117  0  0  -0.132527  -0.288802  0  3.916772  0
C  C100  1  0.79162780  0.95509169  0.16970748  1  0  -0.166184  0  3.639052  0  0  -0.26679  0  3.883066  0  0  -0.262769  0  3.892533  0  0  -0.131534  -0.269181  0  3.876813  0
C  C101  1  0.70837435  0.04490925  0.66970773  1  0  -0.166153  0  3.639054  0  0  -0.266726  0  3.883075  0  0  -0.26271  0  3.892545  0  0  -0.131504  -0.269121  0  3.876825  0
C  C102  1  0.20837185  0.04490781  0.83029287  1  0  -0.166176  0  3.639042  0  0  -0.266792  0  3.883062  0  0  -0.262769  0  3.892528  0  0  -0.131526  -0.269185  0  3.876809  0
C  C103  1  0.29162668  0.95509240  0.33029261  1  0  -0.166179  0  3.639031  0  0  -0.26677  0  3.883051  0  0  -0.262754  0  3.892522  0  0  -0.131515  -0.269164  0  3.876801  0
N  N104  1  0.92197460  0.85796863  0.16397599  1  0  -0.086837  0  3.49991  0  0  0.019613  0  3.729318  0  0  -0.000492  0  3.754004  0  0  -0.282006  0.032924  0  3.712296  0
N  N105  1  0.57802895  0.14203446  0.66397686  1  0  -0.086769  0  3.500194  0  0  0.019654  0  3.729573  0  0  -0.000448  0  3.754259  0  0  -0.281928  0.032961  0  3.712555  0
N  N106  1  0.07802505  0.14203088  0.83602377  1  0  -0.086842  0  3.499847  0  0  0.019619  0  3.729261  0  0  -0.00049  0  3.753945  0  0  -0.281999  0.03293  0  3.712239  0
N  N107  1  0.42197209  0.85796718  0.33602349  1  0  -0.086752  0  3.500135  0  0  0.01967  0  3.729505  0  0  -0.000429  0  3.754186  0  0  -0.281972  0.032981  0  3.712487  0
O  O108  1  0.95915013  0.36043213  0.17564031  1  0  -0.826885  0  2.102417  0  0  -0.786085  0  2.362399  0  0  -0.81268  0  2.350511  0  0  -0.439485  -0.766788  0  2.37038  0
O  O109  1  0.54084958  0.63956881  0.67564044  1  0  -0.826908  0  2.10244  0  0  -0.786103  0  2.362421  0  0  -0.812692  0  2.350524  0  0  -0.439511  -0.766809  0  2.370401  0
O  O110  1  0.04084953  0.63956737  0.82435944  1  0  -0.826836  0  2.1024  0  0  -0.786023  0  2.362359  0  0  -0.812625  0  2.350493  0  0  -0.439454  -0.766726  0  2.370338  0
O  O111  1  0.45915015  0.36043177  0.32435932  1  0  -0.826818  0  2.102376  0  0  -0.786006  0  2.362351  0  0  -0.812603  0  2.350469  0  0  -0.439462  -0.766711  0  2.370331  0
O  O112  1  0.75868656  0.40725605  0.09510771  1  0  -0.677779  0  1.945186  0  0  -0.635093  0  2.169224  0  0  -0.660507  0  2.162679  0  0  -0.345892  -0.617254  0  2.173396  0
O  O113  1  0.74131575  0.59274498  0.59510835  1  0  -0.677727  0  1.945046  0  0  -0.635022  0  2.169078  0  0  -0.660437  0  2.162532  0  0  -0.345849  -0.617178  0  2.173248  0
O  O114  1  0.24131439  0.59274452  0.90489146  1  0  -0.6777  0  1.94518  0  0  -0.635027  0  2.16924  0  0  -0.660442  0  2.162695  0  0  -0.345849  -0.61719  0  2.173412  0
O  O115  1  0.25868529  0.40725666  0.40489200  1  0  -0.677689  0  1.94506  0  0  -0.634994  0  2.169111  0  0  -0.660409  0  2.162567  0  0  -0.345856  -0.61715  0  2.17328  0
O  O116  1  0.46273885  0.50188529  0.18874547  1  0  -0.822002  0  2.168249  0  0  -0.77556  0  2.421546  0  0  -0.804442  0  2.413173  0  0  -0.436412  -0.754672  0  2.426725  0
O  O117  1  0.03726136  0.49811722  0.68874565  1  0  -0.821977  0  2.168121  0  0  -0.775555  0  2.421449  0  0  -0.804436  0  2.413077  0  0  -0.43644  -0.754666  0  2.426628  0
O  O118  1  0.53726081  0.49811421  0.81125370  1  0  -0.821999  0  2.168214  0  0  -0.775565  0  2.421524  0  0  -0.804448  0  2.413151  0  0  -0.436417  -0.754679  0  2.426701  0
O  O119  1  0.96273968  0.50188442  0.31125352  1  0  -0.822035  0  2.168065  0  0  -0.77558  0  2.421405  0  0  -0.804463  0  2.413033  0  0  -0.436443  -0.754686  0  2.426589  0
O  O120  1  0.23183464  0.55971691  0.13518166  1  0  -0.698015  0  1.959793  0  0  -0.654857  0  2.19529  0  0  -0.6809  0  2.18671  0  0  -0.360063  -0.636562  0  2.200794  0
O  O121  1  0.26816430  0.44028353  0.63518175  1  0  -0.698026  0  1.959771  0  0  -0.65488  0  2.195274  0  0  -0.680918  0  2.18669  0  0  -0.36007  -0.636596  0  2.20078  0
O  O122  1  0.76816510  0.44028366  0.86481809  1  0  -0.698046  0  1.959787  0  0  -0.654865  0  2.195251  0  0  -0.680907  0  2.186671  0  0  -0.360061  -0.63657  0  2.200756  0
O  O123  1  0.73183552  0.55971811  0.36481800  1  0  -0.698076  0  1.959699  0  0  -0.654904  0  2.195235  0  0  -0.680938  0  2.186648  0  0  -0.360098  -0.636615  0  2.200743  0
O  O124  1  0.56536841  0.20590938  0.18904155  1  0  -0.728895  0  2.006025  0  0  -0.688397  0  2.255265  0  0  -0.714479  0  2.245249  0  0  -0.39936  -0.669737  0  2.261672  0
O  O125  1  0.93463006  0.79409154  0.68904320  1  0  -0.728866  0  2.005992  0  0  -0.688367  0  2.255211  0  0  -0.714447  0  2.245194  0  0  -0.399349  -0.6697  0  2.261619  0
O  O126  1  0.43463125  0.79409012  0.81095762  1  0  -0.728853  0  2.006048  0  0  -0.688384  0  2.255221  0  0  -0.714465  0  2.245205  0  0  -0.399339  -0.669725  0  2.26163  0
O  O127  1  0.06536976  0.20591010  0.31095714  1  0  -0.728943  0  2.005953  0  0  -0.688393  0  2.25524  0  0  -0.714474  0  2.245223  0  0  -0.399347  -0.669726  0  2.261648  0
O  O128  1  0.29432893  0.22849493  0.17523555  1  0  -0.732448  0  2.002864  0  0  -0.692746  0  2.24985  0  0  -0.718546  0  2.239356  0  0  -0.392064  -0.674286  0  2.256487  0
O  O129  1  0.20566871  0.77150546  0.67523615  1  0  -0.732321  0  2.003017  0  0  -0.692627  0  2.250007  0  0  -0.718438  0  2.239535  0  0  -0.391995  -0.674177  0  2.256631  0
O  O130  1  0.70567081  0.77150564  0.82476420  1  0  -0.732393  0  2.002918  0  0  -0.692726  0  2.249851  0  0  -0.718528  0  2.239363  0  0  -0.392058  -0.674261  0  2.256485  0
O  O131  1  0.79432973  0.22849404  0.32476361  1  0  -0.732423  0  2.002949  0  0  -0.692674  0  2.250009  0  0  -0.718479  0  2.239524  0  0  -0.392018  -0.67422  0  2.256635  0
O  O132  1  0.76661398  0.65977153  0.20545483  1  0  -0.609029  0  2.130895  0  0  -0.567726  0  2.390999  0  0  -0.592432  0  2.386122  0  0  -0.357508  -0.550476  0  2.394042  0
O  O133  1  0.73339697  0.34023365  0.70545791  1  0  -0.609023  0  2.130327  0  0  -0.567767  0  2.39041  0  0  -0.592468  0  2.385506  0  0  -0.357521  -0.550505  0  2.393449  0
O  O134  1  0.23338698  0.34022904  0.79454552  1  0  -0.609031  0  2.130819  0  0  -0.567706  0  2.390902  0  0  -0.592416  0  2.38602  0  0  -0.357501  -0.550459  0  2.393946  0
O  O135  1  0.26660537  0.65976906  0.29454361  1  0  -0.609014  0  2.130526  0  0  -0.567741  0  2.390606  0  0  -0.592446  0  2.385706  0  0  -0.357522  -0.550477  0  2.393645  0
