# generated using pymatgen
data_HgHC7N4
_symmetry_space_group_name_H-M   'P 1'
_cell_length_a   5.68060063
_cell_length_b   9.87517225
_cell_length_c   13.53484294
_cell_angle_alpha   91.68932674
_cell_angle_beta   90.00255892
_cell_angle_gamma   89.99676014
_symmetry_Int_Tables_number   1
_chemical_formula_structural   HgHC7N4
_chemical_formula_sum   'Hg4 H4 C28 N16'
_cell_volume   758.93286141
_cell_formula_units_Z   4
loop_
 _symmetry_equiv_pos_site_id
 _symmetry_equiv_pos_as_xyz
  1  'x, y, z'
loop_
 _atom_site_type_symbol
 _atom_site_label
 _atom_site_symmetry_multiplicity
 _atom_site_fract_x
 _atom_site_fract_y
 _atom_site_fract_z
 _atom_site_occupancy
 _atom_site_pbe_bader_spin_density
 _atom_site_pbe_cm5_charge
 _atom_site_pbe_ddec_charge
 _atom_site_pbe_ddec_spin_density
 _atom_site_pbe_ddec_sum_bond_order
 _atom_site_pbe_magmom
Hg  Hg0  1  0.89283839  0.88591181  0.99198990  1  0  0.454103  0.416388  0  2.367988  0
Hg  Hg1  1  0.39282251  0.61408399  0.50799118  1  0  0.45413  0.41629  0  2.368685  0
Hg  Hg2  1  0.10715518  0.11408606  0.00800314  1  0  0.454094  0.416285  0  2.368275  0
Hg  Hg3  1  0.60715873  0.38592199  0.49200135  1  0  0.45415  0.416341  0  2.368627  0
H  H4  1  0.39392411  0.33700959  0.77873639  1  0  0.118782  0.1301  0  0.99457  0
H  H5  1  0.89382420  0.16294988  0.72124376  1  0  0.118869  0.130183  0  0.994497  0
H  H6  1  0.60609761  0.66296779  0.22127455  1  0  0.118851  0.130092  0  0.994396  0
H  H7  1  0.10616232  0.83707335  0.27874703  1  0  0.118943  0.130291  0  0.994428  0
C  C8  1  0.61656325  0.61192991  0.90760618  1  0  0.219574  0.297932  0  4.009357  0
C  C9  1  0.11653812  0.88802239  0.59238755  1  0  0.219404  0.297739  0  4.009949  0
C  C10  1  0.38344087  0.38805668  0.09239689  1  0  0.219671  0.297976  0  4.009749  0
C  C11  1  0.88342904  0.11197739  0.40761440  1  0  0.219443  0.297804  0  4.009833  0
C  C12  1  0.74410861  0.38415636  0.89569623  1  0  0.192565  0.276108  0  4.052824  0
C  C13  1  0.24404109  0.11578415  0.60429211  1  0  0.192515  0.276063  0  4.052862  0
C  C14  1  0.25590607  0.61583210  0.10432093  1  0  0.192621  0.276239  0  4.052603  0
C  C15  1  0.75594367  0.88420971  0.39569712  1  0  0.192581  0.276076  0  4.052526  0
C  C16  1  0.04038680  0.45801415  0.70440922  1  0  0.183164  0.256613  0  4.075935  0
C  C17  1  0.54035528  0.04195750  0.79556711  1  0  0.18319  0.256522  0  4.075234  0
C  C18  1  0.95965605  0.54198977  0.29558621  1  0  0.183219  0.256393  0  4.076027  0
C  C19  1  0.45963124  0.95806458  0.20443473  1  0  0.183234  0.256617  0  4.07544  0
C  C20  1  0.16890746  0.65810604  0.79649139  1  0  0.179245  0.268602  0  4.032955  0
C  C21  1  0.66891171  0.84186955  0.70348973  1  0  0.179131  0.268395  0  4.033067  0
C  C22  1  0.83112659  0.34189072  0.20350974  1  0  0.179136  0.268388  0  4.032796  0
C  C23  1  0.33107305  0.15815251  0.29651432  1  0  0.179325  0.268699  0  4.03351  0
C  C24  1  0.20693716  0.52078833  0.76854962  1  0  -0.021464  -0.084849  0  4.184942  0
C  C25  1  0.70689686  0.97918451  0.73141896  1  0  -0.021528  -0.084571  0  4.184615  0
C  C26  1  0.79311274  0.47919835  0.23144607  1  0  -0.021518  -0.084586  0  4.184653  0
C  C27  1  0.29307909  0.02083964  0.26857924  1  0  -0.021562  -0.08473  0  4.185287  0
C  C28  1  0.39240170  0.44326050  0.80324826  1  0  -0.034869  -0.034547  0  3.922691  0
C  C29  1  0.89233461  0.05670730  0.69671645  1  0  -0.034919  -0.034895  0  3.922645  0
C  C30  1  0.60762003  0.55671697  0.19675530  1  0  -0.03494  -0.034725  0  3.922462  0
C  C31  1  0.10764135  0.94331388  0.30327650  1  0  -0.034977  -0.035075  0  3.922843  0
C  C32  1  0.57700434  0.48158430  0.86732716  1  0  -0.025472  -0.108102  0  4.189773  0
C  C33  1  0.07693423  0.01837238  0.63264426  1  0  -0.025278  -0.107629  0  4.189526  0
C  C34  1  0.42300859  0.51840224  0.13268034  1  0  -0.025343  -0.107831  0  4.189557  0
C  C35  1  0.92303645  0.98163055  0.36734892  1  0  -0.025291  -0.107478  0  4.189419  0
N  N36  1  0.65800742  0.71632082  0.94670288  1  0  -0.316901  -0.298143  0  3.201497  0
N  N37  1  0.15800947  0.78361913  0.55331237  1  0  -0.316758  -0.29802  0  3.202156  0
N  N38  1  0.34201078  0.28366159  0.05331116  1  0  -0.31691  -0.298154  0  3.201887  0
N  N39  1  0.84197881  0.21638064  0.44669106  1  0  -0.31682  -0.298159  0  3.202149  0
N  N40  1  0.88671191  0.30546990  0.91838858  1  0  -0.317024  -0.360467  0  2.984105  0
N  N41  1  0.38664180  0.19447521  0.58162000  1  0  -0.317189  -0.36079  0  2.983767  0
N  N42  1  0.11329926  0.69451367  0.08161366  1  0  -0.317216  -0.360832  0  2.983851  0
N  N43  1  0.61334473  0.80551359  0.41836909  1  0  -0.317227  -0.360804  0  2.983451  0
N  N44  1  0.90424605  0.40185992  0.65283370  1  0  -0.318443  -0.378924  0  2.955402  0
N  N45  1  0.40422190  0.09810634  0.84715210  1  0  -0.318445  -0.378933  0  2.954826  0
N  N46  1  0.09576160  0.59815413  0.34716201  1  0  -0.318479  -0.378742  0  2.955637  0
N  N47  1  0.59576462  0.90191063  0.15285330  1  0  -0.31854  -0.37904  0  2.954891  0
N  N48  1  0.13642856  0.77152195  0.82016304  1  0  -0.313241  -0.380559  0  2.903492  0
N  N49  1  0.63639044  0.72844095  0.67983962  1  0  -0.313158  -0.380463  0  2.903536  0
N  N50  1  0.86358085  0.22845971  0.17982955  1  0  -0.313161  -0.380474  0  2.903249  0
N  N51  1  0.36360840  0.27158004  0.32016884  1  0  -0.313268  -0.380617  0  2.903872  0
