# generated using pymatgen
data_GdP3H33C18(NO5)3
_symmetry_space_group_name_H-M   'P 1'
_cell_length_a   12.33792883
_cell_length_b   12.33788044
_cell_length_c   18.66153820
_cell_angle_alpha   89.99982806
_cell_angle_beta   89.99980849
_cell_angle_gamma   90.00068031
_symmetry_Int_Tables_number   1
_chemical_formula_structural   GdP3H33C18(NO5)3
_chemical_formula_sum   'Gd4 P12 H132 C72 N12 O60'
_cell_volume   2840.73195189
_cell_formula_units_Z   4
loop_
 _symmetry_equiv_pos_site_id
 _symmetry_equiv_pos_as_xyz
  1  'x, y, z'
loop_
 _atom_site_type_symbol
 _atom_site_label
 _atom_site_symmetry_multiplicity
 _atom_site_fract_x
 _atom_site_fract_y
 _atom_site_fract_z
 _atom_site_occupancy
 _atom_site_pbe_bader_charge
 _atom_site_pbe_bader_spin_density
 _atom_site_pbe_cm5_charge
 _atom_site_pbe_ddec_charge
 _atom_site_pbe_ddec_spin_density
 _atom_site_pbe_ddec_sum_bond_order
 _atom_site_pbe_magmom
Gd  Gd0  1  0.93737289  0.02742837  0.38449457  1  2.208525  0  1.565477  2.230228  0  2.189702  0
Gd  Gd1  1  0.06262750  0.97256655  0.88449626  1  2.208722  0  1.565455  2.23024  0  2.189657  0
Gd  Gd2  1  0.97254321  0.93736874  0.63449124  1  2.208901  0  1.565493  2.230454  0  2.18935  0
Gd  Gd3  1  0.02745926  0.06263460  0.13449418  1  2.208871  0  1.565505  2.23037  0  2.189227  0
P  P4  1  0.01627040  0.78340428  0.46144616  1  3.374816  0  0.383271  1.379789  0  5.296056  0
P  P5  1  0.98372798  0.21659191  0.96145213  1  3.374712  0  0.383395  1.380011  0  5.2958  0
P  P6  1  0.21656544  0.01628853  0.71143949  1  3.374707  0  0.38334  1.38005  0  5.295995  0
P  P7  1  0.78343664  0.98371203  0.21143678  1  3.374605  0  0.383269  1.380013  0  5.296109  0
P  P8  1  0.18357086  0.05239837  0.30764855  1  3.37455  0  0.364397  1.346195  0  5.380055  0
P  P9  1  0.81642992  0.94759771  0.80764809  1  3.37468  0  0.364488  1.346344  0  5.379785  0
P  P10  1  0.94761416  0.18355209  0.55764573  1  3.375716  0  0.364527  1.346543  0  5.379798  0
P  P11  1  0.05238789  0.81645241  0.05765247  1  3.375334  0  0.364528  1.346458  0  5.379689  0
P  P12  1  0.93414064  0.26028709  0.26553791  1  3.437999  0  0.377756  1.383051  0  5.316072  0
P  P13  1  0.06585954  0.73970999  0.76554059  1  3.438009  0  0.37774  1.383  0  5.316219  0
P  P14  1  0.73969403  0.93414585  0.51553347  1  3.438357  0  0.377627  1.383047  0  5.316038  0
P  P15  1  0.26030579  0.06585885  0.01553213  1  3.437757  0  0.377891  1.383287  0  5.315946  0
H  H16  1  0.13787144  0.68863765  0.39881891  1  0.663013  0  0.298314  0.373559  0  0.980058  0
H  H17  1  0.86212564  0.31136045  0.89881693  1  0.662987  0  0.2983  0.373578  0  0.980035  0
H  H18  1  0.31132615  0.13789278  0.64880349  1  0.662895  0  0.298344  0.373691  0  0.979873  0
H  H19  1  0.68867381  0.86211050  0.14880445  1  0.662875  0  0.298384  0.373734  0  0.979806  0
H  H20  1  0.33579795  0.12790262  0.26137881  1  0.647624  0  0.299947  0.373152  0  0.978857  0
H  H21  1  0.66420225  0.87209934  0.76137401  1  0.648033  0  0.29988  0.373002  0  0.979079  0
H  H22  1  0.87212439  0.33577320  0.51135634  1  0.647983  0  0.299917  0.373138  0  0.978857  0
H  H23  1  0.12787789  0.66422584  0.01136857  1  0.648095  0  0.299911  0.373143  0  0.978878  0
H  H24  1  0.80022878  0.34754672  0.31320071  1  0.672994  0  0.312273  0.38542  0  0.958955  0
H  H25  1  0.19976792  0.65245339  0.81320112  1  0.673007  0  0.312274  0.385385  0  0.95899  0
H  H26  1  0.65241834  0.80022838  0.56317821  1  0.673225  0  0.312312  0.385536  0  0.958746  0
H  H27  1  0.34758368  0.19976962  0.06317052  1  0.673365  0  0.312185  0.385267  0  0.959141  0
H  H28  1  0.92655532  0.61540778  0.36775530  1  0.535259  0  0.309451  0.25071  0  0.995863  0
H  H29  1  0.07343948  0.38458884  0.86775812  1  0.534965  0  0.30944  0.250719  0  0.995938  0
H  H30  1  0.38459604  0.92655873  0.61775909  1  0.534972  0  0.309447  0.250743  0  0.995937  0
H  H31  1  0.61540408  0.07343901  0.11776124  1  0.534982  0  0.309468  0.250778  0  0.995977  0
H  H32  1  0.39701083  0.95725448  0.27915406  1  0.478743  0  0.328113  0.259955  0  0.900948  0
H  H33  1  0.60299171  0.04274497  0.77915264  1  0.47875  0  0.328102  0.259963  0  0.900863  0
H  H34  1  0.04275455  0.39700404  0.52915690  1  0.478564  0  0.328138  0.260006  0  0.900956  0
H  H35  1  0.95724602  0.60299330  0.02915671  1  0.478466  0  0.328161  0.260087  0  0.900873  0
H  H36  1  0.01207963  0.46095400  0.19612913  1  0.547279  0  0.305401  0.265951  0  0.958476  0
H  H37  1  0.98792090  0.53904258  0.69612856  1  0.547472  0  0.30538  0.265879  0  0.958532  0
H  H38  1  0.53903674  0.01208125  0.44614322  1  0.547723  0  0.305489  0.265999  0  0.958423  0
H  H39  1  0.46096496  0.98792068  0.94613917  1  0.547608  0  0.305506  0.266005  0  0.958471  0
H  H40  1  0.72121093  0.58879970  0.44872476  1  0.10187  0  0.129707  0.108713  0  0.935116  0
H  H41  1  0.27878103  0.41120303  0.94872976  1  0.101871  0  0.129706  0.10871  0  0.935104  0
H  H42  1  0.41115337  0.72122927  0.69875205  1  0.101599  0  0.129806  0.108687  0  0.935211  0
H  H43  1  0.58884229  0.27876892  0.19875118  1  0.101663  0  0.129793  0.108665  0  0.935117  0
H  H44  1  0.69880906  0.49151413  0.30591136  1  0.078636  0  0.097087  0.105138  0  1.013625  0
H  H45  1  0.30118281  0.50849087  0.80591236  1  0.078656  0  0.097033  0.105067  0  1.013701  0
H  H46  1  0.50844140  0.69872226  0.55596149  1  0.076251  0  0.097096  0.10524  0  1.013343  0
H  H47  1  0.49156308  0.30127820  0.05596078  1  0.076339  0  0.097082  0.105216  0  1.013341  0
H  H48  1  0.62133953  0.59693201  0.34699263  1  0.055386  0  0.094417  0.103615  0  1.016952  0
H  H49  1  0.37865051  0.40307361  0.84699742  1  0.055575  0  0.094412  0.103602  0  1.016939  0
H  H50  1  0.40295312  0.62131602  0.59703708  1  0.055474  0  0.094263  0.103513  0  1.017299  0
H  H51  1  0.59705197  0.37868344  0.09703759  1  0.055462  0  0.094222  0.10345  0  1.017398  0
H  H52  1  0.70469068  0.70109243  0.25301304  1  0.059912  0  0.097863  0.107284  0  1.014886  0
H  H53  1  0.29530794  0.29890876  0.75302090  1  0.06004  0  0.097812  0.10714  0  1.015022  0
H  H54  1  0.29888776  0.70469218  0.50301753  1  0.059736  0  0.097904  0.107368  0  1.01498  0
H  H55  1  0.70111456  0.29530933  0.00301476  1  0.05975  0  0.097886  0.107377  0  1.01498  0
H  H56  1  0.82251223  0.61824259  0.25335594  1  0.049909  0  0.092755  0.095358  0  1.006755  0
H  H57  1  0.17748639  0.38175292  0.75335694  1  0.04994  0  0.092747  0.095341  0  1.006681  0
H  H58  1  0.38176947  0.82247870  0.50336295  1  0.049821  0  0.092839  0.095522  0  1.006755  0
H  H59  1  0.61822880  0.17752119  0.00336167  1  0.049794  0  0.092841  0.09552  0  1.006726  0
H  H60  1  0.87792670  0.78019440  0.32248346  1  0.104056  0  0.11877  0.105975  0  1.00536  0
H  H61  1  0.12207401  0.21980323  0.82248865  1  0.104193  0  0.118795  0.106038  0  1.005242  0
H  H62  1  0.21980889  0.87795956  0.57247099  1  0.103857  0  0.118825  0.105976  0  1.005278  0
H  H63  1  0.78018822  0.12203434  0.07246786  1  0.1037  0  0.118812  0.105933  0  1.005322  0
H  H64  1  0.75223853  0.77870950  0.37095228  1  0.139455  0  0.121694  0.125041  0  0.969323  0
H  H65  1  0.24775950  0.22129277  0.87095772  1  0.139847  0  0.121693  0.125117  0  0.969235  0
H  H66  1  0.22125721  0.75227661  0.62094782  1  0.139774  0  0.121525  0.124741  0  0.969346  0
H  H67  1  0.77874694  0.24771626  0.12094391  1  0.13989  0  0.12157  0.124809  0  0.969321  0
H  H68  1  0.91824896  0.62633799  0.49904619  1  0.123385  0  0.122433  0.143439  0  1.022203  0
H  H69  1  0.08174599  0.37365721  0.99904795  1  0.123396  0  0.122432  0.143374  0  1.022214  0
H  H70  1  0.37363353  0.91827737  0.74904197  1  0.123939  0  0.122427  0.143396  0  1.022262  0
H  H71  1  0.62636755  0.08172302  0.24904354  1  0.123958  0  0.122454  0.143475  0  1.02225  0
H  H72  1  0.82798005  0.73899784  0.48848970  1  0.126124  0  0.126453  0.144174  0  1.031874  0
H  H73  1  0.17201901  0.26100147  0.98849416  1  0.126078  0  0.126472  0.144219  0  1.031842  0
H  H74  1  0.26098851  0.82799866  0.73849000  1  0.126191  0  0.126547  0.144384  0  1.031662  0
H  H75  1  0.73901181  0.17200422  0.23849007  1  0.126228  0  0.126526  0.144347  0  1.031689  0
H  H76  1  0.34670925  0.74390055  0.33510737  1  0.126838  0  0.121834  0.105499  0  0.982652  0
H  H77  1  0.65329463  0.25609784  0.83510489  1  0.126822  0  0.121808  0.105484  0  0.982634  0
H  H78  1  0.25610677  0.34671696  0.58511513  1  0.126759  0  0.121861  0.105531  0  0.982661  0
H  H79  1  0.74389189  0.65328661  0.08511370  1  0.126721  0  0.121887  0.105573  0  0.982729  0
H  H80  1  0.54595935  0.75392554  0.24476143  1  0.042731  0  0.101501  0.110863  0  1.00917  0
H  H81  1  0.45404094  0.24607082  0.74476316  1  0.042733  0  0.101493  0.110878  0  1.009187  0
H  H82  1  0.24609354  0.54595068  0.49474886  1  0.042907  0  0.101475  0.110844  0  1.009305  0
H  H83  1  0.75390630  0.45405022  0.99475005  1  0.042918  0  0.101491  0.110861  0  1.009317  0
H  H84  1  0.43996935  0.65731269  0.24416309  1  0.018692  0  0.097931  0.098331  0  0.981323  0
H  H85  1  0.56002770  0.34268773  0.74416385  1  0.018667  0  0.097958  0.098394  0  0.981262  0
H  H86  1  0.34268206  0.43995574  0.49415941  1  0.018745  0  0.097913  0.098371  0  0.981328  0
H  H87  1  0.65731697  0.56004436  0.99416114  1  0.018726  0  0.097938  0.098395  0  0.981339  0
H  H88  1  0.46652629  0.86155315  0.15768874  1  0.032808  0  0.093498  0.08824  0  1.026943  0
H  H89  1  0.53347606  0.13845171  0.65768729  1  0.032673  0  0.09353  0.088289  0  1.026945  0
H  H90  1  0.13844637  0.46651033  0.40769568  1  0.032464  0  0.0935  0.088244  0  1.026948  0
H  H91  1  0.86155309  0.53348853  0.90769540  1  0.032476  0  0.093518  0.088251  0  1.026932  0
H  H92  1  0.38655844  0.74683934  0.13509916  1  0.030012  0  0.098362  0.097968  0  0.993708  0
H  H93  1  0.61344321  0.25316562  0.63509945  1  0.029973  0  0.098427  0.098086  0  0.993692  0
H  H94  1  0.25315240  0.38654676  0.38509835  1  0.030091  0  0.098368  0.098046  0  0.993728  0
H  H95  1  0.74684637  0.61345707  0.88509977  1  0.030097  0  0.098347  0.098022  0  0.993783  0
H  H96  1  0.28306881  0.93305539  0.17682020  1  0.10715  0  0.121372  0.113419  0  0.992775  0
H  H97  1  0.71693263  0.06694696  0.67681741  1  0.107161  0  0.121371  0.113466  0  0.992767  0
H  H98  1  0.06697619  0.28303022  0.42682995  1  0.107297  0  0.121356  0.113423  0  0.992641  0
H  H99  1  0.93302561  0.71696775  0.92683075  1  0.107306  0  0.121385  0.113444  0  0.992721  0
H  H100  1  0.23817389  0.80757481  0.21264754  1  0.103965  0  0.121825  0.117919  0  0.955329  0
H  H101  1  0.76182737  0.19242737  0.71264655  1  0.103935  0  0.121814  0.117903  0  0.955349  0
H  H102  1  0.19245880  0.23816337  0.46266774  1  0.10358  0  0.121893  0.117949  0  0.955409  0
H  H103  1  0.80754119  0.76183768  0.96266873  1  0.103569  0  0.121894  0.117963  0  0.955382  0
H  H104  1  0.28642300  0.93536652  0.38295433  1  0.104045  0  0.133716  0.163401  0  0.967751  0
H  H105  1  0.71357902  0.06462922  0.88295155  1  0.103922  0  0.13372  0.163379  0  0.967789  0
H  H106  1  0.06462764  0.28642011  0.63295604  1  0.104125  0  0.133708  0.163379  0  0.967818  0
H  H107  1  0.93537240  0.71357838  0.13295675  1  0.104099  0  0.133712  0.1634  0  0.967796  0
H  H108  1  0.19187278  0.85988229  0.32986778  1  0.1264  0  0.132535  0.163923  0  0.990454  0
H  H109  1  0.80812708  0.14011531  0.82986679  1  0.126432  0  0.132526  0.163951  0  0.990449  0
H  H110  1  0.14011800  0.19186635  0.57988058  1  0.126431  0  0.132537  0.163923  0  0.990513  0
H  H111  1  0.85988636  0.80813401  0.07988127  1  0.126457  0  0.13257  0.163949  0  0.990535  0
H  H112  1  0.22710580  0.46076221  0.27262634  1  0.069388  0  0.12274  0.091215  0  0.953447  0
H  H113  1  0.77289596  0.53923484  0.77262999  1  0.069331  0  0.12271  0.091201  0  0.953428  0
H  H114  1  0.53923883  0.22712368  0.52262759  1  0.069159  0  0.122793  0.091325  0  0.953329  0
H  H115  1  0.46076015  0.77287936  0.02262816  1  0.069194  0  0.122795  0.091299  0  0.953369  0
H  H116  1  0.15043773  0.61170124  0.15257775  1  0.081812  0  0.098128  0.109836  0  1.005898  0
H  H117  1  0.84955492  0.38829635  0.65258047  1  0.081345  0  0.098135  0.109903  0  1.005822  0
H  H118  1  0.38829114  0.15045754  0.40258467  1  0.084051  0  0.09813  0.109943  0  1.005965  0
H  H119  1  0.61170916  0.84954053  0.90258378  1  0.084031  0  0.098117  0.109956  0  1.00595  0
H  H120  1  0.28499496  0.59080859  0.18296312  1  0.053222  0  0.099826  0.102896  0  0.998848  0
H  H121  1  0.71500483  0.40919373  0.68296501  1  0.053224  0  0.099847  0.102908  0  0.998889  0
H  H122  1  0.40918111  0.28501150  0.43297215  1  0.052844  0  0.099834  0.102874  0  0.998912  0
H  H123  1  0.59081985  0.71498806  0.93297371  1  0.052822  0  0.099839  0.102904  0  0.998951  0
H  H124  1  0.29626017  0.41876871  0.12280103  1  0.07159  0  0.095161  0.102217  0  0.994623  0
H  H125  1  0.70373993  0.58123145  0.62280047  1  0.071591  0  0.095159  0.102192  0  0.99464  0
H  H126  1  0.58124343  0.29628202  0.37283918  1  0.071231  0  0.095083  0.102329  0  0.994753  0
H  H127  1  0.41875702  0.70371538  0.87283954  1  0.071198  0  0.095085  0.10234  0  0.99467  0
H  H128  1  0.18855211  0.47338292  0.07041313  1  0.089988  0  0.09135  0.093408  0  1.042133  0
H  H129  1  0.81144906  0.52661667  0.57041244  1  0.089898  0  0.091358  0.093385  0  1.042108  0
H  H130  1  0.52661868  0.18862151  0.32041280  1  0.090202  0  0.091487  0.093603  0  1.041965  0
H  H131  1  0.47338365  0.81137775  0.82041175  1  0.090196  0  0.0915  0.093632  0  1.041936  0
H  H132  1  0.07453203  0.33651097  0.12158495  1  0.102031  0  0.120085  0.101698  0  1.003104  0
H  H133  1  0.92547050  0.66348839  0.62158534  1  0.102039  0  0.120106  0.10169  0  1.003086  0
H  H134  1  0.66340988  0.07450293  0.37156663  1  0.100894  0  0.12013  0.101643  0  1.002834  0
H  H135  1  0.33659301  0.92549610  0.87156459  1  0.100909  0  0.120171  0.101695  0  1.002783  0
H  H136  1  0.18415377  0.29676074  0.17884703  1  0.109614  0  0.115723  0.096856  0  1.002637  0
H  H137  1  0.81584442  0.70323755  0.67884866  1  0.10973  0  0.115717  0.096877  0  1.002602  0
H  H138  1  0.70325581  0.18411262  0.42881417  1  0.110048  0  0.115698  0.096785  0  1.00262  0
H  H139  1  0.29674355  0.81588858  0.92881458  1  0.110055  0  0.115692  0.096778  0  1.002661  0
H  H140  1  0.03085762  0.40005114  0.32566940  1  0.117586  0  0.123413  0.139722  0  1.031163  0
H  H141  1  0.96915036  0.59995053  0.82566821  1  0.117673  0  0.123444  0.139786  0  1.031141  0
H  H142  1  0.59996977  0.03087304  0.57566943  1  0.117718  0  0.123475  0.139804  0  1.031079  0
H  H143  1  0.40003381  0.96913382  0.07566706  1  0.117693  0  0.123479  0.139793  0  1.031117  0
H  H144  1  0.12018489  0.29672200  0.29266462  1  0.087137  0  0.126749  0.14512  0  0.995922  0
H  H145  1  0.87981921  0.70327576  0.79266450  1  0.087237  0  0.126764  0.14519  0  0.995929  0
H  H146  1  0.70330377  0.12019215  0.54264944  1  0.086989  0  0.126701  0.145158  0  0.995824  0
H  H147  1  0.29669916  0.87981081  0.04265016  1  0.087048  0  0.126719  0.145204  0  0.995828  0
C  C148  1  0.77066733  0.56244306  0.40273013  1  0.187682  0  0.016976  -0.023856  0  3.659085  0
C  C149  1  0.22932325  0.43755907  0.90273519  1  0.187703  0  0.01698  -0.024037  0  3.659103  0
C  C150  1  0.43752044  0.77065213  0.65274666  1  0.187986  0  0.016783  -0.023919  0  3.658854  0
C  C151  1  0.56248274  0.22934628  0.15274487  1  0.187889  0  0.016773  -0.023896  0  3.658853  0
C  C152  1  0.70334020  0.56972689  0.33321181  1  -0.028709  0  -0.165893  -0.196186  0  3.882772  0
C  C153  1  0.29665072  0.43027718  0.83321405  1  -0.028902  0  -0.165865  -0.196106  0  3.882701  0
C  C154  1  0.43021348  0.70329626  0.58324335  1  -0.025492  0  -0.165712  -0.196093  0  3.882529  0
C  C155  1  0.56979086  0.29670326  0.08324355  1  -0.025485  0  -0.165665  -0.195993  0  3.882571  0
C  C156  1  0.76020856  0.65564565  0.28733978  1  -0.012506  0  -0.163861  -0.162978  0  3.911278  0
C  C157  1  0.23978665  0.34435538  0.78734553  1  -0.012462  0  -0.163774  -0.162737  0  3.911357  0
C  C158  1  0.34434053  0.76019623  0.53735060  1  -0.012335  0  -0.16395  -0.163367  0  3.911633  0
C  C159  1  0.65566162  0.23980269  0.03734859  1  -0.012391  0  -0.163947  -0.163392  0  3.911631  0
C  C160  1  0.81219813  0.72927842  0.34241924  1  0.152584  0  -0.06199  -0.066646  0  3.736931  0
C  C161  1  0.18780004  0.27072156  0.84242419  1  0.152067  0  -0.06207  -0.066828  0  3.736694  0
C  C162  1  0.27070921  0.81222162  0.59241523  1  0.152219  0  -0.061852  -0.066196  0  3.736714  0
C  C163  1  0.72929265  0.18777381  0.09241208  1  0.15221  0  -0.061886  -0.066292  0  3.736811  0
C  C164  1  0.89624414  0.69508800  0.46468134  1  -0.284062  0  -0.070629  -0.398066  0  3.786427  0
C  C165  1  0.10375179  0.30490736  0.96468480  1  -0.283836  0  -0.0707  -0.398055  0  3.786295  0
C  C166  1  0.30488532  0.89627002  0.71467727  1  -0.284732  0  -0.070779  -0.398233  0  3.78633  0
C  C167  1  0.69511512  0.10373215  0.21467811  1  -0.284707  0  -0.070762  -0.398318  0  3.786349  0
C  C168  1  0.81439923  0.44917260  0.42273605  1  1.581782  0  0.217279  0.572243  0  4.164269  0
C  C169  1  0.18559205  0.55083106  0.92274312  1  1.581641  0  0.217435  0.572553  0  4.164763  0
C  C170  1  0.55079898  0.81437987  0.67273466  1  1.580916  0  0.217369  0.572653  0  4.164783  0
C  C171  1  0.44920734  0.18561357  0.17272838  1  1.580936  0  0.21738  0.572691  0  4.165003  0
C  C172  1  0.40653896  0.79809422  0.31044530  1  0.142899  0  0.004813  -0.046746  0  3.70398  0
C  C173  1  0.59346261  0.20190427  0.81044520  1  0.142739  0  0.004844  -0.046795  0  3.703998  0
C  C174  1  0.20190766  0.40653896  0.56044942  1  0.143076  0  0.004814  -0.046836  0  3.7041  0
C  C175  1  0.79809194  0.59346229  0.06045067  1  0.143104  0  0.004805  -0.046731  0  3.704151  0
C  C176  1  0.45777026  0.74437151  0.24401080  1  0.041051  0  -0.154773  -0.175559  0  3.856639  0
C  C177  1  0.54223003  0.25562729  0.74401124  1  0.041301  0  -0.154847  -0.175711  0  3.856766  0
C  C178  1  0.25562703  0.45776136  0.49400892  1  0.041436  0  -0.154761  -0.175645  0  3.857045  0
C  C179  1  0.74437200  0.54223955  0.99401048  1  0.041431  0  -0.154849  -0.175786  0  3.857129  0
C  C180  1  0.40814008  0.80249075  0.17862658  1  -0.008504  0  -0.161768  -0.173841  0  3.921367  0
C  C181  1  0.59186217  0.19751240  0.67862542  1  -0.008399  0  -0.161833  -0.173969  0  3.921553  0
C  C182  1  0.19750856  0.40812298  0.42862857  1  -0.008575  0  -0.161734  -0.173825  0  3.921733  0
C  C183  1  0.80248999  0.59187579  0.92862884  1  -0.008539  0  -0.161691  -0.173762  0  3.921673  0
C  C184  1  0.30849235  0.86119223  0.20688100  1  0.196623  0  -0.056528  -0.062333  0  3.742513  0
C  C185  1  0.69150813  0.13880916  0.70687920  1  0.196583  0  -0.05649  -0.062359  0  3.742453  0
C  C186  1  0.13883030  0.30847417  0.45688953  1  0.195484  0  -0.056487  -0.062451  0  3.742816  0
C  C187  1  0.86117054  0.69152691  0.95688947  1  0.195499  0  -0.056537  -0.062463  0  3.742792  0
C  C188  1  0.25198699  0.92544820  0.32915816  1  -0.231004  0  -0.062913  -0.396717  0  3.797478  0
C  C189  1  0.74801530  0.07454778  0.82915529  1  -0.230911  0  -0.062958  -0.396833  0  3.797601  0
C  C190  1  0.07455225  0.25198082  0.57916146  1  -0.231222  0  -0.062973  -0.396856  0  3.797693  0
C  C191  1  0.92544887  0.74801953  0.07916213  1  -0.231218  0  -0.063043  -0.396911  0  3.797812  0
C  C192  1  0.48861359  0.83510337  0.36767304  1  1.643559  0  0.194383  0.555673  0  4.281675  0
C  C193  1  0.51138932  0.16489811  0.86767158  1  1.643498  0  0.194471  0.555751  0  4.281631  0
C  C194  1  0.16488963  0.48861430  0.61767778  1  1.64376  0  0.194488  0.555792  0  4.28157  0
C  C195  1  0.83510644  0.51138993  0.11768019  1  1.643665  0  0.19457  0.555982  0  4.281523  0
C  C196  1  0.16270960  0.50557023  0.24443844  1  0.213797  0  0.011347  -0.030607  0  3.764651  0
C  C197  1  0.83728907  0.49442694  0.74443936  1  0.213759  0  0.011469  -0.030408  0  3.764519  0
C  C198  1  0.49442468  0.16272993  0.49444299  1  0.213999  0  0.011356  -0.030631  0  3.764617  0
C  C199  1  0.50557516  0.83727179  0.99444182  1  0.214029  0  0.011329  -0.030512  0  3.764554  0
C  C200  1  0.20657559  0.55129893  0.17441196  1  -0.043563  0  -0.15766  -0.180573  0  3.883938  0
C  C201  1  0.79342262  0.44870019  0.67441522  1  -0.042993  0  -0.157737  -0.180771  0  3.884245  0
C  C202  1  0.44869135  0.20659472  0.42442090  1  -0.045476  0  -0.157707  -0.180686  0  3.884412  0
C  C203  1  0.55130803  0.79340326  0.92441972  1  -0.04548  0  -0.157707  -0.180789  0  3.884483  0
C  C204  1  0.21372381  0.45166365  0.12480575  1  -0.076985  0  -0.163068  -0.160189  0  3.84818  0
C  C205  1  0.78627465  0.54833082  0.62480668  1  -0.076938  0  -0.163073  -0.160115  0  3.848166  0
C  C206  1  0.54832736  0.21375387  0.37481555  1  -0.077107  0  -0.163183  -0.16068  0  3.848415  0
C  C207  1  0.45167308  0.78624515  0.87481567  1  -0.077067  0  -0.16318  -0.160664  0  3.848389  0
C  C208  1  0.13794470  0.36570428  0.15771317  1  0.165081  0  -0.056834  -0.067932  0  3.716435  0
C  C209  1  0.86205441  0.63429491  0.65771323  1  0.164938  0  -0.056843  -0.067943  0  3.71621  0
C  C210  1  0.63427561  0.13793901  0.40769867  1  0.166193  0  -0.056851  -0.067684  0  3.71582  0
C  C211  1  0.36572547  0.86206066  0.90769884  1  0.166203  0  -0.056888  -0.067782  0  3.715958  0
C  C212  1  0.05030964  0.34848010  0.27972091  1  -0.299142  0  -0.068013  -0.396432  0  3.807839  0
C  C213  1  0.94969290  0.65151691  0.77971806  1  -0.299293  0  -0.068095  -0.39669  0  3.808255  0
C  C214  1  0.65152809  0.05032573  0.52971548  1  -0.29964  0  -0.068145  -0.396695  0  3.807863  0
C  C215  1  0.34847491  0.94967890  0.02971273  1  -0.299515  0  -0.068186  -0.396789  0  3.807906  0
C  C216  1  0.11321784  0.58657725  0.29704608  1  1.644575  0  0.213826  0.56545  0  4.228277  0
C  C217  1  0.88678461  0.41342374  0.79704598  1  1.644715  0  0.213778  0.565333  0  4.228375  0
C  C218  1  0.41342605  0.11324352  0.54705723  1  1.643282  0  0.213794  0.565595  0  4.228332  0
C  C219  1  0.58657523  0.88675698  0.04705622  1  1.64318  0  0.213766  0.56543  0  4.228488  0
N  N220  1  0.85885689  0.64879798  0.39525629  1  -0.997891  0  -0.337928  0.0166  0  3.526197  0
N  N221  1  0.14113696  0.35120176  0.89526117  1  -0.997867  0  -0.337861  0.016667  0  3.525885  0
N  N222  1  0.35118721  0.85886694  0.64525800  1  -0.997919  0  -0.337995  0.016419  0  3.525981  0
N  N223  1  0.64881520  0.14113149  0.14525727  1  -0.99794  0  -0.338037  0.016514  0  3.525838  0
N  N224  1  0.34230921  0.89335581  0.28105488  1  -1.003535  0  -0.34264  0.030382  0  3.590404  0
N  N225  1  0.65769251  0.10664282  0.78105429  1  -1.003565  0  -0.342617  0.030547  0  3.590249  0
N  N226  1  0.10665392  0.34230215  0.53105920  1  -1.002066  0  -0.342776  0.030538  0  3.590624  0
N  N227  1  0.89334826  0.65769843  0.03106011  1  -1.001953  0  -0.342739  0.030383  0  3.590588  0
N  N228  1  0.08207326  0.42141840  0.21975362  1  -0.993916  0  -0.330509  0.01877  0  3.522667  0
N  N229  1  0.91792716  0.57857807  0.71975366  1  -0.994118  0  -0.330511  0.018861  0  3.522684  0
N  N230  1  0.57856967  0.08208697  0.46975638  1  -0.994405  0  -0.330427  0.01895  0  3.522351  0
N  N231  1  0.42143273  0.91791485  0.96975362  1  -0.994383  0  -0.330463  0.018898  0  3.52236  0
O  O232  1  0.01103026  0.86002857  0.39740099  1  -1.463506  0  -0.473152  -0.883948  0  2.27012  0
O  O233  1  0.98896358  0.13996386  0.89740389  1  -1.463452  0  -0.473247  -0.884046  0  2.269895  0
O  O234  1  0.13994331  0.01103935  0.64739448  1  -1.463448  0  -0.473188  -0.884117  0  2.270075  0
O  O235  1  0.86005828  0.98896070  0.14739749  1  -1.463496  0  -0.47312  -0.884086  0  2.270313  0
O  O236  1  0.02070158  0.83679580  0.53470641  1  -1.473839  0  -0.449976  -0.877274  0  2.242599  0
O  O237  1  0.97929572  0.16321205  0.03471079  1  -1.473974  0  -0.449973  -0.877336  0  2.242696  0
O  O238  1  0.16317139  0.02070858  0.78469717  1  -1.474094  0  -0.449882  -0.877137  0  2.24251  0
O  O239  1  0.83682464  0.97929084  0.28470025  1  -1.473961  0  -0.44986  -0.877165  0  2.242501  0
O  O240  1  0.11552324  0.70426082  0.45185957  1  -1.440621  0  -0.380938  -0.656534  0  2.227839  0
O  O241  1  0.88447357  0.29573541  0.95185917  1  -1.440672  0  -0.380938  -0.656633  0  2.227758  0
O  O242  1  0.29568225  0.11556053  0.70184899  1  -1.440569  0  -0.381066  -0.656758  0  2.227428  0
O  O243  1  0.70431825  0.88443927  0.20184987  1  -1.440518  0  -0.381077  -0.656752  0  2.227448  0
O  O244  1  0.76872340  0.36824844  0.39469240  1  -1.194308  0  -0.314451  -0.551078  0  2.226062  0
O  O245  1  0.23126559  0.63175129  0.89469546  1  -1.194168  0  -0.314487  -0.551164  0  2.226411  0
O  O246  1  0.63171188  0.76872266  0.64467530  1  -1.194298  0  -0.314265  -0.551127  0  2.226607  0
O  O247  1  0.36828973  0.23125876  0.14466214  1  -1.194301  0  -0.31419  -0.551119  0  2.226709  0
O  O248  1  0.88893914  0.44341830  0.47043890  1  -1.179111  0  -0.325957  -0.565623  0  2.191553  0
O  O249  1  0.11105596  0.55658352  0.97044934  1  -1.179024  0  -0.326045  -0.565761  0  2.191757  0
O  O250  1  0.55656445  0.88890151  0.72045251  1  -1.178604  0  -0.32622  -0.566018  0  2.191508  0
O  O251  1  0.44344325  0.11110306  0.22045390  1  -1.17859  0  -0.326252  -0.566056  0  2.19156  0
O  O252  1  0.11886305  0.07616448  0.37464469  1  -1.460178  0  -0.4509  -0.835985  0  2.231207  0
O  O253  1  0.88113820  0.92382886  0.87463662  1  -1.460195  0  -0.450963  -0.836102  0  2.231446  0
O  O254  1  0.92381463  0.11886322  0.62464298  1  -1.460209  0  -0.451024  -0.836178  0  2.231203  0
O  O255  1  0.07618302  0.88114017  0.12464471  1  -1.460055  0  -0.450993  -0.836091  0  2.231424  0
O  O256  1  0.11618121  0.04038634  0.23982251  1  -1.474536  0  -0.466456  -0.900335  0  2.304118  0
O  O257  1  0.88381748  0.95961734  0.73981383  1  -1.474542  0  -0.466445  -0.900339  0  2.303912  0
O  O258  1  0.95964917  0.11614528  0.48982501  1  -1.474978  0  -0.466458  -0.90041  0  2.304071  0
O  O259  1  0.04036122  0.88385402  0.98982477  1  -1.474902  0  -0.466508  -0.900416  0  2.30396  0
O  O260  1  0.27448376  0.14149527  0.29860517  1  -1.419733  0  -0.380836  -0.658501  0  2.252595  0
O  O261  1  0.72551950  0.85850085  0.79859811  1  -1.420194  0  -0.380803  -0.658418  0  2.252618  0
O  O262  1  0.85851792  0.27444970  0.54857146  1  -1.420743  0  -0.38079  -0.658634  0  2.252473  0
O  O263  1  0.14148579  0.72555404  0.04857872  1  -1.420694  0  -0.380811  -0.65866  0  2.252464  0
O  O264  1  0.54513473  0.76099853  0.39288426  1  -1.17214  0  -0.327596  -0.53051  0  2.134357  0
O  O265  1  0.45487129  0.23900526  0.89288386  1  -1.172084  0  -0.327636  -0.530557  0  2.134382  0
O  O266  1  0.23898500  0.54513411  0.64290386  1  -1.172325  0  -0.32768  -0.530596  0  2.13434  0
O  O267  1  0.76100770  0.45487487  0.14290708  1  -1.172485  0  -0.327736  -0.530737  0  2.134373  0
O  O268  1  0.48849988  0.93727485  0.38187059  1  -1.193505  0  -0.346709  -0.591067  0  2.161902  0
O  O269  1  0.51150134  0.06272818  0.88187041  1  -1.193453  0  -0.346766  -0.591092  0  2.161859  0
O  O270  1  0.06271442  0.48849451  0.63186161  1  -1.193718  0  -0.346612  -0.59095  0  2.16202  0
O  O271  1  0.93728157  0.51150479  0.13186272  1  -1.193492  0  -0.346647  -0.591059  0  2.162003  0
O  O272  1  0.92865859  0.19064772  0.33225918  1  -1.468658  0  -0.485719  -0.902439  0  2.339186  0
O  O273  1  0.07134369  0.80934339  0.83225474  1  -1.468936  0  -0.48556  -0.902325  0  2.339544  0
O  O274  1  0.80932870  0.92865408  0.58224869  1  -1.468653  0  -0.485513  -0.902324  0  2.339458  0
O  O275  1  0.19067322  0.07135356  0.08224053  1  -1.46856  0  -0.485558  -0.902285  0  2.339542  0
O  O276  1  0.94919813  0.20478672  0.19390184  1  -1.470556  0  -0.457175  -0.874161  0  2.299422  0
O  O277  1  0.05080242  0.79521879  0.69389640  1  -1.470518  0  -0.457285  -0.874302  0  2.299036  0
O  O278  1  0.79520443  0.94920484  0.44389353  1  -1.470563  0  -0.457205  -0.874298  0  2.29933  0
O  O279  1  0.20479566  0.05080278  0.94388547  1  -1.470544  0  -0.457341  -0.874425  0  2.298945  0
O  O280  1  0.82881222  0.33261251  0.26303549  1  -1.427834  0  -0.372384  -0.63559  0  2.262337  0
O  O281  1  0.17118960  0.66739350  0.76303378  1  -1.427746  0  -0.372353  -0.635503  0  2.262467  0
O  O282  1  0.66735631  0.82883155  0.51301885  1  -1.427914  0  -0.372466  -0.635744  0  2.262099  0
O  O283  1  0.33264839  0.17116911  0.01301072  1  -1.427747  0  -0.372427  -0.635584  0  2.262374  0
O  O284  1  0.17950075  0.65136423  0.32697649  1  -1.201091  0  -0.320558  -0.553658  0  2.197126  0
O  O285  1  0.82050155  0.34863662  0.82697613  1  -1.201132  0  -0.320535  -0.553613  0  2.19713  0
O  O286  1  0.34862862  0.17952106  0.57698028  1  -1.20069  0  -0.320548  -0.553702  0  2.197466  0
O  O287  1  0.65137089  0.82047930  0.07697926  1  -1.200569  0  -0.320585  -0.553716  0  2.1975  0
O  O288  1  0.01250962  0.57968241  0.30775486  1  -1.204742  0  -0.312213  -0.533106  0  2.233138  0
O  O289  1  0.98749278  0.42031691  0.80775613  1  -1.204809  0  -0.312172  -0.533051  0  2.233192  0
O  O290  1  0.42033339  0.01254066  0.55778473  1  -1.203828  0  -0.312082  -0.533141  0  2.233009  0
O  O291  1  0.57966784  0.98745979  0.05778408  1  -1.203855  0  -0.31202  -0.533013  0  2.233014  0
