# generated using pymatgen
data_Cu2H15C17N5O7
_symmetry_space_group_name_H-M   'P 1'
_cell_length_a   9.88725096
_cell_length_b   12.53723524
_cell_length_c   18.31983693
_cell_angle_alpha   105.05259856
_cell_angle_beta   89.99984713
_cell_angle_gamma   90.00006133
_symmetry_Int_Tables_number   1
_chemical_formula_structural   Cu2H15C17N5O7
_chemical_formula_sum   'Cu8 H60 C68 N20 O28'
_cell_volume   2192.98514097
_cell_formula_units_Z   4
loop_
 _symmetry_equiv_pos_site_id
 _symmetry_equiv_pos_as_xyz
  1  'x, y, z'
loop_
 _atom_site_type_symbol
 _atom_site_label
 _atom_site_symmetry_multiplicity
 _atom_site_fract_x
 _atom_site_fract_y
 _atom_site_fract_z
 _atom_site_occupancy
 _atom_site_pbe_bader_charge
 _atom_site_pbe_bader_spin_density
 _atom_site_pbe_cm5_charge
 _atom_site_pbe_ddec_charge
 _atom_site_pbe_ddec_spin_density
 _atom_site_pbe_ddec_sum_bond_order
 _atom_site_pbe_magmom
Cu  Cu0  1  0.66465032  0.98642868  0.49944910  1  1.058155  -0.476119  0.709796  0.803425  -0.605251  2.286073  -0.476
Cu  Cu1  1  0.16465144  0.01357129  0.00055234  1  1.058222  -0.476136  0.709799  0.803419  -0.60527  2.286038  -0.476
Cu  Cu2  1  0.33534983  0.01357053  0.50055029  1  1.058169  -0.476123  0.709758  0.803303  -0.605254  2.286207  -0.476
Cu  Cu3  1  0.83534872  0.98642957  0.99944899  1  1.058116  -0.476117  0.709788  0.803391  -0.605246  2.286112  -0.476
Cu  Cu4  1  0.44535178  0.75175262  0.42312613  1  1.112733  0.481698  0.724394  0.903463  0.610142  2.298204  0.48
Cu  Cu5  1  0.94534971  0.24824661  0.07687422  1  1.11264  0.481688  0.724377  0.903449  0.610131  2.298205  0.48
Cu  Cu6  1  0.55464938  0.24824824  0.57687519  1  1.112776  0.481702  0.724364  0.903441  0.610148  2.298192  0.48
Cu  Cu7  1  0.05464943  0.75175260  0.92312626  1  1.112788  0.481706  0.724346  0.903394  0.610151  2.298192  0.48
H  H8  1  0.47294813  0.91957334  0.38415166  1  0.634347  0.000488  0.270934  0.364473  0.000366  0.989062  0.0
H  H9  1  0.97294868  0.08042672  0.11584880  1  0.634341  0.000488  0.27096  0.364522  0.000366  0.989008  0.0
H  H10  1  0.52705000  0.08042587  0.61584882  1  0.634254  0.000487  0.270915  0.364441  0.000365  0.98909  0.0
H  H11  1  0.02705148  0.91957496  0.88415321  1  0.63433  0.000488  0.270934  0.364466  0.000365  0.989063  0.0
H  H12  1  0.84820287  0.21227165  0.28031078  1  0.101265  -2.5e-05  0.11679  0.105092  -1.9e-05  0.999485  0.0
H  H13  1  0.34820296  0.78772589  0.21969105  1  0.101262  -2.5e-05  0.116789  0.105105  -1.9e-05  0.999513  0.0
H  H14  1  0.15179728  0.78772755  0.71969079  1  0.101244  -2.5e-05  0.116789  0.105091  -1.9e-05  0.999542  0.0
H  H15  1  0.65179619  0.21227249  0.78030983  1  0.101214  -2.5e-05  0.11679  0.105093  -1.9e-05  0.999511  0.0
H  H16  1  0.73526958  0.32614958  0.30076141  1  0.080392  -0.000296  0.129619  0.119968  -0.00016  0.942191  0.0
H  H17  1  0.23527063  0.67384959  0.19923760  1  0.080453  -0.000296  0.129609  0.119983  -0.00016  0.942163  0.0
H  H18  1  0.26472956  0.67385046  0.69923976  1  0.080385  -0.000296  0.129606  0.119975  -0.00016  0.942189  0.0
H  H19  1  0.76472852  0.32614797  0.80076095  1  0.080489  -0.000296  0.129617  0.119975  -0.00016  0.942161  0.0
H  H20  1  0.72509711  0.18161005  0.17050921  1  0.099608  -5e-05  0.104854  0.103316  -0.000124  1.02427  0.0
H  H21  1  0.22509366  0.81838912  0.32949090  1  0.099649  -5e-05  0.104872  0.103328  -0.000124  1.024262  0.0
H  H22  1  0.27490406  0.81839081  0.82949157  1  0.099606  -5e-05  0.104844  0.103306  -0.000124  1.024268  0.0
H  H23  1  0.77490244  0.18161009  0.67050849  1  0.099589  -5e-05  0.104858  0.103345  -0.000124  1.024232  0.0
H  H24  1  0.64265339  0.09217662  0.21660633  1  0.047684  -9e-06  0.098486  0.096705  7e-06  0.980871  0.0
H  H25  1  0.14265131  0.90782004  0.28339237  1  0.047609  -9e-06  0.098484  0.096707  7e-06  0.980878  0.0
H  H26  1  0.35734575  0.90782341  0.78339375  1  0.04767  -9e-06  0.098506  0.096746  7e-06  0.980935  0.0
H  H27  1  0.85734581  0.09217835  0.71660579  1  0.047698  -9e-06  0.098516  0.096768  7e-06  0.980906  0.0
H  H28  1  0.45379503  0.23198214  0.25506316  1  0.075722  -2.3e-05  0.107616  0.086369  -1.2e-05  1.004522  0.0
H  H29  1  0.95379184  0.76801462  0.24493619  1  0.075716  -2.3e-05  0.107596  0.086341  -1.2e-05  1.004549  0.0
H  H30  1  0.54620613  0.76801872  0.74493761  1  0.075731  -2.3e-05  0.107614  0.086364  -1.2e-05  1.004555  0.0
H  H31  1  0.04620427  0.23198377  0.75506251  1  0.075768  -2.3e-05  0.10764  0.086408  -1.2e-05  1.004475  0.0
H  H32  1  0.54821173  0.32568706  0.21583977  1  0.107394  -0.000195  0.117916  0.115299  -9e-05  0.97877  0.0
H  H33  1  0.04820831  0.67430874  0.28416001  1  0.107399  -0.000195  0.117907  0.115265  -9e-05  0.978757  0.0
H  H34  1  0.45179044  0.67431297  0.78416141  1  0.107412  -0.000195  0.117917  0.115308  -9e-05  0.978761  0.0
H  H35  1  0.95178780  0.32568882  0.71583855  1  0.107373  -0.000195  0.11793  0.115309  -9e-05  0.978737  0.0
H  H36  1  0.71673131  0.02677506  0.32165703  1  0.166895  0.000501  0.148983  0.12183  0.000304  1.006752  0.0
H  H37  1  0.21673085  0.97322493  0.17834543  1  0.166906  0.000502  0.148952  0.121787  0.000304  1.006792  0.0
H  H38  1  0.28326884  0.97322415  0.67834454  1  0.166895  0.000501  0.148963  0.121804  0.000304  1.006808  0.0
H  H39  1  0.78327133  0.02677511  0.82165466  1  0.166874  0.000501  0.148955  0.121793  0.000304  1.006777  0.0
H  H40  1  0.65381285  0.36074082  0.44035096  1  0.174101  -0.000432  0.163015  0.144779  -0.000276  0.952406  0.0
H  H41  1  0.15382262  0.63925915  0.05964832  1  0.174108  -0.000432  0.163005  0.144747  -0.000276  0.95244  0.0
H  H42  1  0.34618427  0.63925839  0.55964953  1  0.174098  -0.000432  0.162999  0.144758  -0.000276  0.952415  0.0
H  H43  1  0.84618056  0.36074171  0.94035082  1  0.174089  -0.000432  0.163001  0.144746  -0.000276  0.952464  0.0
H  H44  1  0.28130334  0.12605090  0.17124431  1  0.137709  -0.000305  0.130674  0.091098  -9e-05  1.062977  0.0
H  H45  1  0.78130291  0.87394993  0.32875711  1  0.137694  -0.000305  0.130668  0.091105  -9e-05  1.063014  0.0
H  H46  1  0.71869783  0.87394996  0.82875865  1  0.137732  -0.000305  0.13065  0.091068  -9e-05  1.062941  0.0
H  H47  1  0.21869421  0.12604763  0.67124308  1  0.137735  -0.000305  0.130647  0.091055  -9e-05  1.063  0.0
H  H48  1  0.44029807  0.10436239  0.95439576  1  0.067065  -0.000442  0.118813  0.115839  -0.000144  0.996086  0.0
H  H49  1  0.94029603  0.89563279  0.54560467  1  0.067071  -0.000442  0.118819  0.115873  -0.000144  0.995995  0.0
H  H50  1  0.55969804  0.89564096  0.04560491  1  0.066996  -0.000441  0.118815  0.115843  -0.000144  0.996227  0.0
H  H51  1  0.05970514  0.10436394  0.45439428  1  0.067023  -0.000441  0.118805  0.115831  -0.000144  0.996045  0.0
H  H52  1  0.61713817  0.22749469  0.06406332  1  0.154987  -0.000714  0.12175  0.120967  -0.000367  1.051764  0.0
H  H53  1  0.11713515  0.77249784  0.43593467  1  0.154938  -0.000714  0.12172  0.120947  -0.000367  1.051811  0.0
H  H54  1  0.38285996  0.77250783  0.93593666  1  0.154957  -0.000714  0.121758  0.120953  -0.000367  1.051824  0.0
H  H55  1  0.88286399  0.22749890  0.56406209  1  0.155059  -0.000714  0.121743  0.120973  -0.000367  1.05172  0.0
H  H56  1  0.61919240  0.58120077  0.54526122  1  0.117463  0.000259  0.106199  0.117562  0.000266  1.012076  0.0
H  H57  1  0.11919184  0.41879844  0.95473876  1  0.117472  0.000259  0.106198  0.117559  0.000266  1.012086  0.0
H  H58  1  0.38080674  0.41879927  0.45473887  1  0.117467  0.000259  0.106205  0.117574  0.000266  1.01206  0.0
H  H59  1  0.88081135  0.58120159  0.04526078  1  0.117445  0.000259  0.106197  0.117559  0.000266  1.01206  0.0
H  H60  1  0.85370098  0.56144712  0.73973758  1  0.130285  0.000235  0.110272  0.123802  0.000181  0.995118  0.0
H  H61  1  0.35370039  0.43855216  0.76026207  1  0.130366  0.000235  0.110267  0.123815  0.000181  0.995132  0.0
H  H62  1  0.14630221  0.43855457  0.26026226  1  0.130194  0.000235  0.110267  0.123808  0.000181  0.995103  0.0
H  H63  1  0.64629977  0.56144705  0.23973677  1  0.1303  0.000234  0.110257  0.123776  0.00018  0.995176  0.0
H  H64  1  0.82461844  0.86915326  0.67760906  1  0.103184  -0.000308  0.097633  0.101172  -0.000268  1.035617  0.0
H  H65  1  0.32461307  0.13084519  0.82239157  1  0.103107  -0.000308  0.09764  0.101192  -0.000268  1.035663  0.0
H  H66  1  0.17538172  0.13084843  0.32239077  1  0.103201  -0.000308  0.097655  0.101194  -0.000268  1.035587  0.0
H  H67  1  0.67538203  0.86915650  0.17760826  1  0.103132  -0.000308  0.097634  0.101144  -0.000268  1.035617  0.0
C  C68  1  0.74158779  0.23595970  0.28929879  1  0.279981  -8.4e-05  -0.040316  -0.052675  -5.1e-05  3.82621  0.0
C  C69  1  0.24158890  0.76404029  0.21070200  1  0.280071  -8.4e-05  -0.040319  -0.052733  -5.1e-05  3.826287  0.0
C  C70  1  0.25840933  0.76403951  0.71070224  1  0.280166  -8.4e-05  -0.04031  -0.052686  -5.1e-05  3.826327  0.0
C  C71  1  0.75841126  0.23595810  0.78929670  1  0.279916  -8.4e-05  -0.040328  -0.052668  -5.1e-05  3.826267  0.0
C  C72  1  0.66076465  0.17969581  0.21897596  1  -0.02457  0.000229  -0.155766  -0.180982  0.000185  3.909362  0.0
C  C73  1  0.16076245  0.82030333  0.28102425  1  -0.024732  0.000229  -0.15577  -0.180994  0.000185  3.909415  0.0
C  C74  1  0.33923551  0.82030588  0.78102497  1  -0.02475  0.000229  -0.155777  -0.181022  0.000185  3.909463  0.0
C  C75  1  0.83923466  0.17969505  0.71897500  1  -0.024575  0.000229  -0.155796  -0.181108  0.000185  3.909524  0.0
C  C76  1  0.52780257  0.23824117  0.21165024  1  0.296016  -0.000672  -0.050681  -0.066882  -0.000503  3.860848  -0.001
C  C77  1  0.02779925  0.76175711  0.28835001  1  0.296048  -0.000672  -0.050619  -0.066844  -0.000503  3.860866  -0.001
C  C78  1  0.47219859  0.76176052  0.78835123  1  0.296054  -0.000672  -0.050657  -0.066885  -0.000503  3.860864  -0.001
C  C79  1  0.97219585  0.23824128  0.71164978  1  0.295976  -0.000672  -0.050703  -0.066926  -0.000503  3.860834  -0.001
C  C80  1  0.69924105  0.10028284  0.36696215  1  1.005819  0.002109  0.174777  0.109994  0.001187  3.84104  0.001
C  C81  1  0.19924374  0.89971962  0.13304023  1  1.00572  0.002109  0.174835  0.110049  0.001187  3.841007  0.001
C  C82  1  0.30075910  0.89971472  0.63303750  1  1.005737  0.002108  0.174841  0.110027  0.001187  3.841242  0.001
C  C83  1  0.80075945  0.10028372  0.86696153  1  1.005818  0.002108  0.174818  0.110027  0.001187  3.841219  0.001
C  C84  1  0.66482498  0.27171583  0.42697230  1  0.990169  -0.001354  0.179199  0.10317  -0.000744  3.842493  -0.001
C  C85  1  0.16483279  0.72828415  0.07302696  1  0.989708  -0.001354  0.179255  0.103287  -0.000743  3.842368  -0.001
C  C86  1  0.33517315  0.72828256  0.57302858  1  0.990135  -0.001354  0.179197  0.103206  -0.000743  3.842418  -0.001
C  C87  1  0.83517141  0.27171672  0.92697163  1  0.990126  -0.001354  0.17922  0.103241  -0.000743  3.842482  -0.001
C  C88  1  0.34861337  0.13239398  0.12600576  1  0.957635  0.001013  0.138109  0.089878  0.000151  3.920805  0.0
C  C89  1  0.84860967  0.86760440  0.37399404  1  0.957702  0.001014  0.138008  0.089712  0.000151  3.920767  0.0
C  C90  1  0.65138780  0.86760853  0.87399586  1  0.957617  0.001013  0.138111  0.089864  0.000151  3.920733  0.0
C  C91  1  0.15138644  0.13239234  0.62600546  1  0.957621  0.001013  0.138151  0.089882  0.000151  3.920716  0.0
C  C92  1  0.43437458  0.12565820  0.01551543  1  0.437325  -0.000671  -0.004123  -0.025316  -0.000805  4.013406  -0.001
C  C93  1  0.93437743  0.87433938  0.48448355  1  0.437206  -0.000671  -0.004098  -0.025289  -0.000805  4.013278  -0.001
C  C94  1  0.56562254  0.87434596  0.98448757  1  0.4372  -0.00067  -0.004096  -0.02522  -0.000805  4.013287  -0.001
C  C95  1  0.06562474  0.12565819  0.51551391  1  0.43721  -0.000671  -0.004141  -0.025282  -0.000805  4.013379  -0.001
C  C96  1  0.52244852  0.18595543  0.06833083  1  0.293609  -0.00235  0.003977  -0.096422  -0.001551  3.882381  -0.002
C  C97  1  0.02244456  0.81403789  0.43166854  1  0.293847  -0.002349  0.003923  -0.096556  -0.00155  3.882491  -0.002
C  C98  1  0.47754759  0.81404461  0.93166980  1  0.29364  -0.00235  0.003916  -0.096482  -0.001551  3.882338  -0.002
C  C99  1  0.97755357  0.18595884  0.56832877  1  0.293652  -0.002349  0.003935  -0.096553  -0.00155  3.882424  -0.002
C  C100  1  0.71737030  0.73147530  0.60575507  1  -0.055092  -0.008961  -0.02508  -0.036788  -0.006189  4.001417  -0.007
C  C101  1  0.21736781  0.26852559  0.89424670  1  -0.055101  -0.00896  -0.025103  -0.036803  -0.006188  4.001436  -0.007
C  C102  1  0.28262985  0.26852556  0.39424462  1  -0.055184  -0.008962  -0.025071  -0.036765  -0.006189  4.001397  -0.007
C  C103  1  0.78263133  0.73147610  0.10575477  1  -0.055096  -0.008961  -0.025057  -0.036784  -0.006189  4.001318  -0.007
C  C104  1  0.68230895  0.62003060  0.59361005  1  -0.009047  -0.002664  -0.076778  -0.106848  -0.001597  3.920308  -0.002
C  C105  1  0.18231059  0.37996863  0.90639038  1  -0.009068  -0.002663  -0.076802  -0.106894  -0.001596  3.920362  -0.002
C  C106  1  0.31769121  0.37996944  0.40638894  1  -0.008988  -0.002663  -0.076781  -0.106869  -0.001596  3.920263  -0.002
C  C107  1  0.81769260  0.62003141  0.09361025  1  -0.00909  -0.002664  -0.076769  -0.106812  -0.001597  3.920338  -0.002
C  C108  1  0.73020481  0.55865889  0.64203553  1  -0.086177  0.005838  -0.018374  -0.024852  0.00398  3.973876  0.005
C  C109  1  0.23020576  0.44133953  0.85796523  1  -0.086147  0.005839  -0.018311  -0.0247  0.003981  3.973745  0.005
C  C110  1  0.26979737  0.44134198  0.35796416  1  -0.085962  0.005838  -0.018369  -0.024778  0.00398  3.973773  0.005
C  C111  1  0.76980046  0.55865968  0.14203525  1  -0.085957  0.005838  -0.018362  -0.024871  0.00398  3.973877  0.005
C  C112  1  0.81426244  0.60911369  0.70254481  1  -0.004016  -0.000203  -0.070463  -0.086867  -5.7e-05  3.896995  0.0
C  C113  1  0.31426261  0.39088640  0.79745559  1  -0.004007  -0.000202  -0.070501  -0.086963  -5.7e-05  3.897029  0.0
C  C114  1  0.18574176  0.39088718  0.29745379  1  -0.004296  -0.000201  -0.070481  -0.086955  -5.7e-05  3.896941  0.0
C  C115  1  0.68574058  0.60911281  0.20254489  1  -0.004239  -0.000202  -0.070431  -0.086832  -5.8e-05  3.896818  0.0
C  C116  1  0.84741831  0.72111894  0.71594162  1  -0.054995  0.006971  -0.029159  -0.058246  0.004812  4.019437  0.005
C  C117  1  0.34741435  0.27888034  0.78406022  1  -0.054778  0.00697  -0.029092  -0.058215  0.004812  4.019512  0.005
C  C118  1  0.15258488  0.27888028  0.28405777  1  -0.049797  0.006951  -0.029133  -0.058211  0.004811  4.01953  0.005
C  C119  1  0.65258378  0.72112383  0.21594006  1  -0.054775  0.006969  -0.029217  -0.058379  0.004812  4.019668  0.005
C  C120  1  0.79827134  0.78217903  0.66759372  1  -0.064205  -0.000196  -0.087935  -0.127553  -0.000184  3.97535  0.0
C  C121  1  0.29827110  0.21781940  0.83240804  1  -0.064239  -0.000195  -0.087921  -0.127535  -0.000184  3.97548  0.0
C  C122  1  0.20172982  0.21782101  0.33240473  1  -0.064197  -0.000195  -0.087947  -0.127579  -0.000184  3.975427  0.0
C  C123  1  0.70172804  0.78217981  0.16759408  1  -0.064242  -0.000196  -0.087911  -0.127425  -0.000184  3.975521  0.0
C  C124  1  0.67265431  0.79266743  0.54965991  1  1.5377  -0.000218  0.191481  0.556613  -0.0015  4.230379  0.001
C  C125  1  0.17265753  0.20733097  0.95033821  1  1.537877  -0.000216  0.191588  0.556778  -0.0015  4.230222  0.001
C  C126  1  0.32734483  0.20732931  0.45033686  1  1.537667  -0.000217  0.191491  0.556648  -0.0015  4.230386  0.001
C  C127  1  0.82734364  0.79266824  0.04966064  1  1.538007  -0.000215  0.191579  0.556771  -0.0015  4.230263  0.001
C  C128  1  0.69591009  0.43829716  0.62824945  1  1.584269  -0.001362  0.192988  0.558624  -0.000155  4.245172  -0.003
C  C129  1  0.19591114  0.56170538  0.87175265  1  1.584597  -0.001362  0.192954  0.558674  -0.000155  4.245148  -0.003
C  C130  1  0.30409209  0.56170536  0.37175053  1  1.58467  -0.001362  0.192981  0.558682  -0.000155  4.245165  -0.003
C  C131  1  0.80408901  0.43829466  0.12824798  1  1.584669  -0.001362  0.192928  0.558623  -0.000155  4.245079  -0.003
C  C132  1  0.93273209  0.77709778  0.78283419  1  1.543528  0.000313  0.200012  0.552055  0.001224  4.232694  0.0
C  C133  1  0.43273141  0.22290070  0.71716466  1  1.543683  0.000315  0.200022  0.552115  0.001224  4.232579  0.0
C  C134  1  0.06727211  0.22290143  0.21716575  1  1.538225  0.000333  0.199962  0.552016  0.001224  4.23273  0.0
C  C135  1  0.56726874  0.77709686  0.28283389  1  1.543321  0.000314  0.200014  0.552092  0.001225  4.232739  0.0
N  N136  1  0.66849927  0.10299942  0.43755464  1  -0.717053  -0.049064  -0.238801  -0.157557  -0.034243  3.522406  -0.045
N  N137  1  0.16850129  0.89700303  0.06244615  1  -0.717032  -0.049071  -0.238799  -0.157511  -0.034248  3.522384  -0.045
N  N138  1  0.33150088  0.89700061  0.56244708  1  -0.717052  -0.049065  -0.238816  -0.157503  -0.034245  3.522449  -0.045
N  N139  1  0.83150088  0.10299866  0.93755260  1  -0.717063  -0.049065  -0.238805  -0.157495  -0.034245  3.52249  -0.045
N  N140  1  0.64670856  0.21032408  0.47502471  1  -0.704263  0.050418  -0.248418  -0.177784  0.035125  3.56812  0.046
N  N141  1  0.14671467  0.78967672  0.02497582  1  -0.704046  0.05042  -0.248405  -0.177863  0.035126  3.568205  0.046
N  N142  1  0.35328957  0.78967596  0.52497647  1  -0.704141  0.050422  -0.248394  -0.177807  0.035127  3.568132  0.046
N  N143  1  0.85328751  0.21032332  0.97502318  1  -0.704081  0.050419  -0.248367  -0.177786  0.035125  3.568232  0.046
N  N144  1  0.69836426  0.20486413  0.35806443  1  -1.215626  8.5e-05  -0.220799  0.025212  8e-06  3.717017  0.0
N  N145  1  0.19837182  0.79513503  0.14193572  1  -1.215293  8.5e-05  -0.220911  0.025139  8e-06  3.71697  0.0
N  N146  1  0.30163286  0.79513590  0.64193674  1  -1.215551  8.5e-05  -0.220864  0.025147  8e-06  3.717189  0.0
N  N147  1  0.80163339  0.20486336  0.85806298  1  -1.215645  8.5e-05  -0.220873  0.025117  8e-06  3.717105  0.0
N  N148  1  0.46638828  0.18915766  0.13803729  1  -1.237253  -0.001797  -0.238137  0.062644  -0.001073  3.74657  -0.001
N  N149  1  0.96638659  0.81083745  0.36196230  1  -1.237332  -0.001797  -0.238066  0.062845  -0.001073  3.746394  -0.001
N  N150  1  0.53361188  0.81084486  0.86196378  1  -1.237191  -0.001797  -0.238113  0.062711  -0.001073  3.746537  -0.001
N  N151  1  0.03361053  0.18915846  0.63803651  1  -1.237279  -0.001797  -0.238114  0.06278  -0.001073  3.746495  -0.001
N  N152  1  0.32624633  0.09267257  0.05222680  1  -1.165439  -0.054519  -0.382406  -0.320762  -0.036376  3.707708  -0.048
N  N153  1  0.82624536  0.90732497  0.44777452  1  -1.165515  -0.054514  -0.382332  -0.320676  -0.036373  3.707517  -0.048
N  N154  1  0.67375382  0.90732995  0.94777482  1  -1.165401  -0.054515  -0.382383  -0.320801  -0.036373  3.70767  -0.048
N  N155  1  0.17375479  0.09267093  0.55222483  1  -1.165422  -0.054515  -0.382365  -0.320727  -0.036373  3.707583  -0.048
O  O156  1  0.67073165  0.89960303  0.57482406  1  -1.081298  -0.102198  -0.338664  -0.531806  -0.064695  2.300291  -0.092
O  O157  1  0.17072978  0.10040115  0.92517946  1  -1.081531  -0.102177  -0.338664  -0.531781  -0.064682  2.300529  -0.092
O  O158  1  0.32926446  0.10039701  0.42517548  1  -1.081348  -0.102186  -0.338593  -0.531686  -0.064689  2.300495  -0.092
O  O159  1  0.82926734  0.89959971  0.07482241  1  -1.081545  -0.102184  -0.338691  -0.53182  -0.064687  2.300382  -0.092
O  O160  1  0.64294749  0.73795094  0.48430429  1  -1.165484  -0.002997  -0.323876  -0.561899  -0.001471  2.28096  -0.002
O  O161  1  0.14294786  0.26205728  0.01570247  1  -1.165476  -0.003  -0.324013  -0.562148  -0.001474  2.2806  -0.002
O  O162  1  0.35705873  0.26205158  0.51569515  1  -1.16534  -0.002999  -0.323919  -0.562006  -0.001473  2.28083  -0.002
O  O163  1  0.85705229  0.73794440  0.98430063  1  -1.16554  -0.002999  -0.323985  -0.562091  -0.001473  2.280783  -0.002
O  O164  1  0.59278242  0.40537523  0.58451236  1  -1.10832  0.087205  -0.337485  -0.554552  0.055274  2.301627  0.078
O  O165  1  0.09277925  0.59462397  0.91548929  1  -1.108338  0.087211  -0.337438  -0.554538  0.055278  2.301501  0.078
O  O166  1  0.40721976  0.59462398  0.41548922  1  -1.108349  0.087205  -0.337481  -0.554612  0.055274  2.301578  0.078
O  O167  1  0.90721786  0.40537524  0.08451010  1  -1.108337  0.087203  -0.337389  -0.554491  0.055273  2.301495  0.078
O  O168  1  0.76631984  0.37737568  0.65758860  1  -1.191094  -0.000366  -0.327905  -0.582303  -0.00049  2.196986  0.0
O  O169  1  0.26631707  0.62262110  0.84241073  1  -1.191368  -0.000366  -0.327891  -0.582353  -0.00049  2.197095  0.0
O  O170  1  0.23368234  0.62262353  0.34241189  1  -1.191397  -0.000366  -0.327879  -0.582305  -0.00049  2.197059  0.0
O  O171  1  0.73367701  0.37737812  0.15758702  1  -1.191365  -0.000366  -0.32791  -0.582312  -0.00049  2.197012  0.0
O  O172  1  0.97613734  0.71325043  0.82212454  1  -1.107461  0.071532  -0.319546  -0.515708  0.045583  2.366432  0.065
O  O173  1  0.47613694  0.28674971  0.67787290  1  -1.10734  0.071532  -0.319593  -0.515808  0.045584  2.366353  0.065
O  O174  1  0.02386484  0.28674961  0.17787446  1  -1.107207  0.071534  -0.319549  -0.515728  0.045584  2.366357  0.065
O  O175  1  0.52386422  0.71325280  0.32212599  1  -1.10745  0.071526  -0.319555  -0.515746  0.045579  2.366505  0.065
O  O176  1  0.95400599  0.88014074  0.79546398  1  -1.181629  -0.002692  -0.331104  -0.564196  -0.001953  2.15588  -0.002
O  O177  1  0.45400827  0.11986106  0.70453434  1  -1.182068  -0.002692  -0.331103  -0.5642  -0.001954  2.15595  -0.002
O  O178  1  0.04599720  0.11986095  0.20453586  1  -1.181644  -0.002692  -0.331088  -0.564163  -0.001953  2.155899  -0.002
O  O179  1  0.54598986  0.88014064  0.29546386  1  -1.181615  -0.002692  -0.331108  -0.564199  -0.001953  2.155808  -0.002
O  O180  1  0.45516854  0.90889730  0.43546084  1  -1.122034  0.002382  -0.592464  -0.863288  0.001642  2.418422  0.0
O  O181  1  0.95516732  0.09110359  0.06453980  1  -1.121971  0.002375  -0.592506  -0.863391  0.001638  2.418437  0.0
O  O182  1  0.54482959  0.09109944  0.56453811  1  -1.122012  0.002379  -0.592427  -0.863247  0.00164  2.418345  0.0
O  O183  1  0.04483081  0.90889892  0.93546237  1  -1.122129  0.002376  -0.592421  -0.863225  0.001638  2.418339  0.0
