# generated using pymatgen
data_CaH18(C9O5)2
_symmetry_space_group_name_H-M   'P 1'
_cell_length_a   7.18464989
_cell_length_b   12.27969746
_cell_length_c   12.27951357
_cell_angle_alpha   115.86329007
_cell_angle_beta   95.37519545
_cell_angle_gamma   95.37532450
_symmetry_Int_Tables_number   1
_chemical_formula_structural   CaH18(C9O5)2
_chemical_formula_sum   'Ca2 H36 C36 O20'
_cell_volume   959.55720021
_cell_formula_units_Z   2
loop_
 _symmetry_equiv_pos_site_id
 _symmetry_equiv_pos_as_xyz
  1  'x, y, z'
loop_
 _atom_site_type_symbol
 _atom_site_label
 _atom_site_symmetry_multiplicity
 _atom_site_fract_x
 _atom_site_fract_y
 _atom_site_fract_z
 _atom_site_occupancy
 _atom_site_hle17_bader_spin_density
 _atom_site_hle17_ddec_charge
 _atom_site_hle17_ddec_spin_density
 _atom_site_hle17_ddec_sum_bond_order
 _atom_site_hle17_magmom
 _atom_site_hse06_10hf_bader_spin_density
 _atom_site_hse06_10hf_ddec_charge
 _atom_site_hse06_10hf_ddec_spin_density
 _atom_site_hse06_10hf_ddec_sum_bond_order
 _atom_site_hse06_10hf_magmom
 _atom_site_hse06_bader_spin_density
 _atom_site_hse06_ddec_charge
 _atom_site_hse06_ddec_spin_density
 _atom_site_hse06_ddec_sum_bond_order
 _atom_site_hse06_magmom
 _atom_site_pbe_bader_spin_density
 _atom_site_pbe_cm5_charge
 _atom_site_pbe_ddec_charge
 _atom_site_pbe_ddec_spin_density
 _atom_site_pbe_ddec_sum_bond_order
 _atom_site_pbe_magmom
Ca  Ca0  1  0.74998979  0.47227608  0.52772169  1  0  1.54123  0  1.142524  0  0  1.410903  0  1.494033  0  0  1.456085  0  1.448555  0  0  0.895633  1.37681  0  1.526462  0
Ca  Ca1  1  0.25000882  0.52773390  0.47228882  1  0  1.541196  0  1.1426  0  0  1.410834  0  1.494182  0  0  1.456017  0  1.448706  0  0  0.895596  1.376736  0  1.526616  0
H  H2  1  0.18181187  0.91565575  0.47731713  1  0  0.119408  0  0.94067  0  0  0.128168  0  1.00327  0  0  0.131867  0  1.001235  0  0  0.108486  0.125462  0  1.004959  0
H  H3  1  0.31820924  0.52269637  0.08435283  1  0  0.119393  0  0.940533  0  0  0.128129  0  1.00317  0  0  0.131848  0  1.00108  0  0  0.108468  0.125391  0  1.004894  0
H  H4  1  0.81817934  0.08433324  0.52266908  1  0  0.119431  0  0.940777  0  0  0.128202  0  1.003362  0  0  0.131918  0  1.001279  0  0  0.108527  0.125505  0  1.005046  0
H  H5  1  0.68181533  0.47731751  0.91565747  1  0  0.119437  0  0.940657  0  0  0.12819  0  1.003264  0  0  0.13189  0  1.001214  0  0  0.108511  0.125445  0  1.004987  0
H  H6  1  0.38379887  0.99613051  0.68037168  1  0  0.083457  0  0.969563  0  0  0.092381  0  1.034788  0  0  0.095552  0  1.032141  0  0  0.098479  0.090064  0  1.036804  0
H  H7  1  0.11622319  0.31965270  0.00388662  1  0  0.08343  0  0.969661  0  0  0.092354  0  1.034881  0  0  0.095519  0  1.032239  0  0  0.098464  0.090037  0  1.036899  0
H  H8  1  0.61618666  0.00385108  0.31961830  1  0  0.083521  0  0.96956  0  0  0.092473  0  1.034756  0  0  0.095643  0  1.032108  0  0  0.098519  0.090153  0  1.036769  0
H  H9  1  0.88379621  0.68036293  0.99612908  1  0  0.083475  0  0.969613  0  0  0.092392  0  1.034842  0  0  0.095559  0  1.0322  0  0  0.09849  0.090072  0  1.036854  0
H  H10  1  0.55635428  0.20941992  0.77859750  1  0  0.089016  0  0.957614  0  0  0.099476  0  1.018711  0  0  0.102251  0  1.017965  0  0  0.097489  0.097418  0  1.019425  0
H  H11  1  0.94365085  0.22140969  0.79059936  1  0  0.089096  0  0.957474  0  0  0.099562  0  1.018561  0  0  0.102339  0  1.017838  0  0  0.097497  0.097523  0  1.019248  0
H  H12  1  0.44363303  0.79056351  0.22139256  1  0  0.088936  0  0.957521  0  0  0.099441  0  1.018574  0  0  0.10225  0  1.017792  0  0  0.097459  0.097412  0  1.019255  0
H  H13  1  0.05634998  0.77861030  0.20942546  1  0  0.08897  0  0.957339  0  0  0.099478  0  1.018421  0  0  0.102289  0  1.017637  0  0  0.097479  0.097449  0  1.019101  0
H  H14  1  0.52633419  0.34087956  0.67336830  1  0  0.103211  0  0.957468  0  0  0.113411  0  1.018937  0  0  0.116464  0  1.017067  0  0  0.113437  0.11117  0  1.020357  0
H  H15  1  0.97368101  0.32663486  0.65913364  1  0  0.103199  0  0.957515  0  0  0.113357  0  1.019065  0  0  0.116403  0  1.017202  0  0  0.113408  0.111166  0  1.020446  0
H  H16  1  0.47366789  0.65911403  0.32663108  1  0  0.103221  0  0.957617  0  0  0.113399  0  1.019091  0  0  0.11651  0  1.017147  0  0  0.113468  0.111163  0  1.020507  0
H  H17  1  0.02632774  0.67336967  0.34088557  1  0  0.103253  0  0.957471  0  0  0.113435  0  1.01895  0  0  0.116527  0  1.017035  0  0  0.113477  0.111195  0  1.020371  0
H  H18  1  0.88325171  0.96170562  0.17529885  1  0  0.138814  0  0.949684  0  0  0.155833  0  1.012175  0  0  0.158507  0  1.011206  0  0  0.099821  0.153874  0  1.012914  0
H  H19  1  0.61672286  0.82470162  0.03828262  1  0  0.138902  0  0.949905  0  0  0.155948  0  1.01234  0  0  0.158623  0  1.011365  0  0  0.099879  0.153986  0  1.01308  0
H  H20  1  0.11674401  0.03829802  0.82469487  1  0  0.138883  0  0.949691  0  0  0.155901  0  1.012168  0  0  0.158577  0  1.011195  0  0  0.099833  0.153938  0  1.012906  0
H  H21  1  0.38327444  0.17529659  0.96170226  1  0  0.138836  0  0.949951  0  0  0.1559  0  1.012344  0  0  0.158575  0  1.011371  0  0  0.09983  0.153942  0  1.013088  0
H  H22  1  0.04310650  0.94149710  0.06553928  1  0  0.151432  0  0.954789  0  0  0.168487  0  1.015295  0  0  0.170864  0  1.015031  0  0  0.103341  0.166751  0  1.015541  0
H  H23  1  0.45689239  0.93445316  0.05848798  1  0  0.151531  0  0.954918  0  0  0.168656  0  1.015334  0  0  0.171022  0  1.015077  0  0  0.103432  0.166912  0  1.01559  0
H  H24  1  0.95688723  0.05850379  0.93445230  1  0  0.151407  0  0.954893  0  0  0.168458  0  1.015403  0  0  0.170835  0  1.015139  0  0  0.103326  0.166724  0  1.015645  0
H  H25  1  0.54312509  0.06555434  0.94150530  1  0  0.151616  0  0.954804  0  0  0.168647  0  1.015325  0  0  0.171022  0  1.01506  0  0  0.103414  0.16691  0  1.015572  0
H  H26  1  0.97297411  0.08770177  0.14930324  1  0  0.16283  0  0.920434  0  0  0.181485  0  0.977219  0  0  0.184871  0  0.975052  0  0  0.110911  0.179041  0  0.978819  0
H  H27  1  0.52702346  0.85069781  0.91229891  1  0  0.162821  0  0.920539  0  0  0.181483  0  0.977325  0  0  0.184859  0  0.975168  0  0  0.110912  0.179033  0  0.978929  0
H  H28  1  0.02703544  0.91230743  0.85070016  1  0  0.162916  0  0.920395  0  0  0.181579  0  0.977162  0  0  0.184954  0  0.975007  0  0  0.110933  0.179129  0  0.978769  0
H  H29  1  0.47298285  0.14930321  0.08768930  1  0  0.162947  0  0.920562  0  0  0.181564  0  0.977369  0  0  0.184935  0  0.975216  0  0  0.110958  0.179116  0  0.978973  0
H  H30  1  0.93660029  0.25740564  0.42313123  1  0  0.435117  0  0.867501  0  0  0.401125  0  0.936283  0  0  0.412989  0  0.918965  0  0  0.299273  0.392734  0  0.94851  0
H  H31  1  0.56339565  0.57687402  0.74259556  1  0  0.435024  0  0.867606  0  0  0.401039  0  0.936372  0  0  0.4129  0  0.919061  0  0  0.299221  0.392654  0  0.948589  0
H  H32  1  0.06339157  0.74259242  0.57687123  1  0  0.435034  0  0.86759  0  0  0.401041  0  0.936364  0  0  0.4129  0  0.919058  0  0  0.299231  0.392657  0  0.948577  0
H  H33  1  0.43660801  0.42313324  0.25741808  1  0  0.4351  0  0.867519  0  0  0.401087  0  0.936314  0  0  0.412942  0  0.919015  0  0  0.299262  0.392705  0  0.948525  0
H  H34  1  0.71680029  0.20840800  0.37604673  1  0  0.42711  0  0.821363  0  0  0.411069  0  0.874915  0  0  0.418879  0  0.866092  0  0  0.327641  0.405473  0  0.881287  0
H  H35  1  0.78319333  0.62396106  0.79159143  1  0  0.427143  0  0.821405  0  0  0.411117  0  0.874929  0  0  0.418928  0  0.866103  0  0  0.32767  0.405524  0  0.881291  0
H  H36  1  0.28319975  0.79159561  0.62395941  1  0  0.427135  0  0.82144  0  0  0.411109  0  0.87495  0  0  0.41892  0  0.866123  0  0  0.32766  0.405518  0  0.881314  0
H  H37  1  0.21680340  0.37603972  0.20842225  1  0  0.427048  0  0.821497  0  0  0.411054  0  0.874997  0  0  0.418863  0  0.866181  0  0  0.327677  0.405467  0  0.881349  0
C  C38  1  0.33412195  0.20527291  0.51808362  1  0  -0.176539  0  3.747997  0  0  -0.160826  0  3.988478  0  0  -0.171247  0  4.009377  0  0  -0.021157  -0.15409  0  3.974584  0
C  C39  1  0.16587849  0.48192199  0.79472794  1  0  -0.176351  0  3.74791  0  0  -0.160584  0  3.988365  0  0  -0.171006  0  4.009263  0  0  -0.020985  -0.153838  0  3.974483  0
C  C40  1  0.66587710  0.79471976  0.48191113  1  0  -0.17657  0  3.748095  0  0  -0.160842  0  3.988464  0  0  -0.171263  0  4.009375  0  0  -0.021032  -0.154104  0  3.974575  0
C  C41  1  0.83411536  0.51808519  0.20528435  1  0  -0.176329  0  3.7478  0  0  -0.160638  0  3.988201  0  0  -0.171054  0  4.009115  0  0  -0.02103  -0.15392  0  3.974346  0
C  C42  1  0.23978391  0.08442296  0.46411175  1  0  0.269853  0  3.746999  0  0  0.252076  0  4.009121  0  0  0.263636  0  4.024934  0  0  0.088478  0.24424  0  3.998461  0
C  C43  1  0.26020796  0.53588793  0.91558359  1  0  0.269677  0  3.74714  0  0  0.251883  0  4.009312  0  0  0.263435  0  4.025138  0  0  0.088393  0.244041  0  3.998636  0
C  C44  1  0.76021753  0.91556792  0.53587989  1  0  0.269654  0  3.747105  0  0  0.251932  0  4.009125  0  0  0.263493  0  4.024937  0  0  0.088358  0.244106  0  3.998458  0
C  C45  1  0.73980462  0.46412219  0.08442444  1  0  0.269643  0  3.746984  0  0  0.251936  0  4.009026  0  0  0.263492  0  4.02485  0  0  0.088432  0.244103  0  3.998355  0
C  C46  1  0.25569039  0.00930379  0.52169520  1  0  -0.159206  0  3.731035  0  0  -0.183849  0  3.992633  0  0  -0.189219  0  4.012019  0  0  -0.093362  -0.180321  0  3.979652  0
C  C47  1  0.24431454  0.47830974  0.99070604  1  0  -0.159101  0  3.731312  0  0  -0.183702  0  3.992883  0  0  -0.189063  0  4.012272  0  0  -0.093329  -0.180137  0  3.979893  0
C  C48  1  0.74429848  0.99068696  0.47829899  1  0  -0.159196  0  3.731049  0  0  -0.183902  0  3.992678  0  0  -0.189264  0  4.012064  0  0  -0.093415  -0.180364  0  3.979648  0
C  C49  1  0.75570328  0.52169221  0.00929702  1  0  -0.15905  0  3.731291  0  0  -0.183709  0  3.992841  0  0  -0.189073  0  4.01222  0  0  -0.09337  -0.180135  0  3.979848  0
C  C50  1  0.36818771  0.05481184  0.63554133  1  0  -0.032418  0  3.766128  0  0  -0.052552  0  4.026815  0  0  -0.051539  0  4.047279  0  0  -0.08471  -0.052965  0  4.012769  0
C  C51  1  0.13183485  0.36447155  0.94520359  1  0  -0.032318  0  3.766279  0  0  -0.052456  0  4.026969  0  0  -0.051438  0  4.047432  0  0  -0.084641  -0.052874  0  4.01292  0
C  C52  1  0.63180798  0.94517168  0.36444676  1  0  -0.032351  0  3.76606  0  0  -0.052506  0  4.026763  0  0  -0.051495  0  4.047241  0  0  -0.084663  -0.052917  0  4.012723  0
C  C53  1  0.86815813  0.63553840  0.05480418  1  0  -0.032482  0  3.766048  0  0  -0.052621  0  4.026769  0  0  -0.051606  0  4.04724  0  0  -0.084746  -0.053026  0  4.012703  0
C  C54  1  0.46724394  0.17369661  0.68999470  1  0  -0.085883  0  3.7703  0  0  -0.101082  0  4.026193  0  0  -0.105859  0  4.049163  0  0  -0.096409  -0.097901  0  4.01057  0
C  C55  1  0.03277469  0.31001112  0.82631666  1  0  -0.086018  0  3.770094  0  0  -0.101215  0  4.026004  0  0  -0.106012  0  4.04896  0  0  -0.096407  -0.098045  0  4.010405  0
C  C56  1  0.53274673  0.82628961  0.30999514  1  0  -0.085913  0  3.770061  0  0  -0.101146  0  4.025982  0  0  -0.105962  0  4.048967  0  0  -0.096414  -0.097983  0  4.010345  0
C  C57  1  0.96722736  0.68999523  0.17369405  1  0  -0.085831  0  3.769609  0  0  -0.101068  0  4.025524  0  0  -0.105882  0  4.048502  0  0  -0.096408  -0.097906  0  4.009891  0
C  C58  1  0.45126800  0.24751919  0.63112343  1  0  -0.043603  0  3.727457  0  0  -0.067307  0  3.975707  0  0  -0.066029  0  3.996423  0  0  -0.074316  -0.067843  0  3.961591  0
C  C59  1  0.04873386  0.36888763  0.75249400  1  0  -0.043706  0  3.727483  0  0  -0.067415  0  3.975806  0  0  -0.066126  0  3.996528  0  0  -0.074421  -0.068004  0  3.961684  0
C  C60  1  0.54871149  0.75247329  0.36887511  1  0  -0.043599  0  3.727511  0  0  -0.067307  0  3.975772  0  0  -0.06607  0  3.99648  0  0  -0.074413  -0.067856  0  3.961683  0
C  C61  1  0.95127445  0.63111510  0.24751869  1  0  -0.043832  0  3.727388  0  0  -0.067541  0  3.975707  0  0  -0.066292  0  3.996423  0  0  -0.074445  -0.068081  0  3.961622  0
C  C62  1  0.30720647  0.29341280  0.46635161  1  0  0.693455  0  3.893334  0  0  0.640192  0  4.18838  0  0  0.675923  0  4.178327  0  0  0.223206  0.615833  0  4.194497  0
C  C63  1  0.19278007  0.53364367  0.70658669  1  0  0.693521  0  3.893277  0  0  0.64022  0  4.188383  0  0  0.675952  0  4.178328  0  0  0.22322  0.615849  0  4.194511  0
C  C64  1  0.69278983  0.70657982  0.53364786  1  0  0.69349  0  3.893415  0  0  0.640254  0  4.188417  0  0  0.675978  0  4.17837  0  0  0.223193  0.615882  0  4.194555  0
C  C65  1  0.80721718  0.46635990  0.29342092  1  0  0.69357  0  3.893319  0  0  0.640393  0  4.188235  0  0  0.676101  0  4.178208  0  0  0.223289  0.616028  0  4.194378  0
C  C66  1  0.17343433  0.03978359  0.25154436  1  0  0.709461  0  3.729103  0  0  0.667154  0  4.032346  0  0  0.700801  0  4.022038  0  0  0.244652  0.644114  0  4.038919  0
C  C67  1  0.32656911  0.74845904  0.96021237  1  0  0.709387  0  3.728642  0  0  0.66701  0  4.032049  0  0  0.700681  0  4.021706  0  0  0.244642  0.643973  0  4.038613  0
C  C68  1  0.82653405  0.96020977  0.74844260  1  0  0.709858  0  3.729256  0  0  0.667421  0  4.032651  0  0  0.701045  0  4.022366  0  0  0.244765  0.644413  0  4.039186  0
C  C69  1  0.67347077  0.25153489  0.03978584  1  0  0.709706  0  3.728861  0  0  0.66728  0  4.032301  0  0  0.700896  0  4.02203  0  0  0.244855  0.644268  0  4.038839  0
C  C70  1  0.00659576  0.00402917  0.15403234  1  0  -0.465581  0  3.649796  0  0  -0.544297  0  3.880716  0  0  -0.55164  0  3.881998  0  0  -0.239548  -0.538951  0  3.87979  0
C  C71  1  0.49339678  0.84597084  0.99596255  1  0  -0.465767  0  3.65037  0  0  -0.54456  0  3.881259  0  0  -0.551885  0  3.882547  0  0  -0.239714  -0.539207  0  3.880342  0
C  C72  1  0.99339636  0.99597081  0.84595631  1  0  -0.46596  0  3.6497  0  0  -0.544669  0  3.880638  0  0  -0.551989  0  3.881935  0  0  -0.239658  -0.539319  0  3.879701  0
C  C73  1  0.50658839  0.15402268  0.00402371  1  0  -0.46589  0  3.649754  0  0  -0.544586  0  3.880675  0  0  -0.5519  0  3.881969  0  0  -0.239716  -0.539245  0  3.879747  0
O  O74  1  0.44065460  0.38257920  0.49668641  1  0  -0.761764  0  2.060305  0  0  -0.694198  0  2.317453  0  0  -0.724622  0  2.308175  0  0  -0.415871  -0.67231  0  2.323002  0
O  O75  1  0.05933728  0.50331540  0.61742455  1  0  -0.761766  0  2.060414  0  0  -0.694169  0  2.31754  0  0  -0.724585  0  2.308256  0  0  -0.415845  -0.672286  0  2.323115  0
O  O76  1  0.55934350  0.61741525  0.50331559  1  0  -0.761803  0  2.060374  0  0  -0.69425  0  2.317516  0  0  -0.724675  0  2.308244  0  0  -0.415924  -0.67236  0  2.323077  0
O  O77  1  0.94065640  0.49668449  0.38258125  1  0  -0.761827  0  2.060568  0  0  -0.694241  0  2.31759  0  0  -0.724655  0  2.308323  0  0  -0.41586  -0.672354  0  2.323158  0
O  O78  1  0.15374949  0.28542079  0.40086731  1  0  -0.669004  0  1.987098  0  0  -0.611575  0  2.210919  0  0  -0.63764  0  2.20104  0  0  -0.31118  -0.593267  0  2.217193  0
O  O79  1  0.34624286  0.59913260  0.71457590  1  0  -0.669036  0  1.986814  0  0  -0.611612  0  2.210671  0  0  -0.637679  0  2.200796  0  0  -0.311242  -0.593295  0  2.216938  0
O  O80  1  0.84624097  0.71457726  0.59913426  1  0  -0.668876  0  1.987167  0  0  -0.611493  0  2.210992  0  0  -0.637554  0  2.201123  0  0  -0.311145  -0.593178  0  2.217262  0
O  O81  1  0.65376103  0.40086283  0.28542601  1  0  -0.669091  0  1.9868  0  0  -0.611709  0  2.210577  0  0  -0.637762  0  2.200711  0  0  -0.311318  -0.593391  0  2.216844  0
O  O82  1  0.11684463  0.03532670  0.35343765  1  0  -0.355636  0  2.328523  0  0  -0.284682  0  2.559818  0  0  -0.306577  0  2.558869  0  0  -0.143566  -0.269392  0  2.560056  0
O  O83  1  0.38316584  0.64655761  0.96467593  1  0  -0.355603  0  2.328168  0  0  -0.284649  0  2.559507  0  0  -0.306547  0  2.558552  0  0  -0.143581  -0.269356  0  2.559736  0
O  O84  1  0.88315913  0.96467517  0.64655814  1  0  -0.355855  0  2.328366  0  0  -0.284801  0  2.559589  0  0  -0.3067  0  2.558656  0  0  -0.143624  -0.269526  0  2.559817  0
O  O85  1  0.61682874  0.35344690  0.03532463  1  0  -0.356018  0  2.327733  0  0  -0.285026  0  2.559027  0  0  -0.306923  0  2.558099  0  0  -0.143712  -0.269737  0  2.559251  0
O  O86  1  0.33726881  0.06760116  0.24303826  1  0  -0.544227  0  1.924607  0  0  -0.504323  0  2.130135  0  0  -0.525249  0  2.122878  0  0  -0.275396  -0.489957  0  2.134893  0
O  O87  1  0.16272201  0.75695983  0.93239151  1  0  -0.544135  0  1.924332  0  0  -0.504203  0  2.129909  0  0  -0.525145  0  2.122659  0  0  -0.275336  -0.489841  0  2.134666  0
O  O88  1  0.66274911  0.93240177  0.75695384  1  0  -0.544127  0  1.925403  0  0  -0.504197  0  2.13101  0  0  -0.525108  0  2.123761  0  0  -0.275342  -0.489846  0  2.135766  0
O  O89  1  0.83726236  0.24305017  0.06759303  1  0  -0.544057  0  1.925678  0  0  -0.504088  0  2.131263  0  0  -0.524994  0  2.124023  0  0  -0.275364  -0.489739  0  2.136019  0
O  O90  1  0.80715707  0.26220310  0.44828048  1  0  -0.8599  0  1.78311  0  0  -0.811604  0  1.967348  0  0  -0.831025  0  1.93977  0  0  -0.607494  -0.79758  0  1.986589  0
O  O91  1  0.69283662  0.55172623  0.73779928  1  0  -0.859886  0  1.783256  0  0  -0.811602  0  1.967509  0  0  -0.831017  0  1.939927  0  0  -0.607495  -0.797585  0  1.986714  0
O  O92  1  0.19283962  0.73779772  0.55172752  1  0  -0.859897  0  1.783331  0  0  -0.811597  0  1.967612  0  0  -0.831014  0  1.940046  0  0  -0.607487  -0.797575  0  1.986824  0
O  O93  1  0.30716328  0.44827643  0.26221295  1  0  -0.859797  0  1.783254  0  0  -0.811519  0  1.967569  0  0  -0.83094  0  1.940002  0  0  -0.607505  -0.797503  0  1.98677  0
