# generated using pymatgen
data_CuH2C4N3
_symmetry_space_group_name_H-M   'P 1'
_cell_length_a   14.91374435
_cell_length_b   22.71104320
_cell_length_c   23.20566409
_cell_angle_alpha   90.21188724
_cell_angle_beta   90.44724245
_cell_angle_gamma   90.15510454
_symmetry_Int_Tables_number   1
_chemical_formula_structural   CuH2C4N3
_chemical_formula_sum   'Cu12 H24 C48 N36'
_cell_volume   7859.59110494
_cell_formula_units_Z   12
loop_
 _symmetry_equiv_pos_site_id
 _symmetry_equiv_pos_as_xyz
  1  'x, y, z'
loop_
 _atom_site_type_symbol
 _atom_site_label
 _atom_site_symmetry_multiplicity
 _atom_site_fract_x
 _atom_site_fract_y
 _atom_site_fract_z
 _atom_site_occupancy
 _atom_site_pbe_bader_charge
 _atom_site_pbe_bader_spin_density
 _atom_site_pbe_cm5_charge
 _atom_site_pbe_ddec_charge
 _atom_site_pbe_ddec_spin_density
 _atom_site_pbe_ddec_sum_bond_order
 _atom_site_pbe_magmom
Cu  Cu0  1  0.61555596  0.42011393  0.66319463  1  0.539125  0  0.494786  0.207546  0  2.190748  0
Cu  Cu1  1  0.65277468  0.39584688  0.53928059  1  0.553007  0  0.48762  0.216265  0  2.086152  0
Cu  Cu2  1  0.59300093  0.29207360  0.63599964  1  0.553425  0  0.487089  0.216917  0  2.081098  0
Cu  Cu3  1  0.37145206  0.08693111  0.16675537  1  0.538016  0  0.493837  0.208526  0  2.185676  0
Cu  Cu4  1  0.34935731  0.10627406  0.03955250  1  0.555663  0  0.487354  0.217266  0  2.078713  0
Cu  Cu5  1  0.41844806  0.20991954  0.13537622  1  0.553273  0  0.486711  0.214722  0  2.08823  0
Cu  Cu6  1  0.11870808  0.58128753  0.83706142  1  0.538063  0  0.495119  0.207646  0  2.194819  0
Cu  Cu7  1  0.15698178  0.60473230  0.96166092  1  0.553269  0  0.487495  0.21594  0  2.08421  0
Cu  Cu8  1  0.09526432  0.70845754  0.86493960  1  0.553873  0  0.488421  0.216769  0  2.088683  0
Cu  Cu9  1  0.87602428  0.91501418  0.33433068  1  0.536885  0  0.494666  0.207487  0  2.191952  0
Cu  Cu10  1  0.85441663  0.89472385  0.46058944  1  0.5553  0  0.487199  0.217474  0  2.079186  0
Cu  Cu11  1  0.91690282  0.79039149  0.36431739  1  0.553829  0  0.487835  0.214893  0  2.089681  0
H  H12  1  0.74755542  0.52662481  0.68904690  1  0.129415  0  0.125792  0.117528  0  0.987468  0
H  H13  1  0.75950239  0.52070092  0.50253638  1  0.116335  0  0.12692  0.118912  0  0.980504  0
H  H14  1  0.49360524  0.24653239  0.75838894  1  0.116431  0  0.126997  0.118569  0  0.979915  0
H  H15  1  0.47952643  0.43695881  0.76527125  1  0.116756  0  0.125753  0.117649  0  0.988303  0
H  H16  1  0.62302008  0.31853368  0.42793483  1  0.123554  0  0.125116  0.116228  0  0.984761  0
H  H17  1  0.62960171  0.18197648  0.55757143  1  0.112264  0  0.12469  0.115912  0  0.985584  0
H  H18  1  0.23115986  0.98560109  0.18920490  1  0.122563  0  0.125815  0.117309  0  0.987443  0
H  H19  1  0.24487223  0.97948834  0.00279147  1  0.123411  0  0.126715  0.1178  0  0.980687  0
H  H20  1  0.52693751  0.25377996  0.25642498  1  0.113172  0  0.126917  0.119091  0  0.980098  0
H  H21  1  0.50085377  0.06446467  0.27310990  1  0.095068  0  0.125835  0.117728  0  0.984811  0
H  H22  1  0.38126595  0.17994515  0.92705391  1  0.123247  0  0.125018  0.11704  0  0.983708  0
H  H23  1  0.38825657  0.31893706  0.05516648  1  0.107364  0  0.124663  0.116126  0  0.986244  0
H  H24  1  0.25008293  0.47569364  0.81106168  1  0.129908  0  0.125921  0.117527  0  0.986571  0
H  H25  1  0.26489775  0.48016036  0.99765393  1  0.113494  0  0.126868  0.118627  0  0.980292  0
H  H26  1  0.99511820  0.75449920  0.74198077  1  0.090172  0  0.127242  0.119138  0  0.98051  0
H  H27  1  0.98117715  0.56401273  0.73432625  1  0.131725  0  0.126091  0.117548  0  0.987585  0
H  H28  1  0.12555925  0.68113798  0.07322767  1  0.112216  0  0.125135  0.116595  0  0.984102  0
H  H29  1  0.12757913  0.81831873  0.94419601  1  0.125244  0  0.124562  0.115749  0  0.98605  0
H  H30  1  0.73727010  0.01721869  0.31145681  1  0.134519  0  0.125996  0.117873  0  0.987281  0
H  H31  1  0.75001702  0.02086367  0.49810443  1  0.149192  0  0.126946  0.118737  0  0.98028  0
H  H32  1  0.02077827  0.74633315  0.24275037  1  0.112095  0  0.126858  0.118755  0  0.980302  0
H  H33  1  0.00399837  0.93627941  0.22902073  1  0.127961  0  0.12578  0.117699  0  0.986952  0
H  H34  1  0.88646433  0.82023212  0.57248314  1  0.127245  0  0.125011  0.116618  0  0.984203  0
H  H35  1  0.88264208  0.68148413  0.44404472  1  0.12558  0  0.124925  0.116224  0  0.985719  0
C  C36  1  0.74070993  0.51596371  0.64363742  1  0.42141  0  0.021841  -0.012161  0  3.94585  0
C  C37  1  0.77729644  0.54546203  0.59619223  1  0.084136  0  -0.031607  -0.097512  0  4.041978  0
C  C38  1  0.74640342  0.51359024  0.54789457  1  0.399654  0  0.022388  -0.012279  0  3.923742  0
C  C39  1  0.49998512  0.29356620  0.75161612  1  0.398714  0  0.022702  -0.010764  0  3.924591  0
C  C40  1  0.46410563  0.34047897  0.78363121  1  0.083677  0  -0.031446  -0.097242  0  4.040814  0
C  C41  1  0.49198751  0.39126606  0.75439896  1  0.39919  0  0.021286  -0.012976  0  3.950017  0
C  C42  1  0.62416112  0.29274085  0.46719073  1  0.386175  0  0.020265  -0.014306  0  3.935646  0
C  C43  1  0.62774229  0.23142197  0.47383271  1  0.059916  0  -0.031847  -0.093404  0  4.050386  0
C  C44  1  0.62902574  0.22289944  0.53365800  1  0.460139  0  0.019507  -0.014796  0  3.940344  0
C  C45  1  0.24341811  0.99364707  0.14391252  1  0.451374  0  0.021918  -0.01078  0  3.945452  0
C  C46  1  0.21476489  0.96049651  0.09598193  1  0.029939  0  -0.031612  -0.09826  0  4.04425  0
C  C47  1  0.25134938  0.98979296  0.04830402  1  0.423015  0  0.023284  -0.009398  0  3.923031  0
C  C48  1  0.51042776  0.20742471  0.25212479  1  0.408397  0  0.021652  -0.013653  0  3.925349  0
C  C49  1  0.53694547  0.15965966  0.28658063  1  0.026713  0  -0.031309  -0.096888  0  4.040899  0
C  C50  1  0.49783505  0.11018707  0.25992743  1  0.465571  0  0.020616  -0.013103  0  3.94715  0
C  C51  1  0.38439776  0.20650977  0.96597451  1  0.423814  0  0.018763  -0.018261  0  3.938471  0
C  C52  1  0.38416071  0.26799807  0.97196331  1  -0.014215  0  -0.031518  -0.091802  0  4.048535  0
C  C53  1  0.38626289  0.27757805  0.03170423  1  0.449442  0  0.019633  -0.017014  0  3.943259  0
C  C54  1  0.24405490  0.48594869  0.85654300  1  0.459805  0  0.021466  -0.011979  0  3.945141  0
C  C55  1  0.28082298  0.45592690  0.90388923  1  0.015284  0  -0.031664  -0.09763  0  4.04228  0
C  C56  1  0.25102525  0.48749354  0.95230467  1  0.43867  0  0.02264  -0.011969  0  3.924226  0
C  C57  1  0.00154856  0.70746202  0.74861922  1  0.452693  0  0.022421  -0.011496  0  3.924876  0
C  C58  1  0.96504572  0.66054603  0.71635005  1  0.050577  0  -0.031142  -0.097829  0  4.03998  0
C  C59  1  0.99344846  0.60974138  0.74546715  1  0.393493  0  0.021318  -0.010887  0  3.947582  0
C  C60  1  0.12555842  0.70710774  0.03408940  1  0.462101  0  0.019877  -0.014839  0  3.936174  0
C  C61  1  0.12681164  0.76851019  0.02771767  1  0.000642  0  -0.032257  -0.095078  0  4.052738  0
C  C62  1  0.12816454  0.77728572  0.96794420  1  0.434676  0  0.020101  -0.014213  0  3.942183  0
C  C63  1  0.74953916  0.00875294  0.35678943  1  0.421898  0  0.022158  -0.010968  0  3.945354  0
C  C64  1  0.72016527  0.04089292  0.40485373  1  0.027006  0  -0.032021  -0.099482  0  4.044362  0
C  C65  1  0.75688225  0.01119558  0.45254547  1  0.396852  0  0.023309  -0.009833  0  3.923463  0
C  C66  1  0.00681020  0.79289888  0.24776497  1  0.409285  0  0.022287  -0.012728  0  3.925851  0
C  C67  1  0.03484146  0.84070708  0.21399054  1  0.047821  0  -0.031125  -0.096399  0  4.039444  0
C  C68  1  0.99892291  0.89042691  0.24144787  1  0.422029  0  0.020941  -0.013584  0  3.948013  0
C  C69  1  0.88720450  0.79375908  0.53348822  1  0.425864  0  0.019289  -0.01646  0  3.93784  0
C  C70  1  0.88383412  0.73232106  0.52742960  1  0.003691  0  -0.031636  -0.09288  0  4.048128  0
C  C71  1  0.88364871  0.72277836  0.46766850  1  0.426227  0  0.020263  -0.015368  0  3.94049  0
C  C72  1  0.16345923  0.90623603  0.10122268  1  1.095183  0  0.249383  0.407068  0  4.07563  0
C  C73  1  0.12667353  0.81379899  0.07226738  1  1.060091  0  0.249065  0.408265  0  4.043845  0
C  C74  1  0.08640164  0.84529627  0.16110992  1  1.095499  0  0.249755  0.407549  0  4.069257  0
C  C75  1  0.83218422  0.59826244  0.60221990  1  1.090729  0  0.249359  0.406677  0  4.074365  0
C  C76  1  0.91327959  0.65734202  0.66292605  1  1.12272  0  0.249249  0.406538  0  4.069943  0
C  C77  1  0.87978435  0.68788959  0.57243629  1  1.05743  0  0.24827  0.406857  0  4.042131  0
C  C78  1  0.66791782  0.09463467  0.39968432  1  1.092865  0  0.248966  0.406258  0  4.073896  0
C  C79  1  0.58933052  0.15506831  0.33965204  1  1.077938  0  0.24962  0.40749  0  4.066562  0
C  C80  1  0.62906406  0.18632228  0.42913304  1  1.047851  0  0.248541  0.406312  0  4.047007  0
C  C81  1  0.33441143  0.40280074  0.89766487  1  1.076377  0  0.249003  0.406225  0  4.072051  0
C  C82  1  0.41339461  0.34362793  0.83694767  1  1.10813  0  0.249674  0.407611  0  4.070629  0
C  C83  1  0.38065529  0.31268114  0.92712392  1  1.064973  0  0.248436  0.406739  0  4.043961  0
N  N84  1  0.69536740  0.46811613  0.56559251  1  -0.797874  0  -0.332057  -0.147561  0  3.712575  0
N  N85  1  0.69090595  0.47050172  0.62503326  1  -0.787254  0  -0.34464  -0.142029  0  3.774914  0
N  N86  1  0.54160931  0.37591402  0.70899855  1  -0.775262  0  -0.345502  -0.142857  0  3.773334  0
N  N87  1  0.54566698  0.31513556  0.70639034  1  -0.776929  0  -0.330788  -0.147472  0  3.712651  0
N  N88  1  0.62568585  0.27524859  0.56086263  1  -0.771646  0  -0.332865  -0.146  0  3.726951  0
N  N89  1  0.62446691  0.31897232  0.51930032  1  -0.781765  0  -0.333142  -0.145251  0  3.72649  0
N  N90  1  0.29811872  0.03719579  0.06674661  1  -0.770684  0  -0.330853  -0.146642  0  3.711878  0
N  N91  1  0.29398423  0.03880137  0.12625591  1  -0.821858  0  -0.345199  -0.144992  0  3.76816  0
N  N92  1  0.45048936  0.12721657  0.21369069  1  -0.782452  0  -0.344999  -0.143947  0  3.775782  0
N  N93  1  0.45945443  0.18748050  0.20786357  1  -0.777881  0  -0.331159  -0.146641  0  3.711341  0
N  N94  1  0.38866339  0.22570466  0.05941275  1  -0.767243  0  -0.332747  -0.142226  0  3.735592  0
N  N95  1  0.38558683  0.18120273  0.01839714  1  -0.777456  0  -0.333497  -0.14675  0  3.724265  0
N  N96  1  0.20018744  0.53315709  0.93478963  1  -0.805288  0  -0.331885  -0.147007  0  3.714295  0
N  N97  1  0.19496773  0.53129595  0.87531648  1  -0.769275  0  -0.344774  -0.142438  0  3.777246  0
N  N98  1  0.04384051  0.62511078  0.79106100  1  -0.831341  0  -0.346266  -0.144611  0  3.77631  0
N  N99  1  0.04796171  0.68587561  0.79390755  1  -0.7287  0  -0.331718  -0.147545  0  3.712589  0
N  N100  1  0.12698645  0.72501443  0.94053563  1  -0.748474  0  -0.334659  -0.146315  0  3.732695  0
N  N101  1  0.12711833  0.68110386  0.98188075  1  -0.816954  0  -0.332429  -0.144615  0  3.727438  0
N  N102  1  0.80447144  0.96453848  0.43401057  1  -0.773425  0  -0.33077  -0.147466  0  3.710073  0
N  N103  1  0.80066146  0.96385587  0.37443458  1  -0.796678  0  -0.344944  -0.14255  0  3.771236  0
N  N104  1  0.95202741  0.87353665  0.28746000  1  -0.801769  0  -0.345593  -0.142904  0  3.778087  0
N  N105  1  0.95797451  0.81303800  0.29233408  1  -0.768144  0  -0.33183  -0.146581  0  3.71124  0
N  N106  1  0.88767903  0.77465012  0.44004207  1  -0.76692  0  -0.333602  -0.143215  0  3.735334  0
N  N107  1  0.88802410  0.81911888  0.48112647  1  -0.795899  0  -0.333685  -0.147228  0  3.722034  0
N  N108  1  0.16143874  0.86673168  0.05783902  1  -1.190301  0  -0.329581  -0.442963  0  3.153346  0
N  N109  1  0.09158866  0.79965971  0.12401764  1  -1.174862  0  -0.330018  -0.44383  0  3.141949  0
N  N110  1  0.12344098  0.89857857  0.15241722  1  -1.209129  0  -0.326505  -0.443438  0  3.217832  0
N  N111  1  0.86915905  0.60620131  0.65475311  1  -1.229364  0  -0.326062  -0.442087  0  3.215949  0
N  N112  1  0.91508560  0.70175454  0.62462038  1  -1.175867  0  -0.329239  -0.442707  0  3.143452  0
N  N113  1  0.84088719  0.63595993  0.55799410  1  -1.180302  0  -0.329182  -0.442435  0  3.151895  0
N  N114  1  0.62748503  0.10216608  0.34817771  1  -1.196839  0  -0.326336  -0.442786  0  3.212268  0
N  N115  1  0.59357533  0.20040815  0.37716210  1  -1.169932  0  -0.329378  -0.44282  0  3.145478  0
N  N116  1  0.66529833  0.13377212  0.44338113  1  -1.193346  0  -0.329138  -0.442067  0  3.151105  0
N  N117  1  0.37019025  0.39487639  0.84517868  1  -1.235922  0  -0.326243  -0.442315  0  3.215398  0
N  N118  1  0.41518438  0.29900293  0.87507380  1  -1.16847  0  -0.329435  -0.443198  0  3.144534  0
N  N119  1  0.34285844  0.36469611  0.94167119  1  -1.182616  0  -0.329043  -0.442309  0  3.150469  0
