# generated using pymatgen
data_AgH7C6N2O3
_symmetry_space_group_name_H-M   'P 1'
_cell_length_a   7.15843700
_cell_length_b   9.90817273
_cell_length_c   12.26892122
_cell_angle_alpha   110.50574124
_cell_angle_beta   90.93267487
_cell_angle_gamma   100.07969564
_symmetry_Int_Tables_number   1
_chemical_formula_structural   AgH7C6N2O3
_chemical_formula_sum   'Ag4 H28 C24 N8 O12'
_cell_volume   799.63441262
_cell_formula_units_Z   4
loop_
 _symmetry_equiv_pos_site_id
 _symmetry_equiv_pos_as_xyz
  1  'x, y, z'
loop_
 _atom_site_type_symbol
 _atom_site_label
 _atom_site_symmetry_multiplicity
 _atom_site_fract_x
 _atom_site_fract_y
 _atom_site_fract_z
 _atom_site_occupancy
 _atom_site_hle17_bader_spin_density
 _atom_site_hle17_ddec_charge
 _atom_site_hle17_ddec_spin_density
 _atom_site_hle17_ddec_sum_bond_order
 _atom_site_hle17_magmom
 _atom_site_hse06_10hf_bader_spin_density
 _atom_site_hse06_10hf_ddec_charge
 _atom_site_hse06_10hf_ddec_spin_density
 _atom_site_hse06_10hf_ddec_sum_bond_order
 _atom_site_hse06_10hf_magmom
 _atom_site_hse06_bader_spin_density
 _atom_site_hse06_ddec_charge
 _atom_site_hse06_ddec_spin_density
 _atom_site_hse06_ddec_sum_bond_order
 _atom_site_hse06_magmom
 _atom_site_pbe_bader_spin_density
 _atom_site_pbe_cm5_charge
 _atom_site_pbe_ddec_charge
 _atom_site_pbe_ddec_spin_density
 _atom_site_pbe_ddec_sum_bond_order
 _atom_site_pbe_magmom
Ag  Ag0  1  0.46337603  0.62440431  0.73921001  1  0  0.534632  0  1.411152  0  0  0.393297  0  1.84459  0  0  0.422263  0  1.798583  0  0  0.496978  0.373767  0  1.876574  0
Ag  Ag1  1  0.53662060  0.37559399  0.26078706  1  0  0.534626  0  1.41133  0  0  0.393245  0  1.844817  0  0  0.422209  0  1.79881  0  0  0.496983  0.373712  0  1.876812  0
Ag  Ag2  1  0.92541019  0.54356204  0.22386446  1  0  0.525023  0  1.443075  0  0  0.386768  0  1.88322  0  0  0.414586  0  1.837789  0  0  0.477303  0.368734  0  1.914327  0
Ag  Ag3  1  0.07457881  0.45644578  0.77614281  1  0  0.52505  0  1.442981  0  0  0.38674  0  1.883119  0  0  0.414558  0  1.837692  0  0  0.477287  0.368701  0  1.914223  0
H  H4  1  0.06003796  0.89156685  0.79169512  1  0  0.425285  0  0.879938  0  0  0.398415  0  0.936806  0  0  0.408279  0  0.922443  0  0  0.275889  0.391413  0  0.946957  0
H  H5  1  0.93996226  0.10841905  0.20830305  1  0  0.425356  0  0.879868  0  0  0.398492  0  0.936729  0  0  0.408357  0  0.922363  0  0  0.275884  0.391487  0  0.946884  0
H  H6  1  0.14911356  0.79846930  0.85265600  1  0  0.409666  0  0.900595  0  0  0.382848  0  0.959905  0  0  0.393112  0  0.944555  0  0  0.275208  0.375543  0  0.970844  0
H  H7  1  0.85087927  0.20151474  0.14733966  1  0  0.409499  0  0.900829  0  0  0.382652  0  0.960197  0  0  0.392917  0  0.944843  0  0  0.275128  0.375342  0  0.971143  0
H  H8  1  0.81156974  0.91004747  0.70351567  1  0  0.425275  0  0.876757  0  0  0.395484  0  0.939198  0  0  0.405941  0  0.923687  0  0  0.284882  0.388111  0  0.950076  0
H  H9  1  0.18844259  0.08995785  0.29648897  1  0  0.425277  0  0.876751  0  0  0.395484  0  0.939198  0  0  0.405944  0  0.92368  0  0  0.284827  0.388104  0  0.950082  0
H  H10  1  0.81867851  0.05904750  0.81516208  1  0  0.423386  0  0.882242  0  0  0.390281  0  0.949078  0  0  0.401261  0  0.933106  0  0  0.280133  0.382411  0  0.960483  0
H  H11  1  0.18134363  0.94095510  0.18484567  1  0  0.42352  0  0.882015  0  0  0.390327  0  0.948973  0  0  0.401307  0  0.933  0  0  0.280137  0.382464  0  0.960365  0
H  H12  1  0.60909244  0.39394934  0.79860262  1  0  0.116018  0  0.929957  0  0  0.123278  0  0.993334  0  0  0.126455  0  0.990301  0  0  0.127361  0.120984  0  0.995564  0
H  H13  1  0.39090565  0.60605452  0.20139922  1  0  0.115963  0  0.929969  0  0  0.123272  0  0.993306  0  0  0.126452  0  0.99027  0  0  0.127365  0.120977  0  0.995538  0
H  H14  1  0.81564380  0.80765917  0.16106033  1  0  0.11474  0  0.909633  0  0  0.125825  0  0.964522  0  0  0.129151  0  0.961806  0  0  0.133976  0.123117  0  0.96718  0
H  H15  1  0.18434930  0.19233474  0.83892970  1  0  0.114719  0  0.909373  0  0  0.125833  0  0.964272  0  0  0.129163  0  0.961552  0  0  0.133926  0.123125  0  0.966934  0
H  H16  1  0.72199511  0.91412034  0.92479712  1  0  0.151059  0  0.956666  0  0  0.169533  0  1.019417  0  0  0.172411  0  1.016992  0  0  0.102532  0.16712  0  1.021092  0
H  H17  1  0.27800533  0.08588301  0.07518592  1  0  0.151246  0  0.956754  0  0  0.169731  0  1.019436  0  0  0.172605  0  1.017013  0  0  0.102624  0.167319  0  1.021107  0
H  H18  1  0.49050956  0.86836781  0.96645234  1  0  0.133602  0  0.959456  0  0  0.155158  0  1.021444  0  0  0.156292  0  1.021983  0  0  0.101294  0.154392  0  1.020625  0
H  H19  1  0.50947644  0.13162633  0.03352836  1  0  0.133751  0  0.959516  0  0  0.155323  0  1.021414  0  0  0.15646  0  1.02195  0  0  0.101359  0.154558  0  1.020596  0
H  H20  1  0.68214492  0.96430098  0.07715500  1  0  0.139125  0  0.973337  0  0  0.159117  0  1.030006  0  0  0.161901  0  1.028388  0  0  0.098486  0.157024  0  1.031164  0
H  H21  1  0.31783920  0.03571695  0.92284397  1  0  0.139244  0  0.973372  0  0  0.159198  0  1.030029  0  0  0.16198  0  1.02841  0  0  0.098514  0.157107  0  1.03119  0
H  H22  1  0.35542097  0.82645421  0.61461781  1  0  0.116964  0  0.905984  0  0  0.130146  0  0.956081  0  0  0.132963  0  0.953705  0  0  0.134912  0.127957  0  0.958315  0
H  H23  1  0.64459603  0.17354179  0.38537814  1  0  0.116979  0  0.905921  0  0  0.130154  0  0.956041  0  0  0.132969  0  0.953667  0  0  0.134907  0.127967  0  0.958269  0
H  H24  1  0.08833326  0.34224747  0.33102820  1  0  0.108609  0  0.96589  0  0  0.113018  0  1.037459  0  0  0.117105  0  1.033088  0  0  0.120506  0.110075  0  1.040566  0
H  H25  1  0.91165539  0.65775145  0.66897759  1  0  0.108684  0  0.965876  0  0  0.113025  0  1.037508  0  0  0.117109  0  1.033144  0  0  0.120529  0.110087  0  1.040609  0
H  H26  1  0.01511695  0.84448945  0.42642879  1  0  0.144578  0  0.935208  0  0  0.166201  0  0.993135  0  0  0.167881  0  0.992738  0  0  0.104904  0.164723  0  0.994204  0
H  H27  1  0.98488628  0.15552410  0.57357256  1  0  0.144623  0  0.935217  0  0  0.166236  0  0.993153  0  0  0.167909  0  0.992765  0  0  0.104899  0.164758  0  0.994223  0
H  H28  1  0.19863227  0.82116596  0.32939482  1  0  0.138846  0  0.965667  0  0  0.156714  0  1.03256  0  0  0.159428  0  1.03019  0  0  0.099724  0.154581  0  1.03451  0
H  H29  1  0.80137301  0.17883413  0.67060564  1  0  0.138817  0  0.965711  0  0  0.156697  0  1.032579  0  0  0.159411  0  1.030213  0  0  0.09973  0.154559  0  1.034536  0
H  H30  1  0.25296794  0.93649920  0.47969385  1  0  0.143514  0  0.922346  0  0  0.165335  0  0.974206  0  0  0.167758  0  0.9729  0  0  0.104855  0.163289  0  0.975707  0
H  H31  1  0.74703983  0.06350623  0.52030321  1  0  0.143525  0  0.922405  0  0  0.165359  0  0.974244  0  0  0.167793  0  0.972923  0  0  0.104884  0.163315  0  0.975745  0
C  C32  1  0.65714504  0.48708643  0.87919096  1  0  0.067825  0  3.684444  0  0  0.025098  0  3.95015  0  0  0.032135  0  3.964021  0  0  0.050309  0.020067  0  3.941448  0
C  C33  1  0.34284083  0.51291030  0.12080840  1  0  0.067689  0  3.684289  0  0  0.024861  0  3.950137  0  0  0.031897  0  3.964009  0  0  0.050174  0.019829  0  3.941439  0
C  C34  1  0.74390034  0.46794262  0.97380769  1  0  0.030626  0  3.73823  0  0  0.028842  0  3.994472  0  0  0.025384  0  4.01418  0  0  0.101094  0.030508  0  3.981733  0
C  C35  1  0.25608659  0.53207418  0.02619851  1  0  0.030735  0  3.738842  0  0  0.028908  0  3.995057  0  0  0.025448  0  4.014755  0  0  0.101195  0.030576  0  3.982327  0
C  C36  1  0.76804633  0.71510901  0.07990505  1  0  0.052236  0  3.57301  0  0  0.017843  0  3.816401  0  0  0.019898  0  3.831412  0  0  0.066922  0.015622  0  3.807512  0
C  C37  1  0.23195200  0.28489501  0.92010585  1  0  0.052343  0  3.572357  0  0  0.017954  0  3.815729  0  0  0.020002  0  3.830754  0  0  0.067045  0.015739  0  3.806839  0
C  C38  1  0.68033392  0.73602918  0.98539977  1  0  0.309846  0  3.66516  0  0  0.314507  0  3.906472  0  0  0.323146  0  3.924973  0  0  0.143146  0.308044  0  3.894666  0
C  C39  1  0.31967286  0.26395212  0.01460984  1  0  0.309964  0  3.66462  0  0  0.314462  0  3.906221  0  0  0.323104  0  3.924722  0  0  0.143071  0.307996  0  3.894416  0
C  C40  1  0.64268298  0.87978307  0.99021161  1  0  -0.412979  0  3.703923  0  0  -0.492508  0  3.927752  0  0  -0.497641  0  3.935339  0  0  -0.247861  -0.488164  0  3.922084  0
C  C41  1  0.35732055  0.12019144  0.00978218  1  0  -0.413405  0  3.704135  0  0  -0.4929  0  3.927998  0  0  -0.498028  0  3.935572  0  0  -0.248051  -0.48856  0  3.922349  0
C  C42  1  0.77845503  0.31712726  0.96382385  1  0  0.609595  0  3.996136  0  0  0.552458  0  4.30579  0  0  0.584514  0  4.30237  0  0  0.196134  0.531284  0  4.306581  0
C  C43  1  0.22154714  0.68286313  0.03618294  1  0  0.609928  0  3.996592  0  0  0.552842  0  4.30609  0  0  0.584906  0  4.302639  0  0  0.196129  0.531658  0  4.306909  0
C  C44  1  0.29751330  0.71880318  0.54993146  1  0  0.070638  0  3.582052  0  0  0.036445  0  3.821316  0  0  0.039533  0  3.837304  0  0  0.069467  0.033933  0  3.810722  0
C  C45  1  0.70249814  0.28119976  0.45006270  1  0  0.07066  0  3.581999  0  0  0.036411  0  3.821332  0  0  0.039499  0  3.837322  0  0  0.069476  0.033899  0  3.810735  0
C  C46  1  0.25502157  0.46590809  0.49687692  1  0  0.032399  0  3.714177  0  0  0.032827  0  3.961907  0  0  0.030393  0  3.982725  0  0  0.102692  0.033876  0  3.948316  0
C  C47  1  0.74497344  0.53409364  0.50312094  1  0  0.032384  0  3.714222  0  0  0.032827  0  3.961857  0  0  0.030405  0  3.982652  0  0  0.102629  0.03388  0  3.948273  0
C  C48  1  0.15406748  0.45049072  0.39337154  1  0  0.058367  0  3.675268  0  0  0.015906  0  3.942901  0  0  0.021011  0  3.957914  0  0  0.043955  0.012288  0  3.933177  0
C  C49  1  0.84591900  0.54951155  0.60662844  1  0  0.058221  0  3.675428  0  0  0.015787  0  3.943095  0  0  0.02089  0  3.958105  0  0  0.043927  0.012163  0  3.933373  0
C  C50  1  0.19715320  0.70453638  0.44628693  1  0  0.291485  0  3.660986  0  0  0.295239  0  3.907865  0  0  0.302412  0  3.927387  0  0  0.136893  0.290444  0  3.89442  0
C  C51  1  0.80285071  0.29546592  0.55370911  1  0  0.291536  0  3.661039  0  0  0.295238  0  3.908018  0  0  0.30241  0  3.927546  0  0  0.136935  0.290442  0  3.89457  0
C  C52  1  0.16567427  0.83442208  0.41940605  1  0  -0.394499  0  3.692029  0  0  -0.475299  0  3.921439  0  0  -0.47907  0  3.927908  0  0  -0.238532  -0.472897  0  3.917555  0
C  C53  1  0.83432926  0.16558478  0.58059523  1  0  -0.394581  0  3.69223  0  0  -0.475362  0  3.921684  0  0  -0.479125  0  3.928114  0  0  -0.238599  -0.472957  0  3.917799  0
C  C54  1  0.28421268  0.33114858  0.52443104  1  0  0.60356  0  4.007416  0  0  0.548823  0  4.316144  0  0  0.580971  0  4.312781  0  0  0.185431  0.527184  0  4.317281  0
C  C55  1  0.71577880  0.66885230  0.47556968  1  0  0.603719  0  4.007342  0  0  0.548978  0  4.316046  0  0  0.581121  0  4.312684  0  0  0.185469  0.527331  0  4.317192  0
N  N56  1  0.62417524  0.61893425  0.88553043  1  0  -0.29874  0  3.286732  0  0  -0.21704  0  3.562397  0  0  -0.234991  0  3.577328  0  0  -0.333976  -0.205122  0  3.552683  0
N  N57  1  0.37582371  0.38105523  0.11447676  1  0  -0.298745  0  3.286368  0  0  -0.21699  0  3.56214  0  0  -0.234944  0  3.577076  0  0  -0.333939  -0.20507  0  3.552423  0
N  N58  1  0.79725480  0.58309785  0.07436489  1  0  -0.245868  0  3.323309  0  0  -0.173403  0  3.595018  0  0  -0.184613  0  3.610808  0  0  -0.31721  -0.165741  0  3.584654  0
N  N59  1  0.20273254  0.41691673  0.92564239  1  0  -0.246059  0  3.323293  0  0  -0.173452  0  3.594898  0  0  -0.184662  0  3.610688  0  0  -0.317207  -0.165789  0  3.584537  0
N  N60  1  0.32271840  0.60190314  0.57511752  1  0  -0.250534  0  3.362329  0  0  -0.169582  0  3.627522  0  0  -0.183396  0  3.644594  0  0  -0.326185  -0.160054  0  3.616162  0
N  N61  1  0.67728965  0.39809775  0.42487511  1  0  -0.250631  0  3.362367  0  0  -0.169557  0  3.627428  0  0  -0.183373  0  3.644492  0  0  -0.326124  -0.160035  0  3.616076  0
N  N62  1  0.12218659  0.56806959  0.36994862  1  0  -0.306331  0  3.272514  0  0  -0.2255  0  3.545657  0  0  -0.243036  0  3.562472  0  0  -0.329427  -0.21368  0  3.534168  0
N  N63  1  0.87779705  0.43193285  0.63005207  1  0  -0.306196  0  3.272548  0  0  -0.225338  0  3.545668  0  0  -0.242875  0  3.562489  0  0  -0.329384  -0.213517  0  3.534176  0
O  O64  1  0.73905003  0.21893408  0.86367563  1  0  -0.611151  0  1.971692  0  0  -0.55491  0  2.193423  0  0  -0.580755  0  2.186316  0  0  -0.309746  -0.53713  0  2.197547  0
O  O65  1  0.26095757  0.78105933  0.13633060  1  0  -0.611293  0  1.971625  0  0  -0.555009  0  2.193285  0  0  -0.580852  0  2.186156  0  0  -0.309683  -0.537225  0  2.197413  0
O  O66  1  0.84351967  0.30429661  0.05571750  1  0  -0.644252  0  2.072385  0  0  -0.576408  0  2.323385  0  0  -0.604887  0  2.313665  0  0  -0.325459  -0.556717  0  2.32911  0
O  O67  1  0.15648533  0.69571508  0.94430718  1  0  -0.644506  0  2.072606  0  0  -0.576684  0  2.323541  0  0  -0.605165  0  2.313808  0  0  -0.32558  -0.556994  0  2.329272  0
O  O68  1  0.25658449  0.21073297  0.43986899  1  0  -0.621925  0  1.962022  0  0  -0.569551  0  2.188336  0  0  -0.595926  0  2.181012  0  0  -0.319246  -0.550993  0  2.192718  0
O  O69  1  0.74341582  0.78926731  0.56012715  1  0  -0.62199  0  1.962057  0  0  -0.569619  0  2.188382  0  0  -0.59599  0  2.181062  0  0  -0.319293  -0.551058  0  2.192761  0
O  O70  1  0.33260864  0.35107162  0.62998695  1  0  -0.648626  0  1.997691  0  0  -0.588173  0  2.257377  0  0  -0.615552  0  2.245489  0  0  -0.34976  -0.568874  0  2.26513  0
O  O71  1  0.66737123  0.64892767  0.37001191  1  0  -0.648707  0  1.997614  0  0  -0.588259  0  2.257309  0  0  -0.61564  0  2.245431  0  0  -0.349768  -0.568952  0  2.265058  0
O  O72  1  0.15709521  0.82871319  0.78425954  1  0  -0.871569  0  1.765818  0  0  -0.826843  0  1.926597  0  0  -0.845843  0  1.896466  0  0  -0.620085  -0.813038  0  1.947955  0
O  O73  1  0.84291400  0.17127891  0.21574153  1  0  -0.87148  0  1.765904  0  0  -0.826774  0  1.9267  0  0  -0.845778  0  1.896567  0  0  -0.620025  -0.812966  0  1.948064  0
O  O74  1  0.86877582  0.96628765  0.78397757  1  0  -0.87039  0  1.805681  0  0  -0.81013  0  1.958703  0  0  -0.830423  0  1.92684  0  0  -0.597464  -0.794016  0  1.980781  0
O  O75  1  0.13126053  0.03372282  0.21601989  1  0  -0.870501  0  1.805388  0  0  -0.810151  0  1.95849  0  0  -0.83044  0  1.926624  0  0  -0.597411  -0.794037  0  1.980557  0
