# generated using pymatgen
data_ZnH12(C3N2)3
_symmetry_space_group_name_H-M   'P 1'
_cell_length_a   10.77530539
_cell_length_b   12.78074753
_cell_length_c   16.88108662
_cell_angle_alpha   90.00000832
_cell_angle_beta   95.91053147
_cell_angle_gamma   90.00010906
_symmetry_Int_Tables_number   1
_chemical_formula_structural   ZnH12(C3N2)3
_chemical_formula_sum   'Zn8 H96 C72 N48'
_cell_volume   2312.44457781
_cell_formula_units_Z   8
loop_
 _symmetry_equiv_pos_site_id
 _symmetry_equiv_pos_as_xyz
  1  'x, y, z'
loop_
 _atom_site_type_symbol
 _atom_site_label
 _atom_site_symmetry_multiplicity
 _atom_site_fract_x
 _atom_site_fract_y
 _atom_site_fract_z
 _atom_site_occupancy
 _atom_site_pbe_bader_charge
 _atom_site_pbe_bader_spin_density
 _atom_site_pbe_cm5_charge
 _atom_site_pbe_ddec_charge
 _atom_site_pbe_ddec_spin_density
 _atom_site_pbe_ddec_sum_bond_order
 _atom_site_pbe_magmom
Zn  Zn0  1  0.71964463  0.71886860  0.60036292  1  1.190928  0  0.73914  0.66442  0  2.522043  0
Zn  Zn1  1  0.78035648  0.21886584  0.89963755  1  1.19093  0  0.739109  0.664377  0  2.5221  0
Zn  Zn2  1  0.28035530  0.28113249  0.39963775  1  1.190946  0  0.739125  0.664381  0  2.522064  0
Zn  Zn3  1  0.21964438  0.78113290  0.10036319  1  1.190873  0  0.739111  0.664375  0  2.521973  0
Zn  Zn4  1  0.19964328  0.74388470  0.45877708  1  1.195814  0  0.746047  0.668846  0  2.531058  0
Zn  Zn5  1  0.30035818  0.24388504  0.04122397  1  1.195927  0  0.74607  0.66895  0  2.530928  0
Zn  Zn6  1  0.80035665  0.25611716  0.54122418  1  1.195761  0  0.74605  0.668892  0  2.530915  0
Zn  Zn7  1  0.69964175  0.75611526  0.95877611  1  1.195927  0  0.746045  0.668865  0  2.531013  0
H  H8  1  0.05953017  0.65160358  0.20072292  1  0.06677  0  0.10123  0.146522  0  1.026645  0
H  H9  1  0.44047201  0.15160262  0.29927759  1  0.066765  0  0.101251  0.146547  0  1.026585  0
H  H10  1  0.94046976  0.34839672  0.79927598  1  0.066772  0  0.101191  0.146472  0  1.026635  0
H  H11  1  0.55952791  0.84839768  0.70072309  1  0.066747  0  0.10126  0.146557  0  1.026612  0
H  H12  1  0.99336530  0.69230852  0.28782645  1  0.065462  0  0.099803  0.146167  0  0.999047  0
H  H13  1  0.50663598  0.19230842  0.21217323  1  0.065491  0  0.099789  0.146169  0  0.998986  0
H  H14  1  0.00663183  0.30769100  0.71217226  1  0.065523  0  0.099799  0.146152  0  0.999105  0
H  H15  1  0.49336395  0.80769266  0.78782686  1  0.065497  0  0.099774  0.146148  0  0.999064  0
H  H16  1  0.11336894  0.59670778  0.29443583  1  0.096237  0  0.102284  0.153754  0  1.004769  0
H  H17  1  0.38663125  0.09670907  0.20556394  1  0.096251  0  0.102293  0.153746  0  1.004775  0
H  H18  1  0.88662912  0.40329096  0.70556353  1  0.096509  0  0.10228  0.153762  0  1.004759  0
H  H19  1  0.61336868  0.90329202  0.79443614  1  0.09624  0  0.102288  0.153751  0  1.004776  0
H  H20  1  0.34108421  0.98984617  0.41399134  1  0.09788  0  0.109804  0.132033  0  0.982624  0
H  H21  1  0.15891501  0.48984550  0.08601196  1  0.097403  0  0.109826  0.132081  0  0.982646  0
H  H22  1  0.65891104  0.01015413  0.58601080  1  0.097911  0  0.109801  0.132027  0  0.98262  0
H  H23  1  0.84108306  0.51015401  0.91398740  1  0.097393  0  0.109808  0.132062  0  0.982631  0
H  H24  1  0.47214900  0.95543514  0.36426274  1  0.080757  0  0.119037  0.15109  0  0.960126  0
H  H25  1  0.02785293  0.45543427  0.13574074  1  0.080737  0  0.119007  0.151099  0  0.960109  0
H  H26  1  0.52784719  0.04456595  0.63573769  1  0.080694  0  0.119091  0.151189  0  0.960101  0
H  H27  1  0.97214513  0.54456603  0.86425921  1  0.080758  0  0.119028  0.151116  0  0.96011  0
H  H28  1  0.48349434  0.65620620  0.66521678  1  0.036359  0  0.096731  0.136903  0  1.028447  0
H  H29  1  0.01650668  0.15620692  0.83478504  1  0.036386  0  0.096734  0.136894  0  1.028515  0
H  H30  1  0.51650651  0.34379567  0.33478514  1  0.036288  0  0.096751  0.136939  0  1.028412  0
H  H31  1  0.98349325  0.84379338  0.16521445  1  0.036377  0  0.096752  0.136912  0  1.028498  0
H  H32  1  0.35607540  0.61260692  0.59749042  1  0.087883  0  0.100095  0.149322  0  1.018158  0
H  H33  1  0.14392552  0.11260942  0.90251198  1  0.087892  0  0.100091  0.149324  0  1.01815  0
H  H34  1  0.64392732  0.38739338  0.40251044  1  0.087849  0  0.100083  0.149301  0  1.018171  0
H  H35  1  0.85607534  0.88739088  0.09748876  1  0.087886  0  0.10009  0.14933  0  1.018169  0
H  H36  1  0.33598363  0.72043863  0.65947607  1  0.072302  0  0.104709  0.159076  0  0.990777  0
H  H37  1  0.16401847  0.22044115  0.84052643  1  0.072068  0  0.104717  0.159128  0  0.990683  0
H  H38  1  0.66401723  0.27956246  0.34052408  1  0.072224  0  0.104727  0.159091  0  0.990735  0
H  H39  1  0.83598332  0.77955993  0.15947378  1  0.072087  0  0.104729  0.159152  0  0.990698  0
H  H40  1  0.01223083  0.96042199  0.69497861  1  0.056841  0  0.105586  0.157083  0  0.986898  0
H  H41  1  0.48777183  0.46042033  0.80502217  1  0.056888  0  0.105623  0.157122  0  0.986896  0
H  H42  1  0.98777003  0.03957675  0.30502154  1  0.056895  0  0.105591  0.157107  0  0.986895  0
H  H43  1  0.51222716  0.53957763  0.19497903  1  0.056873  0  0.105611  0.157132  0  0.986855  0
H  H44  1  0.88380863  0.87790717  0.71193874  1  0.059055  0  0.094687  0.134114  0  1.024618  0
H  H45  1  0.61619285  0.37790726  0.78805999  1  0.059037  0  0.094692  0.134129  0  1.024592  0
H  H46  1  0.11619129  0.12209313  0.28806193  1  0.059066  0  0.094692  0.134138  0  1.024616  0
H  H47  1  0.38380615  0.62209226  0.21193884  1  0.059046  0  0.094694  0.134139  0  1.024544  0
H  H48  1  0.86118815  0.98633664  0.64630311  1  0.057203  0  0.095636  0.140361  0  1.015439  0
H  H49  1  0.63881451  0.48633599  0.85369690  1  0.057222  0  0.095628  0.140364  0  1.015444  0
H  H50  1  0.13881271  0.01366366  0.35369763  1  0.057203  0  0.095634  0.14037  0  1.015448  0
H  H51  1  0.36118542  0.51366353  0.14630318  1  0.057212  0  0.095624  0.140356  0  1.015437  0
H  H52  1  0.81677287  0.68721871  0.40872191  1  0.064803  0  0.110927  0.131438  0  0.975455  0
H  H53  1  0.68322840  0.18721730  0.09127598  1  0.064831  0  0.110937  0.131432  0  0.975468  0
H  H54  1  0.18322799  0.31278238  0.59127646  1  0.064827  0  0.110927  0.131448  0  0.975439  0
H  H55  1  0.31677153  0.81278378  0.90872410  1  0.064841  0  0.110942  0.13145  0  0.975452  0
H  H56  1  0.96200645  0.62032602  0.42221441  1  0.08976  0  0.115368  0.135791  0  0.999876  0
H  H57  1  0.53799466  0.12032595  0.07778702  1  0.089768  0  0.115342  0.135699  0  0.999907  0
H  H58  1  0.03799254  0.37967428  0.57778620  1  0.089745  0  0.115353  0.135771  0  0.999888  0
H  H59  1  0.46200620  0.87967435  0.92221431  1  0.08977  0  0.115331  0.135683  0  0.999888  0
H  H60  1  0.62274182  0.36900871  0.63786913  1  0.06842  0  0.099355  0.144087  0  1.019147  0
H  H61  1  0.87725777  0.86900785  0.86213007  1  0.068402  0  0.099346  0.144077  0  1.019167  0
H  H62  1  0.37725811  0.63099081  0.36212977  1  0.06841  0  0.099375  0.144128  0  1.019151  0
H  H63  1  0.12274402  0.13099401  0.13786955  1  0.068356  0  0.099343  0.144072  0  1.019219  0
H  H64  1  0.52783157  0.47608922  0.60231215  1  0.033992  0  0.101255  0.152844  0  0.982736  0
H  H65  1  0.97217013  0.97608696  0.89768839  1  0.033976  0  0.101249  0.152837  0  0.982722  0
H  H66  1  0.47216837  0.52391187  0.39768616  1  0.034001  0  0.101259  0.152849  0  0.982737  0
H  H67  1  0.02783072  0.02391491  0.10231353  1  0.033991  0  0.101265  0.152869  0  0.98272  0
H  H68  1  0.64425538  0.49439811  0.68362507  1  0.09181  0  0.099569  0.145258  0  1.024711  0
H  H69  1  0.85574729  0.99439721  0.81637494  1  0.091881  0  0.099562  0.145273  0  1.024734  0
H  H70  1  0.35574361  0.50560298  0.31637495  1  0.091815  0  0.099583  0.145292  0  1.024697  0
H  H71  1  0.14425543  0.00560622  0.18362651  1  0.091811  0  0.09957  0.145296  0  1.024708  0
H  H72  1  0.71826805  0.73854112  0.26284039  1  -0.000822  0  0.080577  0.102288  0  1.039636  0
H  H73  1  0.78173053  0.23854460  0.23715970  1  -0.000757  0  0.080558  0.102286  0  1.039657  0
H  H74  1  0.28173468  0.26145761  0.73715929  1  -0.000777  0  0.08058  0.102297  0  1.039701  0
H  H75  1  0.21826939  0.76145492  0.76284097  1  -0.000749  0  0.080567  0.10229  0  1.039653  0
H  H76  1  0.58521158  0.79982694  0.21058367  1  0.043777  0  0.08957  0.133385  0  1.009496  0
H  H77  1  0.91478901  0.29982985  0.28941656  1  0.043783  0  0.08957  0.133362  0  1.009463  0
H  H78  1  0.41478928  0.20016867  0.78941588  1  0.043788  0  0.089571  0.133371  0  1.009476  0
H  H79  1  0.08521278  0.70016810  0.71058305  1  0.043794  0  0.089588  0.13338  0  1.009424  0
H  H80  1  0.58994742  0.77229414  0.31448140  1  0.037548  0  0.084845  0.120305  0  1.006521  0
H  H81  1  0.91005217  0.27229546  0.18551876  1  0.037425  0  0.084852  0.120322  0  1.006491  0
H  H82  1  0.41005624  0.22770538  0.68551834  1  0.037416  0  0.084849  0.120334  0  1.006585  0
H  H83  1  0.08994495  0.72770250  0.81448113  1  0.037442  0  0.084832  0.120312  0  1.006465  0
H  H84  1  0.73991554  0.87955403  0.41360845  1  0.108185  0  0.081477  0.117389  0  1.060381  0
H  H85  1  0.76008244  0.37955197  0.08639220  1  0.108214  0  0.081473  0.117368  0  1.060374  0
H  H86  1  0.26008253  0.12044705  0.58639032  1  0.108154  0  0.08151  0.11744  0  1.06041  0
H  H87  1  0.23991375  0.62044442  0.91360940  1  0.108164  0  0.081491  0.117407  0  1.060383  0
H  H88  1  0.81879350  0.98957035  0.37840030  1  0.074155  0  0.08358  0.124156  0  1.057509  0
H  H89  1  0.68120195  0.48956894  0.12159723  1  0.074198  0  0.083584  0.124146  0  1.057455  0
H  H90  1  0.18120364  0.01043230  0.62159663  1  0.074198  0  0.083599  0.124199  0  1.057454  0
H  H91  1  0.31879332  0.51042744  0.87840194  1  0.074106  0  0.083575  0.12421  0  1.057413  0
H  H92  1  0.87126942  0.86055055  0.35994461  1  0.0076  0  0.078759  0.110288  0  1.015755  0
H  H93  1  0.62872944  0.36054906  0.14005670  1  0.007595  0  0.078747  0.110258  0  1.015689  0
H  H94  1  0.12873144  0.13944975  0.64005435  1  0.007649  0  0.078753  0.110302  0  1.015749  0
H  H95  1  0.37126861  0.63944654  0.85994563  1  0.007661  0  0.078713  0.110236  0  1.015648  0
H  H96  1  0.72054224  0.06300396  0.25538219  1  0.017042  0  0.080379  0.123536  0  1.061034  0
H  H97  1  0.77945968  0.56300684  0.24461751  1  0.017005  0  0.080367  0.123527  0  1.06101  0
H  H98  1  0.27945584  0.93699400  0.74461481  1  0.016998  0  0.080343  0.123509  0  1.061016  0
H  H99  1  0.22054492  0.43699190  0.75538170  1  0.016952  0  0.080385  0.123572  0  1.061039  0
H  H100  1  0.61844103  0.98064425  0.18392785  1  0.066008  0  0.08404  0.135985  0  1.053021  0
H  H101  1  0.88156093  0.48064867  0.31606953  1  0.065639  0  0.084049  0.135993  0  1.053004  0
H  H102  1  0.38155984  0.01935214  0.81606992  1  0.066126  0  0.08407  0.136029  0  1.052923  0
H  H103  1  0.11844461  0.51935319  0.68392679  1  0.066067  0  0.084037  0.136004  0  1.052967  0
C  C104  1  0.08058663  0.66924498  0.26414364  1  -0.050215  0  -0.234473  -0.474171  0  3.940318  0
C  C105  1  0.41941373  0.16924476  0.23585615  1  -0.050267  0  -0.234462  -0.474123  0  3.940315  0
C  C106  1  0.91941143  0.33075532  0.73585632  1  -0.050522  0  -0.234449  -0.474138  0  3.940309  0
C  C107  1  0.58058620  0.83075554  0.76414393  1  -0.050264  0  -0.234438  -0.474123  0  3.940424  0
C  C108  1  0.17584477  0.75352651  0.27607683  1  0.929835  0  0.208528  0.371243  0  4.030083  0
C  C109  1  0.32415671  0.25352536  0.22392482  1  0.929793  0  0.208466  0.371161  0  4.030227  0
C  C110  1  0.82415330  0.24647301  0.72392194  1  0.929848  0  0.20856  0.371283  0  4.030063  0
C  C111  1  0.67584229  0.74647573  0.77607578  1  0.929775  0  0.208446  0.371152  0  4.030119  0
C  C112  1  0.31169454  0.86292633  0.33037190  1  0.993753  0  0.206416  0.321503  0  4.02782  0
C  C113  1  0.18830627  0.36292729  0.16962853  1  0.993667  0  0.206338  0.321397  0  4.028107  0
C  C114  1  0.68830352  0.13707475  0.66962805  1  0.993752  0  0.206486  0.321633  0  4.027806  0
C  C115  1  0.81169273  0.63707301  0.83037149  1  0.993669  0  0.206419  0.32153  0  4.027911  0
C  C116  1  0.39292314  0.92305590  0.39212501  1  0.001837  0  -0.135873  -0.326193  0  3.940464  0
C  C117  1  0.10707872  0.42305516  0.10787846  1  0.002358  0  -0.135858  -0.326239  0  3.940538  0
C  C118  1  0.60707305  0.07694361  0.60787660  1  0.001881  0  -0.135888  -0.326256  0  3.940444  0
C  C119  1  0.89292120  0.57694514  0.89212221  1  0.002345  0  -0.135857  -0.326247  0  3.940522  0
C  C120  1  0.44092317  0.85816929  0.46259906  1  0.9674  0  0.210696  0.336  0  4.007051  0
C  C121  1  0.05907575  0.35817002  0.03740302  1  0.967347  0  0.210727  0.336071  0  4.007006  0
C  C122  1  0.55907862  0.14183101  0.53740174  1  0.967348  0  0.210687  0.336047  0  4.007077  0
C  C123  1  0.94092138  0.64182950  0.96259628  1  0.967326  0  0.210758  0.336101  0  4.006855  0
C  C124  1  0.44315189  0.75400090  0.56301456  1  0.982209  0  0.214196  0.383217  0  4.007729  0
C  C125  1  0.05684655  0.25400249  0.93699006  1  0.982496  0  0.214188  0.383336  0  4.007738  0
C  C126  1  0.55684897  0.24599940  0.43698736  1  0.982322  0  0.21412  0.383204  0  4.007768  0
C  C127  1  0.94315338  0.74599625  0.06300884  1  0.982405  0  0.214144  0.383324  0  4.007874  0
C  C128  1  0.40343661  0.68183843  0.62464679  1  -0.04806  0  -0.233332  -0.472809  0  3.93881  0
C  C129  1  0.09656541  0.18183929  0.87535451  1  -0.047891  0  -0.233361  -0.472899  0  3.938597  0
C  C130  1  0.59656425  0.31816265  0.37535394  1  -0.04797  0  -0.233364  -0.472864  0  3.93873  0
C  C131  1  0.90343639  0.81816101  0.12464570  1  -0.047887  0  -0.233371  -0.472945  0  3.938594  0
C  C132  1  0.92668587  0.92389746  0.66714488  1  -0.045764  0  -0.231377  -0.452636  0  3.927257  0
C  C133  1  0.57331665  0.42389671  0.83285511  1  -0.045968  0  -0.231416  -0.45273  0  3.927272  0
C  C134  1  0.07331406  0.07610284  0.33285579  1  -0.045819  0  -0.231398  -0.452739  0  3.927325  0
C  C135  1  0.42668421  0.57610203  0.16714503  1  -0.045969  0  -0.231402  -0.452723  0  3.927232  0
C  C136  1  0.95563450  0.85577549  0.60025853  1  0.993731  0  0.208577  0.377012  0  4.023522  0
C  C137  1  0.54436879  0.35577235  0.89974091  1  0.99333  0  0.208588  0.37705  0  4.023653  0
C  C138  1  0.04436729  0.14422481  0.39974167  1  0.994047  0  0.208538  0.377035  0  4.023516  0
C  C139  1  0.45562927  0.64422560  0.10025845  1  0.993572  0  0.208549  0.376945  0  4.023485  0
C  C140  1  0.93774425  0.73792399  0.50873370  1  1.001418  0  0.221464  0.346413  0  3.999342  0
C  C141  1  0.56225783  0.23792168  0.99126683  1  1.002371  0  0.221435  0.346412  0  3.999432  0
C  C142  1  0.06225474  0.26207710  0.49126691  1  1.001933  0  0.221479  0.34646  0  3.999237  0
C  C143  1  0.43774303  0.76207706  0.00873390  1  1.002108  0  0.221454  0.346413  0  3.999404  0
C  C144  1  0.88694764  0.65306740  0.45364004  1  0.034977  0  -0.137736  -0.333854  0  3.975124  0
C  C145  1  0.61305448  0.15306509  0.04635910  1  0.034868  0  -0.1377  -0.333762  0  3.975188  0
C  C146  1  0.11305228  0.34693368  0.54636005  1  0.034979  0  -0.13773  -0.333866  0  3.975067  0
C  C147  1  0.38694638  0.84693443  0.95364105  1  0.03488  0  -0.137687  -0.333736  0  3.975065  0
C  C148  1  0.82892218  0.56518987  0.49517450  1  0.975628  0  0.211652  0.339123  0  4.013469  0
C  C149  1  0.67107694  0.06518686  0.00482442  1  0.975548  0  0.211564  0.339022  0  4.01345  0
C  C150  1  0.17107868  0.43481200  0.50482505  1  0.975469  0  0.211655  0.339157  0  4.013305  0
C  C151  1  0.32892392  0.93481266  0.99517631  1  0.975555  0  0.211558  0.339002  0  4.013391  0
C  C152  1  0.71516976  0.48067047  0.57076439  1  0.974918  0  0.210742  0.37897  0  4.021902  0
C  C153  1  0.78483009  0.98066870  0.92923543  1  0.974524  0  0.210828  0.379116  0  4.021704  0
C  C154  1  0.28483110  0.51933061  0.42923575  1  0.974894  0  0.21076  0.378915  0  4.021774  0
C  C155  1  0.21517077  0.01933238  0.07076590  1  0.974599  0  0.21079  0.379138  0  4.021607  0
C  C156  1  0.62249938  0.45342865  0.62675334  1  -0.061897  0  -0.23328  -0.466246  0  3.93953  0
C  C157  1  0.87750133  0.95342858  0.87324712  1  -0.061938  0  -0.233257  -0.466266  0  3.939542  0
C  C158  1  0.37750055  0.54657165  0.37324614  1  -0.061904  0  -0.233298  -0.466277  0  3.939491  0
C  C159  1  0.12249859  0.04657329  0.12675414  1  -0.061884  0  -0.23326  -0.466303  0  3.939463  0
C  C160  1  0.64561072  0.79859154  0.26695449  1  -0.041721  0  -0.241436  -0.414274  0  3.959337  0
C  C161  1  0.85438894  0.29859435  0.23304508  1  -0.041636  0  -0.241424  -0.414247  0  3.959181  0
C  C162  1  0.35439014  0.20140719  0.73304447  1  -0.041707  0  -0.241465  -0.414307  0  3.959272  0
C  C163  1  0.14561099  0.70140595  0.76695500  1  -0.041741  0  -0.241427  -0.41426  0  3.959158  0
C  C164  1  0.70293340  0.90371846  0.28730549  1  -0.058889  0  -0.019296  0.275849  0  4.000064  0
C  C165  1  0.79706931  0.40372195  0.21269371  1  -0.058929  0  -0.019271  0.275806  0  4.000118  0
C  C166  1  0.29706841  0.09627871  0.71269235  1  -0.0589  0  -0.019223  0.275925  0  4.00004  0
C  C167  1  0.20293249  0.59627991  0.78730650  1  -0.058786  0  -0.019245  0.27589  0  3.999852  0
C  C168  1  0.78760810  0.90956640  0.36356851  1  -0.135979  0  -0.255358  -0.426696  0  3.949348  0
C  C169  1  0.71239088  0.40956583  0.13643221  1  -0.136073  0  -0.255368  -0.426641  0  3.949202  0
C  C170  1  0.21239184  0.09043391  0.63642979  1  -0.136096  0  -0.255432  -0.426849  0  3.949413  0
C  C171  1  0.28760624  0.59042978  0.86356887  1  -0.136005  0  -0.255355  -0.426772  0  3.949235  0
C  C172  1  0.67883900  0.98694518  0.23969318  1  -0.12101  0  -0.211552  -0.434887  0  3.821614  0
C  C173  1  0.82116204  0.48694716  0.26030591  1  -0.120546  0  -0.211557  -0.434865  0  3.821691  0
C  C174  1  0.32115908  0.01305512  0.76030263  1  -0.120953  0  -0.21157  -0.434923  0  3.821649  0
C  C175  1  0.17884070  0.51305080  0.73969199  1  -0.121006  0  -0.211576  -0.434945  0  3.821426  0
N  N176  1  0.87502778  0.78189398  0.56570270  1  -1.275512  0  -0.368729  -0.422899  0  3.447028  0
N  N177  1  0.62497347  0.28189098  0.93429720  1  -1.275401  0  -0.368694  -0.422862  0  3.44698  0
N  N178  1  0.12497215  0.21810710  0.43429738  1  -1.27605  0  -0.36868  -0.422849  0  3.446824  0
N  N179  1  0.37502739  0.71810775  0.06570235  1  -1.275675  0  -0.368669  -0.422814  0  3.447043  0
N  N180  1  0.06194661  0.85838651  0.56708930  1  -0.709422  0  -0.242488  -0.28517  0  3.151768  0
N  N181  1  0.43805676  0.35838558  0.93290974  1  -0.70964  0  -0.242549  -0.285214  0  3.151942  0
N  N182  1  0.93805332  0.14161379  0.43291137  1  -0.709692  0  -0.242489  -0.285186  0  3.151712  0
N  N183  1  0.56194504  0.64161316  0.06708928  1  -0.709627  0  -0.242529  -0.285163  0  3.151548  0
N  N184  1  0.04972757  0.78299498  0.50846028  1  -0.823132  0  -0.274694  -0.255883  0  3.592687  0
N  N185  1  0.45027375  0.28299329  0.99153920  1  -0.82336  0  -0.274659  -0.255915  0  3.592655  0
N  N186  1  0.95027235  0.21700611  0.49153980  1  -0.823138  0  -0.274696  -0.255921  0  3.592656  0
N  N187  1  0.54972618  0.71700545  0.00846028  1  -0.823101  0  -0.274677  -0.2559  0  3.592593  0
N  N188  1  0.74197165  0.57904267  0.54810975  1  -1.234113  0  -0.372865  -0.435712  0  3.44655  0
N  N189  1  0.75802820  0.07904145  0.95189002  1  -1.233902  0  -0.37292  -0.435785  0  3.446517  0
N  N190  1  0.25802828  0.42095919  0.45189092  1  -1.233912  0  -0.372891  -0.435756  0  3.446602  0
N  N191  1  0.24197079  0.92095963  0.04810999  1  -1.233877  0  -0.372919  -0.435832  0  3.446473  0
N  N192  1  0.85546338  0.46528650  0.48473612  1  -0.697763  0  -0.24647  -0.282373  0  3.193692  0
N  N193  1  0.64453573  0.96528365  0.01526343  1  -0.697752  0  -0.246432  -0.282264  0  3.193686  0
N  N194  1  0.14453655  0.53471615  0.51526455  1  -0.697734  0  -0.246467  -0.282406  0  3.19369  0
N  N195  1  0.35546419  0.03471587  0.98473724  1  -0.697787  0  -0.246404  -0.282216  0  3.193679  0
N  N196  1  0.78291206  0.41162448  0.53370772  1  -0.835318  0  -0.27545  -0.279234  0  3.570281  0
N  N197  1  0.71708763  0.91162261  0.96629208  1  -0.835077  0  -0.275418  -0.279255  0  3.570286  0
N  N198  1  0.21708973  0.58837738  0.46629308  1  -0.835409  0  -0.275439  -0.279146  0  3.570314  0
N  N199  1  0.28291136  0.08837769  0.03370794  1  -0.835152  0  -0.275438  -0.279318  0  3.570336  0
N  N200  1  0.56074254  0.78436777  0.55578655  1  -0.835721  0  -0.279075  -0.281598  0  3.580201  0
N  N201  1  0.93926151  0.28436840  0.94421413  1  -0.835811  0  -0.279068  -0.28165  0  3.580303  0
N  N202  1  0.43925739  0.21563254  0.44421235  1  -0.835733  0  -0.279042  -0.281517  0  3.580073  0
N  N203  1  0.06073841  0.71563190  0.05578595  1  -0.83564  0  -0.279069  -0.281632  0  3.580266  0
N  N204  1  0.55996749  0.85105635  0.49137387  1  -0.701604  0  -0.241787  -0.277941  0  3.174946  0
N  N205  1  0.94003321  0.35105533  0.00862874  1  -0.701655  0  -0.241752  -0.277946  0  3.174939  0
N  N206  1  0.44003244  0.14894396  0.50862562  1  -0.701544  0  -0.241784  -0.278016  0  3.17488  0
N  N207  1  0.05996765  0.64894340  0.99137199  1  -0.701595  0  -0.241769  -0.277992  0  3.174825  0
N  N208  1  0.36481425  0.79947861  0.50535307  1  -1.238815  0  -0.369646  -0.422703  0  3.446193  0
N  N209  1  0.13518709  0.29947955  0.99464938  1  -1.23894  0  -0.369691  -0.422798  0  3.44627  0
N  N210  1  0.63518474  0.20052169  0.49464695  1  -1.238843  0  -0.369599  -0.422724  0  3.446351  0
N  N211  1  0.86481283  0.70052075  0.00535188  1  -1.238984  0  -0.36967  -0.422793  0  3.446354  0
N  N212  1  0.22307621  0.79157832  0.34780941  1  -1.246551  0  -0.372029  -0.443486  0  3.489786  0
N  N213  1  0.27692629  0.29157942  0.15219113  1  -1.246439  0  -0.371984  -0.443447  0  3.489791  0
N  N214  1  0.77692091  0.20842120  0.65219167  1  -1.246577  0  -0.372043  -0.443522  0  3.489912  0
N  N215  1  0.72307457  0.70842088  0.84780842  1  -1.246453  0  -0.371995  -0.443456  0  3.489742  0
N  N216  1  0.31848693  0.87107609  0.25252126  1  -0.73057  0  -0.248969  -0.28456  0  3.153935  0
N  N217  1  0.18151482  0.37107392  0.24748102  1  -0.73069  0  -0.248861  -0.284422  0  3.154087  0
N  N218  1  0.68151300  0.12892343  0.74747823  1  -0.730591  0  -0.249017  -0.284624  0  3.153966  0
N  N219  1  0.81848417  0.62892638  0.75251959  1  -0.730659  0  -0.248916  -0.284479  0  3.154071  0
N  N220  1  0.23139867  0.80093379  0.21818239  1  -0.829396  0  -0.270865  -0.27247  0  3.567444  0
N  N221  1  0.26860199  0.30093256  0.28181862  1  -0.829315  0  -0.270907  -0.27255  0  3.567595  0
N  N222  1  0.76859939  0.19906572  0.78181816  1  -0.829393  0  -0.270885  -0.272524  0  3.567426  0
N  N223  1  0.73139794  0.69906774  0.71818146  1  -0.829299  0  -0.270901  -0.272538  0  3.567512  0
