# generated using pymatgen
data_Hg3H24C14S2(N5Cl2)2
_symmetry_space_group_name_H-M   'P 1'
_cell_length_a   7.61999570
_cell_length_b   8.87737778
_cell_length_c   18.41570049
_cell_angle_alpha   90.00019384
_cell_angle_beta   90.00018294
_cell_angle_gamma   102.03338426
_symmetry_Int_Tables_number   1
_chemical_formula_structural   Hg3H24C14S2(N5Cl2)2
_chemical_formula_sum   'Hg6 H48 C28 S4 N20 Cl8'
_cell_volume   1218.36720617
_cell_formula_units_Z   2
loop_
 _symmetry_equiv_pos_site_id
 _symmetry_equiv_pos_as_xyz
  1  'x, y, z'
loop_
 _atom_site_type_symbol
 _atom_site_label
 _atom_site_symmetry_multiplicity
 _atom_site_fract_x
 _atom_site_fract_y
 _atom_site_fract_z
 _atom_site_occupancy
 _atom_site_pbe_bader_spin_density
 _atom_site_pbe_cm5_charge
 _atom_site_pbe_ddec_charge
 _atom_site_pbe_ddec_spin_density
 _atom_site_pbe_ddec_sum_bond_order
 _atom_site_pbe_magmom
Hg  Hg0  1  0.50000009  0.49999380  0.50000127  1  0  0.481786  0.498168  0  2.513281  0
Hg  Hg1  1  0.00000675  0.00000095  0.99999943  1  0  0.481803  0.498207  0  2.513434  0
Hg  Hg2  1  0.62954477  0.04033743  0.24441255  1  0  0.560786  0.638968  0  2.425013  0
Hg  Hg3  1  0.87046056  0.45965754  0.74441466  1  0  0.560789  0.638955  0  2.424905  0
Hg  Hg4  1  0.37045340  0.95966396  0.75558510  1  0  0.560821  0.639045  0  2.424898  0
Hg  Hg5  1  0.12954546  0.54033815  0.25558570  1  0  0.560789  0.638936  0  2.425011  0
H  H6  1  0.55218780  0.71398261  0.33906163  1  0  0.099383  0.080603  0  1.038699  0
H  H7  1  0.94781309  0.78601235  0.83906357  1  0  0.099401  0.080641  0  1.038862  0
H  H8  1  0.44781299  0.28601880  0.66093819  1  0  0.099377  0.08061  0  1.038652  0
H  H9  1  0.05218795  0.21398446  0.16093625  1  0  0.099438  0.080705  0  1.038854  0
H  H10  1  0.58033627  0.85812741  0.40816204  1  0  0.109795  0.084242  0  1.017129  0
H  H11  1  0.91966638  0.64187276  0.90816316  1  0  0.109771  0.084179  0  1.017156  0
H  H12  1  0.41966268  0.14187168  0.59183778  1  0  0.109797  0.084236  0  1.017133  0
H  H13  1  0.08033256  0.35812634  0.09183666  1  0  0.109778  0.084209  0  1.017122  0
H  H14  1  0.90390287  0.52944135  0.40903407  1  0  0.10848  0.084654  0  1.008593  0
H  H15  1  0.59610165  0.97056114  0.90903313  1  0  0.108475  0.084684  0  1.008541  0
H  H16  1  0.09609608  0.47055774  0.59096575  1  0  0.108482  0.084642  0  1.008631  0
H  H17  1  0.40389888  0.02943912  0.09096723  1  0  0.108488  0.084684  0  1.008548  0
H  H18  1  0.73839935  0.52358078  0.34011233  1  0  0.108273  0.089042  0  0.99819  0
H  H19  1  0.76160155  0.97641418  0.84011216  1  0  0.108243  0.08905  0  0.998243  0
H  H20  1  0.26160195  0.47641718  0.65988695  1  0  0.108277  0.089051  0  0.998242  0
H  H21  1  0.23839898  0.02358607  0.15988929  1  0  0.108261  0.089048  0  0.998235  0
H  H22  1  0.93854595  0.72405403  0.50261799  1  0  0.109804  0.085915  0  0.991376  0
H  H23  1  0.56145935  0.77595412  0.00261725  1  0  0.109789  0.085918  0  0.99138  0
H  H24  1  0.06145616  0.27594738  0.49738075  1  0  0.109803  0.085916  0  0.991371  0
H  H25  1  0.43854172  0.22404844  0.99738203  1  0  0.109796  0.085914  0  0.991365  0
H  H26  1  0.80309906  0.86589835  0.50147877  1  0  0.115036  0.086239  0  1.00189  0
H  H27  1  0.69689939  0.63410860  0.00147798  1  0  0.115056  0.086254  0  1.001932  0
H  H28  1  0.19690252  0.13410077  0.49852051  1  0  0.115019  0.086206  0  1.001915  0
H  H29  1  0.30309747  0.36589278  0.99852076  1  0  0.115042  0.086227  0  1.001889  0
H  H30  1  0.78192934  0.72308140  0.24673568  1  0  0.115074  0.096703  0  0.987895  0
H  H31  1  0.71807118  0.77691505  0.74673675  1  0  0.115091  0.096698  0  0.987913  0
H  H32  1  0.21807223  0.27691771  0.75326577  1  0  0.115096  0.096785  0  0.987879  0
H  H33  1  0.28192935  0.22308521  0.25326361  1  0  0.115091  0.096708  0  0.987896  0
H  H34  1  0.97834240  0.87238306  0.24856589  1  0  0.113967  0.092231  0  0.986059  0
H  H35  1  0.52165682  0.62761340  0.74856538  1  0  0.113949  0.092172  0  0.986012  0
H  H36  1  0.02165206  0.12761370  0.75143664  1  0  0.114001  0.092275  0  0.985947  0
H  H37  1  0.47834266  0.37238800  0.25143390  1  0  0.113934  0.092158  0  0.986022  0
H  H38  1  0.84637273  0.06127198  0.41046287  1  0  0.111579  0.0856  0  1.004927  0
H  H39  1  0.65362982  0.43873361  0.91046629  1  0  0.111581  0.085578  0  1.004967  0
H  H40  1  0.15362780  0.93872828  0.58953695  1  0  0.111579  0.085603  0  1.004951  0
H  H41  1  0.34636970  0.56127353  0.08953407  1  0  0.111577  0.085617  0  1.004886  0
H  H42  1  0.01596775  0.06846129  0.34303236  1  0  0.112261  0.093942  0  0.987768  0
H  H43  1  0.48403205  0.43153665  0.84303404  1  0  0.112259  0.093962  0  0.98775  0
H  H44  1  0.98402857  0.93153779  0.65696692  1  0  0.112264  0.093973  0  0.987726  0
H  H45  1  0.51596952  0.56846246  0.15696632  1  0  0.112266  0.09395  0  0.987766  0
H  H46  1  0.19964238  0.87997876  0.34300056  1  0  0.107321  0.089854  0  1.027321  0
H  H47  1  0.30035974  0.62002874  0.84300149  1  0  0.107328  0.089876  0  1.027367  0
H  H48  1  0.80036000  0.12002381  0.65699817  1  0  0.107323  0.089878  0  1.02734  0
H  H49  1  0.69963739  0.37997380  0.15699779  1  0  0.107316  0.089892  0  1.027377  0
H  H50  1  0.16697780  0.73168830  0.41018494  1  0  0.099223  0.08175  0  1.039426  0
H  H51  1  0.33302390  0.76831518  0.91018290  1  0  0.099238  0.081823  0  1.039365  0
H  H52  1  0.83302458  0.26831426  0.58981488  1  0  0.099247  0.081823  0  1.039354  0
H  H53  1  0.66697585  0.23168737  0.08981475  1  0  0.099247  0.081845  0  1.039347  0
C  C54  1  0.65033035  0.78816685  0.37408187  1  0  0.006553  -0.013433  0  3.856673  0
C  C55  1  0.84967517  0.71184109  0.87408030  1  0  0.006587  -0.013375  0  3.856705  0
C  C56  1  0.34966886  0.21183340  0.62591903  1  0  0.006564  -0.013422  0  3.856624  0
C  C57  1  0.15032509  0.28815801  0.12592061  1  0  0.006511  -0.01345  0  3.856695  0
C  C58  1  0.83470829  0.60007034  0.37491971  1  0  0.007254  -0.018558  0  3.885011  0
C  C59  1  0.66529875  0.89992727  0.87491658  1  0  0.007289  -0.018604  0  3.885059  0
C  C60  1  0.16529355  0.39992992  0.62508065  1  0  0.007244  -0.018618  0  3.885122  0
C  C61  1  0.33470178  0.10007299  0.12508216  1  0  0.007244  -0.0186  0  3.885096  0
C  C62  1  0.87281434  0.79548748  0.46743878  1  0  0.014966  -0.001448  0  3.873713  0
C  C63  1  0.62718630  0.70451894  0.96743907  1  0  0.014988  -0.001506  0  3.873864  0
C  C64  1  0.12718697  0.20451048  0.53256050  1  0  0.01502  -0.001372  0  3.873656  0
C  C65  1  0.37281476  0.29548362  0.03256020  1  0  0.01498  -0.001403  0  3.873661  0
C  C66  1  0.87851847  0.79694277  0.28238365  1  0  0.012364  -0.012443  0  3.857588  0
C  C67  1  0.62148426  0.70305630  0.78238556  1  0  0.012371  -0.01234  0  3.857552  0
C  C68  1  0.12148179  0.20305633  0.71761780  1  0  0.012353  -0.012577  0  3.857681  0
C  C69  1  0.37851550  0.29694625  0.21761535  1  0  0.012406  -0.012307  0  3.857596  0
C  C70  1  0.91744528  0.99144411  0.37671204  1  0  0.016236  0.0022  0  3.853801  0
C  C71  1  0.58255524  0.50855922  0.87671195  1  0  0.016276  0.002221  0  3.853777  0
C  C72  1  0.08255710  0.00855845  0.62328778  1  0  0.016218  0.002083  0  3.853889  0
C  C73  1  0.41744583  0.49144334  0.12328787  1  0  0.016216  0.002122  0  3.85388  0
C  C74  1  0.09969131  0.80459515  0.37680149  1  0  0.007203  -0.016863  0  3.875072  0
C  C75  1  0.40031400  0.69540806  0.87680158  1  0  0.007167  -0.017005  0  3.875227  0
C  C76  1  0.90031316  0.19540513  0.62319779  1  0  0.007223  -0.016952  0  3.875117  0
C  C77  1  0.59968548  0.30459333  0.12319824  1  0  0.0072  -0.016997  0  3.875206  0
C  C78  1  0.52771417  0.17497975  0.40298435  1  0  0.142177  0.237146  0  4.251259  0
C  C79  1  0.97228531  0.32500736  0.90298149  1  0  0.142166  0.237065  0  4.251319  0
C  C80  1  0.47227389  0.82500088  0.59701765  1  0  0.142144  0.237059  0  4.251211  0
C  C81  1  0.02771472  0.67499634  0.09701887  1  0  0.14216  0.237165  0  4.251059  0
S  S82  1  0.63811702  0.26124953  0.47297423  1  0  -0.091398  -0.190715  0  2.648886  0
S  S83  1  0.86189130  0.23873939  0.97297271  1  0  -0.091391  -0.190659  0  2.648942  0
S  S84  1  0.36187714  0.73874033  0.52702342  1  0  -0.091336  -0.190571  0  2.648915  0
S  S85  1  0.13810367  0.76125393  0.02702385  1  0  -0.091353  -0.190652  0  2.649003  0
N  N86  1  0.78353213  0.89220758  0.32794967  1  0  -0.313389  -0.132504  0  3.387074  0
N  N87  1  0.71646683  0.60779072  0.82795047  1  0  -0.313427  -0.132549  0  3.387084  0
N  N88  1  0.21646681  0.10779151  0.67205123  1  0  -0.313427  -0.132458  0  3.387195  0
N  N89  1  0.28353397  0.39221069  0.17204881  1  0  -0.313399  -0.1325  0  3.387041  0
N  N90  1  0.74002277  0.69264384  0.42085933  1  0  -0.327682  -0.154244  0  3.435788  0
N  N91  1  0.75997791  0.80735872  0.92085888  1  0  -0.327738  -0.154214  0  3.435904  0
N  N92  1  0.25997485  0.30735524  0.57914157  1  0  -0.32773  -0.154197  0  3.435858  0
N  N93  1  0.24002157  0.19264267  0.07914040  1  0  -0.32767  -0.154251  0  3.435907  0
N  N94  1  0.96973142  0.70097539  0.32861755  1  0  -0.316512  -0.124132  0  3.40556  0
N  N95  1  0.53026836  0.79902637  0.82861624  1  0  -0.316535  -0.12425  0  3.405766  0
N  N96  1  0.03027015  0.29902372  0.67138282  1  0  -0.316489  -0.124112  0  3.405669  0
N  N97  1  0.46972850  0.20097501  0.17138413  1  0  -0.316535  -0.124231  0  3.405829  0
N  N98  1  0.00698324  0.89694343  0.42277803  1  0  -0.33596  -0.168517  0  3.407028  0
N  N99  1  0.49302176  0.60306248  0.92277755  1  0  -0.335992  -0.168487  0  3.407044  0
N  N100  1  0.99301938  0.10305453  0.57722233  1  0  -0.335992  -0.168519  0  3.407084  0
N  N101  1  0.50697854  0.39694238  0.07722335  1  0  -0.335952  -0.168471  0  3.406986  0
N  N102  1  0.45316792  0.10572675  0.35296768  1  0  -0.35428  -0.417434  0  3.013363  0
N  N103  1  0.04682594  0.39427354  0.85297035  1  0  -0.354271  -0.417369  0  3.013388  0
N  N104  1  0.54682994  0.89426774  0.64703051  1  0  -0.354304  -0.417459  0  3.013152  0
N  N105  1  0.95317566  0.60573132  0.14703436  1  0  -0.354298  -0.417484  0  3.013126  0
Cl  Cl106  1  0.27381729  0.46149715  0.38127631  1  0  -0.308502  -0.473091  0  1.22494  0
Cl  Cl107  1  0.22618107  0.03850456  0.88127700  1  0  -0.308497  -0.473104  0  1.224969  0
Cl  Cl108  1  0.72618007  0.53850078  0.61872297  1  0  -0.30851  -0.473106  0  1.224937  0
Cl  Cl109  1  0.77382158  0.96149916  0.11872390  1  0  -0.308515  -0.473121  0  1.224944  0
Cl  Cl110  1  0.87260252  0.29138541  0.27553418  1  0  -0.270917  -0.454807  0  1.395674  0
Cl  Cl111  1  0.62739446  0.20861207  0.77553883  1  0  -0.270913  -0.45482  0  1.395687  0
Cl  Cl112  1  0.12739670  0.70861484  0.72446618  1  0  -0.270904  -0.454789  0  1.395668  0
Cl  Cl113  1  0.37260843  0.79138705  0.22446317  1  0  -0.270916  -0.454808  0  1.395688  0
