# generated using pymatgen
data_CdH12C16(NO2)2
_symmetry_space_group_name_H-M   'P 1'
_cell_length_a   12.27093959
_cell_length_b   13.32792965
_cell_length_c   13.98742185
_cell_angle_alpha   90.00009163
_cell_angle_beta   89.99988854
_cell_angle_gamma   89.99999443
_symmetry_Int_Tables_number   1
_chemical_formula_structural   CdH12C16(NO2)2
_chemical_formula_sum   'Cd4 H48 C64 N8 O16'
_cell_volume   2287.58996507
_cell_formula_units_Z   4
loop_
 _symmetry_equiv_pos_site_id
 _symmetry_equiv_pos_as_xyz
  1  'x, y, z'
loop_
 _atom_site_type_symbol
 _atom_site_label
 _atom_site_symmetry_multiplicity
 _atom_site_fract_x
 _atom_site_fract_y
 _atom_site_fract_z
 _atom_site_occupancy
 _atom_site_pbe_bader_charge
 _atom_site_pbe_bader_spin_density
 _atom_site_pbe_cm5_charge
 _atom_site_pbe_ddec_charge
 _atom_site_pbe_ddec_spin_density
 _atom_site_pbe_ddec_sum_bond_order
 _atom_site_pbe_magmom
Cd  Cd0  1  0.27930838  0.24999915  0.99999982  1  1.225192  0  0.756037  0.807511  0  2.211123  0
Cd  Cd1  1  0.77930729  0.74999984  0.49999984  1  1.225192  0  0.756012  0.807483  0  2.211113  0
Cd  Cd2  1  0.22069321  0.25000023  0.49999994  1  1.225188  0  0.756038  0.807521  0  2.211092  0
Cd  Cd3  1  0.72069183  0.75000027  0.99999982  1  1.225177  0  0.756012  0.807458  0  2.211185  0
H  H4  1  0.03042217  0.52076362  0.08012664  1  0.125361  0  0.10699  0.129012  0  1.021604  0
H  H5  1  0.15787269  0.44508509  0.25667295  1  0.108015  0  0.104443  0.111068  0  1.04007  0
H  H6  1  0.93520364  0.62721604  0.16440238  1  0.171982  0  0.113525  0.140057  0  1.020043  0
H  H7  1  0.83189439  0.73499282  0.27793670  1  0.116985  0  0.117831  0.093608  0  1.024588  0
H  H8  1  0.00076299  0.62463683  0.51172809  1  0.059739  0  0.114882  0.08072  0  0.999296  0
H  H9  1  0.11698486  0.51496104  0.40759006  1  0.085533  0  0.109534  0.120611  0  1.00842  0
H  H10  1  0.03042121  0.97923538  0.91987431  1  0.12533  0  0.106993  0.129001  0  1.021609  0
H  H11  1  0.15787217  0.05491387  0.74332774  1  0.108025  0  0.104447  0.111058  0  1.040102  0
H  H12  1  0.93520370  0.87278438  0.83559703  1  0.172043  0  0.113545  0.140072  0  1.02007  0
H  H13  1  0.83189389  0.76500686  0.72206432  1  0.116642  0  0.117841  0.093638  0  1.024576  0
H  H14  1  0.00076301  0.87536292  0.48827220  1  0.05974  0  0.114884  0.080721  0  0.999296  0
H  H15  1  0.11698544  0.98503871  0.59240932  1  0.08553  0  0.10952  0.12057  0  1.00839  0
H  H16  1  0.53042102  0.02076424  0.41987322  1  0.125339  0  0.106992  0.129031  0  1.021605  0
H  H17  1  0.65787351  0.94508620  0.24332734  1  0.106318  0  0.104453  0.111079  0  1.040069  0
H  H18  1  0.43520346  0.12721582  0.33559695  1  0.171986  0  0.113525  0.140056  0  1.020066  0
H  H19  1  0.33189446  0.23499316  0.22206441  1  0.116655  0  0.117847  0.093642  0  1.024573  0
H  H20  1  0.50076251  0.12463682  0.98827186  1  0.059729  0  0.11488  0.080719  0  0.999306  0
H  H21  1  0.61698607  0.01496111  0.09240894  1  0.08551  0  0.109526  0.120593  0  1.008407  0
H  H22  1  0.53042163  0.47923619  0.58012683  1  0.125346  0  0.106992  0.12902  0  1.02164  0
H  H23  1  0.65787378  0.55491425  0.75667183  1  0.108086  0  0.104451  0.111084  0  1.040076  0
H  H24  1  0.43520390  0.37278387  0.66440327  1  0.171999  0  0.113555  0.140084  0  1.020057  0
H  H25  1  0.33189628  0.26500729  0.77793670  1  0.116995  0  0.117839  0.093648  0  1.024571  0
H  H26  1  0.50076276  0.37536361  0.01172825  1  0.059734  0  0.114891  0.080725  0  0.9993  0
H  H27  1  0.61698514  0.48503931  0.90759097  1  0.085515  0  0.109541  0.120616  0  1.00842  0
H  H28  1  0.46957948  0.97923583  0.58012655  1  0.125337  0  0.107  0.12903  0  1.021603  0
H  H29  1  0.34212699  0.05491388  0.75667315  1  0.106243  0  0.104442  0.111045  0  1.040105  0
H  H30  1  0.56479623  0.87278425  0.66440282  1  0.171982  0  0.113551  0.140089  0  1.020051  0
H  H31  1  0.66810605  0.76500766  0.77793608  1  0.116976  0  0.117845  0.093654  0  1.024584  0
H  H32  1  0.49923718  0.87536325  0.01172792  1  0.059733  0  0.114885  0.080728  0  0.999303  0
H  H33  1  0.38301444  0.98503896  0.90759084  1  0.085522  0  0.109515  0.120569  0  1.00838  0
H  H34  1  0.46957887  0.52076389  0.41987365  1  0.125346  0  0.107  0.129031  0  1.021582  0
H  H35  1  0.34212673  0.44508582  0.24332652  1  0.106242  0  0.104473  0.111117  0  1.040065  0
H  H36  1  0.56479661  0.62721545  0.33559722  1  0.172047  0  0.113543  0.140079  0  1.02007  0
H  H37  1  0.66810585  0.73499278  0.22206450  1  0.116639  0  0.117822  0.093618  0  1.02458  0
H  H38  1  0.49923774  0.62463721  0.98827152  1  0.059732  0  0.114872  0.080722  0  0.99931  0
H  H39  1  0.38301537  0.51496076  0.09240880  1  0.085526  0  0.109536  0.120624  0  1.008394  0
H  H40  1  0.96957752  0.47923570  0.91987384  1  0.125355  0  0.107001  0.129035  0  1.02161  0
H  H41  1  0.84212619  0.55491423  0.74332754  1  0.106318  0  0.104454  0.111087  0  1.040074  0
H  H42  1  0.06479686  0.37278403  0.83559667  1  0.172  0  0.113548  0.140083  0  1.020055  0
H  H43  1  0.16810530  0.26500725  0.72206379  1  0.116646  0  0.117831  0.093615  0  1.024583  0
H  H44  1  0.99923751  0.37536324  0.48827169  1  0.059734  0  0.114877  0.080714  0  0.999309  0
H  H45  1  0.88301483  0.48503828  0.59240900  1  0.085527  0  0.109525  0.120602  0  1.008434  0
H  H46  1  0.96957848  0.02076394  0.08012618  1  0.125354  0  0.106997  0.129033  0  1.021606  0
H  H47  1  0.84212752  0.94508620  0.25667275  1  0.108015  0  0.104462  0.1111  0  1.040075  0
H  H48  1  0.06479681  0.12721644  0.16440275  1  0.17198  0  0.113543  0.140081  0  1.020063  0
H  H49  1  0.16810580  0.23499321  0.27793617  1  0.116974  0  0.117847  0.093651  0  1.024556  0
H  H50  1  0.99923668  0.12463640  0.51172757  1  0.059737  0  0.114892  0.080726  0  0.999317  0
H  H51  1  0.88301424  0.01496137  0.40759045  1  0.085522  0  0.109529  0.120593  0  1.008444  0
C  C52  1  0.15656737  0.40304840  0.07300076  1  1.520141  0  0.182703  0.593253  0  4.233951  0
C  C53  1  0.08901503  0.47884416  0.12326889  1  -0.017936  0  -0.084083  -0.197896  0  3.859711  0
C  C54  1  0.09852601  0.49147636  0.21850446  1  -0.080292  0  -0.0772  -0.089968  0  3.947089  0
C  C55  1  0.03472887  0.55999568  0.27716727  1  -0.01104  0  0.013977  0.156946  0  3.999516  0
C  C56  1  0.95370010  0.62428692  0.24064872  1  -0.024064  0  -0.072967  -0.15895  0  3.869766  0
C  C57  1  0.89455541  0.68356625  0.30346669  1  0.469283  0  0.046475  0.093734  0  3.947334  0
C  C58  1  0.98957571  0.62277297  0.43431698  1  0.498894  0  0.04006  0.081354  0  4.003176  0
C  C59  1  0.05343067  0.56196532  0.37645861  1  -0.05239  0  -0.081918  -0.177621  0  3.929263  0
C  C60  1  0.15656481  0.09695132  0.92699922  1  1.5202  0  0.182642  0.593101  0  4.234001  0
C  C61  1  0.08901422  0.02115481  0.87673049  1  -0.017879  0  -0.08407  -0.19782  0  3.859726  0
C  C62  1  0.09852623  0.00852336  0.78149562  1  -0.080304  0  -0.077182  -0.089936  0  3.94709  0
C  C63  1  0.03472917  0.94000332  0.72283225  1  -0.011188  0  0.014012  0.156985  0  3.999467  0
C  C64  1  0.95369951  0.87571275  0.75935208  1  -0.024132  0  -0.07297  -0.158949  0  3.869762  0
C  C65  1  0.89455579  0.81643343  0.69653351  1  0.469291  0  0.046443  0.093679  0  3.947288  0
C  C66  1  0.98957636  0.87722670  0.56568305  1  0.498938  0  0.040064  0.081356  0  4.003226  0
C  C67  1  0.05343038  0.93803444  0.62354088  1  -0.052283  0  -0.081916  -0.177593  0  3.929203  0
C  C68  1  0.65656534  0.90304831  0.42699876  1  1.52035  0  0.182656  0.593162  0  4.234098  0
C  C69  1  0.58901474  0.97884474  0.37673228  1  -0.017833  0  -0.084116  -0.197971  0  3.859752  0
C  C70  1  0.59852593  0.99147453  0.28149601  1  -0.080478  0  -0.077181  -0.089911  0  3.946998  0
C  C71  1  0.53472897  0.05999523  0.22283265  1  -0.011182  0  0.014  0.156975  0  3.999424  0
C  C72  1  0.45370009  0.12428657  0.25935129  1  -0.024077  0  -0.072956  -0.158946  0  3.869779  0
C  C73  1  0.39455636  0.18356579  0.19653352  1  0.469295  0  0.046455  0.0937  0  3.947279  0
C  C74  1  0.48957612  0.12277304  0.06568226  1  0.498944  0  0.040089  0.081373  0  4.003136  0
C  C75  1  0.55343099  0.06196469  0.12354057  1  -0.052276  0  -0.081935  -0.177636  0  3.929189  0
C  C76  1  0.65656601  0.59695213  0.57300041  1  1.520181  0  0.182636  0.593166  0  4.233975  0
C  C77  1  0.58901449  0.52115571  0.62326772  1  -0.017847  0  -0.084104  -0.197927  0  3.859742  0
C  C78  1  0.59852629  0.50852517  0.71850326  1  -0.08047  0  -0.077191  -0.089949  0  3.947015  0
C  C79  1  0.53472997  0.44000445  0.77716740  1  -0.011192  0  0.013992  0.156966  0  3.999469  0
C  C80  1  0.45370117  0.37571312  0.74064818  1  -0.024066  0  -0.072977  -0.158944  0  3.869766  0
C  C81  1  0.39455568  0.31643315  0.80346605  1  0.469279  0  0.04645  0.093674  0  3.947234  0
C  C82  1  0.48957678  0.37722740  0.93431715  1  0.498877  0  0.04007  0.081372  0  4.003143  0
C  C83  1  0.55343095  0.43803574  0.87645873  1  -0.052222  0  -0.081941  -0.177644  0  3.929244  0
C  C84  1  0.34343435  0.09695176  0.57300102  1  1.520199  0  0.182653  0.593075  0  4.234017  0
C  C85  1  0.41098577  0.02115533  0.62326964  1  -0.017859  0  -0.084088  -0.197884  0  3.859699  0
C  C86  1  0.40147376  0.00852404  0.71850520  1  -0.080307  0  -0.077183  -0.08991  0  3.94706  0
C  C87  1  0.46527072  0.94000409  0.77716784  1  -0.011199  0  0.014001  0.156971  0  3.999491  0
C  C88  1  0.54630041  0.87571350  0.74064848  1  -0.024077  0  -0.072964  -0.158943  0  3.869797  0
C  C89  1  0.60544415  0.81643428  0.80346625  1  0.469284  0  0.046414  0.093614  0  3.947381  0
C  C90  1  0.51042357  0.87722703  0.93431751  1  0.498941  0  0.040085  0.081359  0  4.003155  0
C  C91  1  0.44656951  0.93803463  0.87645920  1  -0.05229  0  -0.081931  -0.177612  0  3.929176  0
C  C92  1  0.34343449  0.40304869  0.42699864  1  1.520247  0  0.182644  0.593181  0  4.233906  0
C  C93  1  0.41098439  0.47884511  0.37673062  1  -0.017859  0  -0.08409  -0.197883  0  3.859705  0
C  C94  1  0.40147340  0.49147715  0.28149436  1  -0.080301  0  -0.07725  -0.090048  0  3.947115  0
C  C95  1  0.46527135  0.55999562  0.22283237  1  -0.011214  0  0.01401  0.157008  0  3.999485  0
C  C96  1  0.54630015  0.62428695  0.25935159  1  -0.02413  0  -0.072962  -0.158945  0  3.869807  0
C  C97  1  0.60544401  0.68356617  0.19653372  1  0.469285  0  0.046441  0.093663  0  3.947335  0
C  C98  1  0.51042454  0.62277268  0.06568262  1  0.498882  0  0.040084  0.081346  0  4.003289  0
C  C99  1  0.44657036  0.56196433  0.12354104  1  -0.052208  0  -0.081928  -0.177666  0  3.929277  0
C  C100  1  0.84343313  0.59695092  0.92700044  1  1.520268  0  0.182646  0.593158  0  4.234049  0
C  C101  1  0.91098466  0.52115516  0.87673159  1  -0.017962  0  -0.084075  -0.197894  0  3.859712  0
C  C102  1  0.90147286  0.50852371  0.78149603  1  -0.080357  0  -0.077211  -0.089973  0  3.947068  0
C  C103  1  0.96527082  0.44000439  0.72283250  1  -0.011202  0  0.013982  0.15694  0  3.999505  0
C  C104  1  0.04629959  0.37571391  0.75935176  1  -0.02407  0  -0.072951  -0.158903  0  3.869751  0
C  C105  1  0.10544428  0.31643382  0.69653309  1  0.469305  0  0.046433  0.093631  0  3.947348  0
C  C106  1  0.01042398  0.37722711  0.56568279  1  0.49889  0  0.040075  0.081356  0  4.003162  0
C  C107  1  0.94656902  0.43803476  0.62354117  1  -0.052224  0  -0.081923  -0.177634  0  3.929295  0
C  C108  1  0.84343406  0.90304801  0.07300055  1  1.520122  0  0.182642  0.593152  0  4.233969  0
C  C109  1  0.91098466  0.97884451  0.12326929  1  -0.017861  0  -0.084075  -0.197884  0  3.859745  0
C  C110  1  0.90147346  0.99147671  0.21850487  1  -0.080304  0  -0.07723  -0.090017  0  3.947149  0
C  C111  1  0.96527133  0.05999600  0.27716753  1  -0.011205  0  0.014001  0.156976  0  3.999514  0
C  C112  1  0.04630017  0.12428657  0.24064841  1  -0.024083  0  -0.07297  -0.158961  0  3.869821  0
C  C113  1  0.10544390  0.18356590  0.30346627  1  0.469294  0  0.04643  0.09366  0  3.947307  0
C  C114  1  0.01042414  0.12277262  0.43431743  1  0.498877  0  0.040038  0.081305  0  4.003212  0
C  C115  1  0.94656931  0.06196489  0.37645889  1  -0.052219  0  -0.081912  -0.177593  0  3.929259  0
N  N116  1  0.91033405  0.68180912  0.39898749  1  -1.250566  0  -0.338079  -0.254128  0  3.536256  0
N  N117  1  0.91033463  0.81819056  0.60101267  1  -1.250551  0  -0.338092  -0.254154  0  3.536283  0
N  N118  1  0.41033439  0.18180850  0.10101268  1  -1.250536  0  -0.338115  -0.254158  0  3.536233  0
N  N119  1  0.41033513  0.31819119  0.89898758  1  -1.250523  0  -0.338105  -0.254176  0  3.536203  0
N  N120  1  0.58966530  0.81819082  0.89898709  1  -1.250527  0  -0.338085  -0.254111  0  3.536254  0
N  N121  1  0.58966537  0.68180888  0.10101291  1  -1.250535  0  -0.338073  -0.254086  0  3.5363  0
N  N122  1  0.08966645  0.31819021  0.60101228  1  -1.250566  0  -0.338083  -0.254084  0  3.536243  0
N  N123  1  0.08966587  0.18180876  0.39898781  1  -1.25054  0  -0.338074  -0.254099  0  3.536223  0
O  O124  1  0.23190711  0.35771657  0.12061344  1  -1.165972  0  -0.340712  -0.56619  0  2.208554  0
O  O125  1  0.13785875  0.38427356  0.98531185  1  -1.165225  0  -0.333473  -0.55936  0  2.113199  0
O  O126  1  0.23190547  0.14228314  0.87938427  1  -1.165929  0  -0.340693  -0.566135  0  2.208425  0
O  O127  1  0.13785739  0.11572691  0.01468745  1  -1.165335  0  -0.333466  -0.559335  0  2.113317  0
O  O128  1  0.73190518  0.85771715  0.37938445  1  -1.165942  0  -0.340696  -0.56615  0  2.208484  0
O  O129  1  0.63785681  0.88427278  0.51468683  1  -1.165436  0  -0.333441  -0.55931  0  2.113345  0
O  O130  1  0.73190574  0.64228329  0.62061602  1  -1.165903  0  -0.340696  -0.566156  0  2.20843  0
O  O131  1  0.63785768  0.61572917  0.48531309  1  -1.165332  0  -0.333424  -0.559317  0  2.113294  0
O  O132  1  0.26809450  0.14228367  0.62061604  1  -1.165946  0  -0.340705  -0.566125  0  2.208431  0
O  O133  1  0.36214206  0.11572654  0.48531295  1  -1.165324  0  -0.333454  -0.559302  0  2.113315  0
O  O134  1  0.26809395  0.35771678  0.37938375  1  -1.165903  0  -0.340703  -0.566186  0  2.208421  0
O  O135  1  0.36214201  0.38427090  0.51468668  1  -1.165436  0  -0.333424  -0.559322  0  2.113216  0
O  O136  1  0.76809258  0.64228276  0.87938634  1  -1.165956  0  -0.340693  -0.566148  0  2.208551  0
O  O137  1  0.86214094  0.61572651  0.01468793  1  -1.165355  0  -0.333454  -0.559331  0  2.113279  0
O  O138  1  0.76809422  0.85771693  0.12061550  1  -1.165897  0  -0.34069  -0.566135  0  2.208432  0
O  O139  1  0.86214148  0.88427091  0.98531304  1  -1.165325  0  -0.333437  -0.559315  0  2.113263  0
