# generated using pymatgen
data_CuSiH16C24N8(O4F3)2
_symmetry_space_group_name_H-M   'P 1'
_cell_length_a   7.84182397
_cell_length_b   13.48861011
_cell_length_c   13.48922964
_cell_angle_alpha   89.49309471
_cell_angle_beta   83.00198301
_cell_angle_gamma   83.00525327
_symmetry_Int_Tables_number   1
_chemical_formula_structural   CuSiH16C24N8(O4F3)2
_chemical_formula_sum   'Cu1 Si1 H16 C24 N8 O8 F6'
_cell_volume   1405.63176728
_cell_formula_units_Z   1
loop_
 _symmetry_equiv_pos_site_id
 _symmetry_equiv_pos_as_xyz
  1  'x, y, z'
loop_
 _atom_site_type_symbol
 _atom_site_label
 _atom_site_symmetry_multiplicity
 _atom_site_fract_x
 _atom_site_fract_y
 _atom_site_fract_z
 _atom_site_occupancy
 _atom_site_pbe_bader_charge
 _atom_site_pbe_bader_spin_density
 _atom_site_pbe_cm5_charge
 _atom_site_pbe_ddec_charge
 _atom_site_pbe_ddec_spin_density
 _atom_site_pbe_ddec_sum_bond_order
 _atom_site_pbe_magmom
Cu  Cu0  1  0.49999468  0.49804467  0.50198152  1  1.112993  -0.5788  0.802174  0.704068  -0.740534  2.380116  -0.575
Si  Si1  1  0.99998836  0.49810962  0.50192214  1  3.224862  0.000229  0.247606  1.733203  0.000497  3.947821  0.0
H  H2  1  0.27066039  0.56913708  0.35240981  1  0.208591  -0.002149  0.123109  0.114469  -0.001016  1.031485  -0.002
H  H3  1  0.28371905  0.58202756  0.17080633  1  0.101124  -0.00094  0.120148  0.13118  -0.000479  1.006535  -0.001
H  H4  1  0.81003897  0.43055201  0.14995622  1  0.097668  -0.001102  0.12008  0.131573  -0.000566  0.989033  -0.001
H  H5  1  0.77970292  0.43302422  0.33473723  1  0.186719  -0.002275  0.128635  0.118718  -0.001091  1.000188  -0.002
H  H6  1  0.21494846  0.43295183  0.85280172  1  0.113804  -0.001108  0.119773  0.130884  -0.000575  0.99117  -0.001
H  H7  1  0.68112742  0.58067876  0.83425520  1  0.126035  -0.000924  0.119389  0.129625  -0.00048  1.004497  -0.001
H  H8  1  0.70059606  0.56786889  0.65235659  1  0.207325  -0.00212  0.121332  0.115507  -0.00099  1.039121  -0.002
H  H9  1  0.24399494  0.43544716  0.66800442  1  0.173861  -0.002235  0.127759  0.119137  -0.00105  1.004078  -0.002
H  H10  1  0.29936074  0.34768165  0.43219348  1  0.206408  -0.002123  0.121322  0.115456  -0.000991  1.03946  -0.002
H  H11  1  0.31879892  0.16578624  0.41928469  1  0.125963  -0.000923  0.119404  0.129564  -0.00048  1.004496  -0.001
H  H12  1  0.78505076  0.14722296  0.56697620  1  0.113576  -0.001109  0.119754  0.130732  -0.000575  0.991384  -0.001
H  H13  1  0.75596087  0.33201694  0.56456146  1  0.173436  -0.002237  0.12771  0.119062  -0.00105  1.004217  -0.002
H  H14  1  0.18998208  0.85007804  0.56938282  1  0.097843  -0.001101  0.120152  0.131582  -0.000566  0.989043  -0.001
H  H15  1  0.71622173  0.82921066  0.41793839  1  0.100853  -0.00094  0.120149  0.131056  -0.000478  1.006648  -0.001
H  H16  1  0.72935246  0.64760153  0.43084033  1  0.208501  -0.002151  0.123194  0.114611  -0.001017  1.031331  -0.002
H  H17  1  0.22021163  0.66531038  0.56697292  1  0.186811  -0.002278  0.128572  0.118631  -0.001092  0.999956  -0.002
C  C18  1  0.38873709  0.54026829  0.30485595  1  0.456703  0.001353  0.060335  0.107146  0.00176  3.887103  0.001
C  C19  1  0.39584666  0.54449087  0.20163404  1  0.014149  -0.00618  -0.072645  -0.145962  -0.004112  3.88584  -0.005
C  C20  1  0.54649316  0.50299617  0.14184289  1  0.062642  0.00367  0.011783  0.098779  0.004098  4.01922  0.002
C  C21  1  0.68753909  0.46246172  0.19084105  1  -0.005376  -0.006349  -0.072104  -0.15157  -0.004165  3.883666  -0.005
C  C22  1  0.67178684  0.46225704  0.29455493  1  0.476472  0.00115  0.061025  0.106613  0.001387  3.886419  0.001
C  C23  1  0.56017021  0.50167330  0.03246725  1  0.170209  0.000893  0.093852  -0.011794  0.000995  3.870349  0.0
C  C24  1  0.43578588  0.50301324  0.97103607  1  0.219081  0.000916  0.095598  -0.009633  0.001032  3.868544  0.0
C  C25  1  0.32465944  0.46410123  0.81213571  1  0.041214  -0.00624  -0.071077  -0.150377  -0.004176  3.88261  -0.005
C  C26  1  0.44956818  0.50362729  0.86163052  1  0.047503  0.003707  0.010138  0.097094  0.004126  4.020252  0.003
C  C27  1  0.58418864  0.54393110  0.80257106  1  -0.010405  -0.006104  -0.073166  -0.145337  -0.00408  3.886712  -0.005
C  C28  1  0.59339593  0.53969699  0.69925864  1  0.455361  0.001406  0.061668  0.107493  0.001838  3.884165  0.001
C  C29  1  0.34071878  0.46384010  0.70839457  1  0.429389  0.001032  0.062265  0.109613  0.001359  3.879143  0.001
C  C30  1  0.40653837  0.30076554  0.46033097  1  0.455054  0.001402  0.061896  0.107493  0.001836  3.884846  0.001
C  C31  1  0.41572124  0.19745256  0.45605231  1  -0.010991  -0.006106  -0.073443  -0.145837  -0.004081  3.886068  -0.005
C  C32  1  0.55043586  0.13839117  0.49629781  1  0.049216  0.003709  0.010329  0.098347  0.004127  4.01762  0.003
C  C33  1  0.67534340  0.18789130  0.53586157  1  0.041683  -0.006241  -0.071105  -0.150443  -0.004178  3.881693  -0.005
C  C34  1  0.65923655  0.29163639  0.53617169  1  0.42711  0.001027  0.062201  0.109418  0.001361  3.87961  0.001
C  C35  1  0.56425946  0.02900107  0.49688816  1  0.21782  0.000915  0.095552  -0.009831  0.001032  3.868367  0.0
C  C36  1  0.43986607  0.96757362  0.49829839  1  0.172136  0.000893  0.094044  -0.011841  0.000995  3.868825  0.0
C  C37  1  0.31247077  0.80918039  0.53750090  1  -0.005401  -0.00635  -0.072121  -0.151674  -0.004165  3.883932  -0.005
C  C38  1  0.45348069  0.85817915  0.49694683  1  0.062342  0.003669  0.011761  0.099055  0.004097  4.019985  0.002
C  C39  1  0.60408608  0.79837748  0.45545681  1  0.013884  -0.006178  -0.072686  -0.145718  -0.004111  3.886703  -0.005
C  C40  1  0.61121509  0.69515345  0.45969802  1  0.45765  0.001356  0.060362  0.106815  0.00176  3.887268  0.001
C  C41  1  0.32821054  0.70545974  0.53773658  1  0.476907  0.001152  0.061025  0.106584  0.001388  3.886  0.001
N  N42  1  0.52385418  0.49945181  0.35028340  1  -1.195076  -0.094123  -0.332838  -0.218271  -0.062562  3.592997  -0.082
N  N43  1  0.47434952  0.49997884  0.65324330  1  -1.238277  -0.093781  -0.33467  -0.219788  -0.062503  3.589588  -0.082
N  N44  1  0.52561755  0.34677113  0.50002469  1  -1.236514  -0.093779  -0.334632  -0.21958  -0.062511  3.589616  -0.082
N  N45  1  0.47611921  0.64972167  0.50054785  1  -1.195718  -0.094093  -0.332902  -0.218077  -0.062541  3.593467  -0.082
N  N46  1  0.74272473  0.49683280  0.98437283  1  0.434201  -7.1e-05  0.056792  0.503656  -7.9e-05  4.254435  0.0
N  N47  1  0.25397544  0.50318815  0.01890635  1  0.435942  -7.4e-05  0.061277  0.510186  -8.2e-05  4.242908  0.0
N  N48  1  0.74610848  0.98113151  0.49648321  1  0.435785  -7.4e-05  0.061204  0.510841  -8.1e-05  4.242012  0.0
N  N49  1  0.25725713  0.01569463  0.50328883  1  0.43284  -7.2e-05  0.057708  0.504496  -8e-05  4.252636  0.0
O  O50  1  0.80656892  0.57621992  0.98180798  1  -0.417803  -0.000115  -0.099331  -0.289574  -5.3e-05  1.918866  0.0
O  O51  1  0.81573195  0.41475072  0.95364349  1  -0.408544  5.8e-05  -0.101719  -0.289036  9e-05  1.871184  0.0
O  O52  1  0.16350554  0.58493875  0.02312544  1  -0.410608  -0.000109  -0.0997  -0.288883  -4.6e-05  1.910211  0.0
O  O53  1  0.20802994  0.42251183  0.04806790  1  -0.422626  5.5e-05  -0.103657  -0.293164  8.9e-05  1.87126  0.0
O  O54  1  0.83628768  0.97704442  0.41463945  1  -0.413811  -0.000108  -0.100047  -0.289644  -4.6e-05  1.90913  0.0
O  O55  1  0.79235256  0.95183016  0.57704444  1  -0.419948  5.4e-05  -0.103541  -0.293321  8.8e-05  1.870747  0.0
O  O56  1  0.19319800  0.01823825  0.42397656  1  -0.41692  -0.000116  -0.099868  -0.290283  -5.4e-05  1.918961  0.0
O  O57  1  0.18445982  0.04639597  0.58542416  1  -0.407939  5.8e-05  -0.102012  -0.289193  9e-05  1.870311  0.0
F  F58  1  0.21608512  0.50524396  0.50903084  1  -0.838466  0.001879  -0.212482  -0.544446  0.001952  1.358856  0.001
F  F59  1  0.78388447  0.49096335  0.49477977  1  -0.838429  0.001879  -0.212584  -0.54439  0.001951  1.358586  0.001
F  F60  1  0.99996773  0.58874233  0.41132011  1  -0.83786  -0.000463  -0.250879  -0.54418  -0.00033  1.073224  0.0
F  F61  1  0.99996058  0.40805975  0.59197280  1  -0.839863  -0.000322  -0.257354  -0.550667  -0.000239  1.053645  0.0
F  F62  1  0.05310614  0.40836041  0.41037262  1  -0.840816  -0.00045  -0.252263  -0.545071  -0.00032  1.069782  0.0
F  F63  1  0.94685960  0.58964533  0.59168698  1  -0.840277  -0.000451  -0.252251  -0.545104  -0.00032  1.069926  0.0
