# generated using pymatgen
data_Zn2H18C31N3O8
_symmetry_space_group_name_H-M   'P 1'
_cell_length_a   8.20746288
_cell_length_b   15.05500199
_cell_length_c   21.82016009
_cell_angle_alpha   90.00000619
_cell_angle_beta   93.98236828
_cell_angle_gamma   90.00019644
_symmetry_Int_Tables_number   1
_chemical_formula_structural   Zn2H18C31N3O8
_chemical_formula_sum   'Zn8 H72 C124 N12 O32'
_cell_volume   2689.66252379
_cell_formula_units_Z   4
loop_
 _symmetry_equiv_pos_site_id
 _symmetry_equiv_pos_as_xyz
  1  'x, y, z'
loop_
 _atom_site_type_symbol
 _atom_site_label
 _atom_site_symmetry_multiplicity
 _atom_site_fract_x
 _atom_site_fract_y
 _atom_site_fract_z
 _atom_site_occupancy
 _atom_site_pbe_bader_charge
 _atom_site_pbe_bader_spin_density
 _atom_site_pbe_cm5_charge
 _atom_site_pbe_ddec_charge
 _atom_site_pbe_ddec_spin_density
 _atom_site_pbe_ddec_sum_bond_order
 _atom_site_pbe_magmom
Zn  Zn0  1  0.67127474  0.91551767  0.86468676  1  1.341173  0  0.688878  0.952136  0  2.29214  0
Zn  Zn1  1  0.82872974  0.41551853  0.63531354  1  1.341154  0  0.688856  0.952142  0  2.292248  0
Zn  Zn2  1  0.32872249  0.08448055  0.13531374  1  1.341094  0  0.688887  0.952181  0  2.292146  0
Zn  Zn3  1  0.17127482  0.58448035  0.36468671  1  1.341119  0  0.68887  0.952117  0  2.292255  0
Zn  Zn4  1  0.46945108  0.76417708  0.75528115  1  1.319117  0  0.699941  0.838797  0  2.338349  0
Zn  Zn5  1  0.03055368  0.26417673  0.74471927  1  1.319212  0  0.699934  0.838765  0  2.338374  0
Zn  Zn6  1  0.53054493  0.23582247  0.24471886  1  1.31912  0  0.69995  0.838798  0  2.338296  0
Zn  Zn7  1  0.96944842  0.73582348  0.25528183  1  1.319153  0  0.699948  0.838781  0  2.338372  0
H  H8  1  0.65634800  0.12084223  0.75204881  1  0.135365  0  0.111769  0.127344  0  0.999446  0
H  H9  1  0.84365588  0.62084234  0.74794916  1  0.135301  0  0.111769  0.127346  0  0.999462  0
H  H10  1  0.34365412  0.87915731  0.24795091  1  0.135387  0  0.111786  0.127367  0  0.999418  0
H  H11  1  0.15634259  0.37915720  0.25205000  1  0.135332  0  0.111728  0.127271  0  0.999314  0
H  H12  1  0.23342623  0.12037155  0.57912831  1  0.057504  0  0.097147  0.09989  0  1.04506  0
H  H13  1  0.26657518  0.62037286  0.92087200  1  0.057497  0  0.09714  0.099894  0  1.045055  0
H  H14  1  0.76657465  0.87962733  0.42087275  1  0.057487  0  0.09714  0.099922  0  1.045023  0
H  H15  1  0.73342451  0.37962735  0.07912720  1  0.057527  0  0.097133  0.099882  0  1.045045  0
H  H16  1  0.27431762  0.98612305  0.64432524  1  0.084243  0  0.099964  0.094391  0  1.02979  0
H  H17  1  0.22568244  0.48612375  0.85567460  1  0.084227  0  0.099967  0.094402  0  1.029778  0
H  H18  1  0.72568448  0.01387716  0.35567631  1  0.083902  0  0.099952  0.094393  0  1.02978  0
H  H19  1  0.77431725  0.51387646  0.14432414  1  0.083932  0  0.099971  0.094398  0  1.029776  0
H  H20  1  0.10785897  0.41871679  0.53110514  1  0.089657  0  0.108573  0.116836  0  1.032218  0
H  H21  1  0.39214182  0.91871569  0.96889839  1  0.08963  0  0.108556  0.116862  0  1.032172  0
H  H22  1  0.89213825  0.58128077  0.46889537  1  0.089588  0  0.108556  0.116831  0  1.032249  0
H  H23  1  0.60785296  0.08128319  0.03110204  1  0.089545  0  0.108547  0.116851  0  1.032194  0
H  H24  1  0.55371861  0.35238709  0.45033060  1  0.111634  0  0.09788  0.096121  0  1.061069  0
H  H25  1  0.94627308  0.85238670  0.04966685  1  0.111619  0  0.097855  0.096073  0  1.061043  0
H  H26  1  0.44628350  0.64761445  0.54967004  1  0.111583  0  0.097871  0.096077  0  1.061025  0
H  H27  1  0.05372049  0.14761351  0.95033263  1  0.111676  0  0.097868  0.096079  0  1.061025  0
H  H28  1  0.61938327  0.24249477  0.53373256  1  0.054713  0  0.100228  0.104174  0  1.002103  0
H  H29  1  0.88061042  0.74249631  0.96626284  1  0.054666  0  0.100218  0.104123  0  1.00214  0
H  H30  1  0.38061886  0.75750610  0.46626717  1  0.054737  0  0.10021  0.104141  0  1.002136  0
H  H31  1  0.11938316  0.25750324  0.03373618  1  0.054762  0  0.100216  0.104126  0  1.002115  0
H  H32  1  0.60448363  0.62462758  0.85413582  1  0.088226  0  0.116116  0.085042  0  0.994985  0
H  H33  1  0.89551413  0.12462657  0.64586427  1  0.088225  0  0.116136  0.085039  0  0.994983  0
H  H34  1  0.39550994  0.37537330  0.14586412  1  0.088199  0  0.116131  0.085031  0  0.995025  0
H  H35  1  0.10448674  0.87537496  0.35413771  1  0.088183  0  0.116123  0.084998  0  0.99506  0
H  H36  1  0.62884519  0.45867279  0.86007242  1  0.092452  0  0.099361  0.100885  0  1.071739  0
H  H37  1  0.87115345  0.95867227  0.63992727  1  0.092432  0  0.099389  0.100939  0  1.071639  0
H  H38  1  0.37115082  0.54132808  0.13992713  1  0.092844  0  0.09936  0.100893  0  1.071677  0
H  H39  1  0.12884864  0.04132993  0.36007429  1  0.092461  0  0.099382  0.100923  0  1.071716  0
H  H40  1  0.50372350  0.36734222  0.77274844  1  0.115693  0  0.114011  0.116639  0  0.975327  0
H  H41  1  0.99627946  0.86734262  0.72725091  1  0.115703  0  0.11398  0.116634  0  0.975386  0
H  H42  1  0.49627496  0.63265865  0.22725119  1  0.115689  0  0.114016  0.116679  0  0.975351  0
H  H43  1  0.00372262  0.13265959  0.27275111  1  0.115583  0  0.113995  0.116654  0  0.975364  0
H  H44  1  0.36141887  0.44361242  0.68398172  1  0.115037  0  0.113999  0.125745  0  1.008504  0
H  H45  1  0.13858582  0.94361348  0.81601779  1  0.114857  0  0.114006  0.125825  0  1.008478  0
H  H46  1  0.63857591  0.55638779  0.31601871  1  0.114797  0  0.11398  0.125735  0  1.008509  0
H  H47  1  0.86141994  0.05638872  0.18398387  1  0.115019  0  0.11401  0.125788  0  1.008529  0
H  H48  1  0.21120558  0.51493342  0.62268931  1  0.11908  0  0.112696  0.118096  0  1.016179  0
H  H49  1  0.28879887  0.01493357  0.87730833  1  0.119092  0  0.112724  0.118126  0  1.016129  0
H  H50  1  0.78879167  0.48506746  0.37730982  1  0.119054  0  0.112712  0.118099  0  1.016117  0
H  H51  1  0.71120693  0.98506664  0.12269058  1  0.119085  0  0.112714  0.118119  0  1.016098  0
H  H52  1  0.07162775  0.60849355  0.54203260  1  0.142405  0  0.113072  0.115723  0  1.014723  0
H  H53  1  0.42837729  0.10849331  0.95796552  1  0.142409  0  0.113062  0.115712  0  1.01473  0
H  H54  1  0.92837440  0.39150733  0.45796529  1  0.142426  0  0.11308  0.115719  0  1.01477  0
H  H55  1  0.57162849  0.89150557  0.04203477  1  0.142463  0  0.113106  0.115764  0  1.014745  0
H  H56  1  0.09655353  0.77635871  0.55087343  1  0.138001  0  0.103946  0.105825  0  1.064365  0
H  H57  1  0.40345008  0.27635776  0.94912695  1  0.13804  0  0.103943  0.10578  0  1.064407  0
H  H58  1  0.90344862  0.22364283  0.44912492  1  0.138048  0  0.103905  0.105728  0  1.064414  0
H  H59  1  0.59655322  0.72364112  0.05087556  1  0.138039  0  0.103936  0.105767  0  1.064364  0
H  H60  1  0.27237410  0.83834692  0.63961559  1  0.113045  0  0.113021  0.080987  0  1.034828  0
H  H61  1  0.22763112  0.33834629  0.86038531  1  0.113075  0  0.113028  0.080982  0  1.03477  0
H  H62  1  0.72762803  0.16165462  0.36038368  1  0.113091  0  0.113022  0.081003  0  1.034756  0
H  H63  1  0.77237463  0.66165392  0.13961681  1  0.113062  0  0.113018  0.080978  0  1.034825  0
H  H64  1  0.20845537  0.21227320  0.44427157  1  0.122972  0  0.112995  0.082196  0  0.999249  0
H  H65  1  0.29154886  0.71227318  0.05572863  1  0.122989  0  0.112968  0.08212  0  0.999308  0
H  H66  1  0.79155042  0.78772701  0.55572826  1  0.122992  0  0.112985  0.08214  0  0.999321  0
H  H67  1  0.70844962  0.28772902  0.94426962  1  0.12301  0  0.112982  0.082125  0  0.999315  0
H  H68  1  0.45145405  0.12151156  0.42041161  1  0.087886  0  0.108582  0.116616  0  0.997309  0
H  H69  1  0.04854475  0.62151176  0.07958613  1  0.088459  0  0.108566  0.116602  0  0.997297  0
H  H70  1  0.54854685  0.87848599  0.57958808  1  0.087883  0  0.108559  0.116602  0  0.997266  0
H  H71  1  0.95145497  0.37848845  0.92041078  1  0.087873  0  0.108577  0.1166  0  0.997257  0
H  H72  1  0.44534133  0.95685386  0.44052070  1  0.114168  0  0.100348  0.096278  0  1.042665  0
H  H73  1  0.05465712  0.45685353  0.05947844  1  0.114159  0  0.100344  0.096306  0  1.042677  0
H  H74  1  0.55465468  0.04314436  0.55947885  1  0.114202  0  0.100381  0.096325  0  1.042609  0
H  H75  1  0.94534502  0.54314668  0.94051991  1  0.114133  0  0.100341  0.096287  0  1.042628  0
H  H76  1  0.19652855  0.89135912  0.48456967  1  0.074591  0  0.106625  0.111069  0  1.029986  0
H  H77  1  0.30346827  0.39135925  0.01542987  1  0.074571  0  0.106622  0.111054  0  1.030025  0
H  H78  1  0.80346260  0.10864109  0.51542883  1  0.074573  0  0.106617  0.111033  0  1.029986  0
H  H79  1  0.69653753  0.60864229  0.98456950  1  0.074554  0  0.106614  0.111065  0  1.029932  0
C  C80  1  0.49822302  0.96426741  0.74204712  1  1.569425  0  0.221561  0.605997  0  4.184746  0
C  C81  1  0.00178177  0.46426502  0.75795377  1  1.569554  0  0.221582  0.606017  0  4.184773  0
C  C82  1  0.50178033  0.03573147  0.25795264  1  1.569427  0  0.221592  0.606008  0  4.184684  0
C  C83  1  0.99821913  0.53573386  0.24204592  1  1.569456  0  0.221528  0.605952  0  4.18484  0
C  C84  1  0.46972285  0.04426285  0.70221448  1  -0.025761  0  -0.02213  -0.047014  0  3.993565  0
C  C85  1  0.03027687  0.54426304  0.79778486  1  -0.025901  0  -0.022118  -0.046972  0  3.9935  0
C  C86  1  0.53028049  0.95573603  0.29778528  1  -0.025895  0  -0.022103  -0.046981  0  3.993659  0
C  C87  1  0.96972036  0.45573584  0.20221518  1  -0.025942  0  -0.022174  -0.04719  0  3.99367  0
C  C88  1  0.56557676  0.11977140  0.71324143  1  0.013681  0  -0.073847  -0.092772  0  3.930264  0
C  C89  1  0.93443076  0.61977169  0.78675711  1  0.013678  0  -0.07379  -0.092733  0  3.930295  0
C  C90  1  0.43442781  0.88022814  0.28675837  1  0.013646  0  -0.073855  -0.0928  0  3.93029  0
C  C91  1  0.06556647  0.38022719  0.21324248  1  0.013682  0  -0.073761  -0.092588  0  3.930147  0
C  C92  1  0.55068820  0.19388230  0.67453160  1  -0.04748  0  -0.016396  -0.088845  0  3.929832  0
C  C93  1  0.94931858  0.69388262  0.82546646  1  -0.047484  0  -0.016442  -0.088929  0  3.929976  0
C  C94  1  0.44931758  0.80611658  0.32546869  1  -0.047471  0  -0.016399  -0.088867  0  3.929866  0
C  C95  1  0.05067743  0.30611692  0.17453355  1  -0.04758  0  -0.016417  -0.088914  0  3.929951  0
C  C96  1  0.42934070  0.19463808  0.62526977  1  0.012668  0  0.012819  0.083207  0  3.923857  0
C  C97  1  0.07066243  0.69463902  0.87472831  1  0.012693  0  0.012838  0.083213  0  3.923896  0
C  C98  1  0.57066141  0.80536014  0.37473088  1  0.012713  0  0.012805  0.08327  0  3.923827  0
C  C99  1  0.92933358  0.30535853  0.12527124  1  0.012596  0  0.012845  0.083143  0  3.923911  0
C  C100  1  0.32908543  0.11942577  0.61630858  1  -0.043405  0  -0.094758  -0.142218  0  3.974623  0
C  C101  1  0.17091598  0.61942691  0.88369081  1  -0.043879  0  -0.094783  -0.14226  0  3.97457  0
C  C102  1  0.67091790  0.88057377  0.38369163  1  -0.043436  0  -0.094772  -0.14232  0  3.974523  0
C  C103  1  0.82908125  0.38057330  0.11630877  1  -0.043955  0  -0.094781  -0.142237  0  3.974541  0
C  C104  1  0.35101073  0.04440090  0.65304347  1  -0.043664  0  -0.081553  -0.077887  0  3.987094  0
C  C105  1  0.14898900  0.54440198  0.84695587  1  -0.043112  0  -0.081535  -0.07788  0  3.987029  0
C  C106  1  0.64899016  0.95559865  0.34695713  1  -0.04313  0  -0.081541  -0.077883  0  3.987095  0
C  C107  1  0.85100947  0.45559756  0.15304329  1  -0.042651  0  -0.081515  -0.077793  0  3.987009  0
C  C108  1  0.66902928  0.26866288  0.68710873  1  1.571461  0  0.219187  0.593223  0  4.192482  0
C  C109  1  0.83097673  0.76866364  0.81289069  1  1.57123  0  0.219216  0.593241  0  4.192539  0
C  C110  1  0.33097529  0.73133667  0.31289106  1  1.571454  0  0.21924  0.593274  0  4.192485  0
C  C111  1  0.16901928  0.23133525  0.18710978  1  1.571343  0  0.219276  0.593317  0  4.192397  0
C  C112  1  0.40011777  0.26793263  0.57995601  1  -0.008872  0  0.01162  0.08065  0  3.939559  0
C  C113  1  0.09988336  0.76793363  0.92004385  1  -0.009054  0  0.01161  0.080663  0  3.939523  0
C  C114  1  0.59988314  0.73206360  0.42004368  1  -0.008948  0  0.01168  0.080735  0  3.939471  0
C  C115  1  0.90011265  0.23206525  0.07995616  1  -0.009166  0  0.011634  0.08077  0  3.939508  0
C  C116  1  0.25434492  0.31768738  0.57802397  1  -0.004651  0  -0.018819  -0.089344  0  3.942271  0
C  C117  1  0.24565893  0.81768667  0.92197780  1  -0.004674  0  -0.018843  -0.089372  0  3.942393  0
C  C118  1  0.74565598  0.68230951  0.42197572  1  -0.00485  0  -0.0189  -0.089482  0  3.942392  0
C  C119  1  0.75433829  0.18231221  0.07802271  1  -0.004706  0  -0.018886  -0.089485  0  3.942418  0
C  C120  1  0.13319339  0.30803334  0.62567616  1  1.535205  0  0.213401  0.591768  0  4.190734  0
C  C121  1  0.36681526  0.80803351  0.87432757  1  1.535234  0  0.213421  0.591805  0  4.190794  0
C  C122  1  0.86680751  0.69196421  0.37432353  1  1.535081  0  0.213443  0.591827  0  4.190771  0
C  C123  1  0.63318196  0.19196537  0.12567293  1  1.535253  0  0.213401  0.591803  0  4.190844  0
C  C124  1  0.22004929  0.38001281  0.53122390  1  -0.035741  0  -0.07765  -0.111363  0  3.941953  0
C  C125  1  0.27995128  0.88001150  0.96877870  1  -0.035675  0  -0.077658  -0.11145  0  3.941975  0
C  C126  1  0.77995160  0.61998474  0.46877671  1  -0.035649  0  -0.077626  -0.111317  0  3.941936  0
C  C127  1  0.72004350  0.11998738  0.03122219  1  -0.035442  0  -0.077614  -0.111334  0  3.941846  0
C  C128  1  0.32773954  0.39316535  0.48538677  1  0.003042  0  -0.018737  -0.030734  0  3.979448  0
C  C129  1  0.17225727  0.89316378  0.01461414  1  0.003005  0  -0.018686  -0.030672  0  3.97931  0
C  C130  1  0.67226135  0.60683353  0.51461383  1  0.00309  0  -0.018759  -0.030921  0  3.979522  0
C  C131  1  0.82773752  0.10683510  0.98538583  1  0.00277  0  -0.018729  -0.030828  0  3.979331  0
C  C132  1  0.47110156  0.34231660  0.48655927  1  -0.077867  0  -0.079183  -0.076332  0  3.961144  0
C  C133  1  0.02889375  0.84231609  0.01343885  1  -0.077824  0  -0.079191  -0.076256  0  3.96108  0
C  C134  1  0.52889934  0.65768294  0.51344042  1  -0.077805  0  -0.079229  -0.076254  0  3.961015  0
C  C135  1  0.97110105  0.15768412  0.98656067  1  -0.07786  0  -0.079218  -0.076233  0  3.961041  0
C  C136  1  0.50663953  0.28095099  0.53315034  1  0.012863  0  -0.088246  -0.127213  0  3.976074  0
C  C137  1  0.99335801  0.78095141  0.96684793  1  0.013002  0  -0.088214  -0.127182  0  3.97612  0
C  C138  1  0.49336380  0.71904922  0.46685034  1  0.012867  0  -0.088146  -0.127106  0  3.975949  0
C  C139  1  0.00663678  0.21904747  0.03315159  1  0.013208  0  -0.088175  -0.127162  0  3.976071  0
C  C140  1  0.29101633  0.45885776  0.43483353  1  1.558171  0  0.194289  0.558876  0  4.221735  0
C  C141  1  0.20897966  0.95885627  0.06516783  1  1.557411  0  0.194353  0.559041  0  4.221543  0
C  C142  1  0.70898454  0.54114245  0.56516799  1  1.558267  0  0.194386  0.559026  0  4.221718  0
C  C143  1  0.79101635  0.04114328  0.93483218  1  1.558001  0  0.19435  0.558985  0  4.221659  0
C  C144  1  0.55082877  0.58204234  0.81765951  1  0.473605  0  0.051914  0.104955  0  3.961652  0
C  C145  1  0.94917239  0.08204211  0.68234022  1  0.47362  0  0.051897  0.104984  0  3.961565  0
C  C146  1  0.44916479  0.41795853  0.18234089  1  0.474012  0  0.051897  0.104993  0  3.961535  0
C  C147  1  0.05082971  0.91795877  0.31766134  1  0.474041  0  0.051982  0.10512  0  3.961501  0
C  C148  1  0.56346642  0.48993410  0.82086236  1  0.028229  0  -0.084553  -0.130477  0  3.967533  0
C  C149  1  0.93653243  0.98993371  0.67913733  1  0.028241  0  -0.084561  -0.130515  0  3.967382  0
C  C150  1  0.43652959  0.51006744  0.17913765  1  0.027823  0  -0.084562  -0.130498  0  3.967476  0
C  C151  1  0.06346966  0.01006850  0.32086468  1  0.0281  0  -0.084599  -0.130552  0  3.96754  0
C  C152  1  0.49394163  0.43948966  0.77227102  1  -0.119061  0  -0.058776  -0.011791  0  3.930688  0
C  C153  1  0.00606058  0.93948980  0.72772842  1  -0.11906  0  -0.058762  -0.011773  0  3.930824  0
C  C154  1  0.50605437  0.56051055  0.22772945  1  -0.11908  0  -0.058818  -0.011887  0  3.930801  0
C  C155  1  0.99394274  0.06051240  0.27227271  1  -0.119004  0  -0.058816  -0.011841  0  3.930762  0
C  C156  1  0.41280901  0.48230725  0.72262614  1  0.107278  0  -0.062648  -0.113806  0  3.880808  0
C  C157  1  0.08719226  0.98230754  0.77737282  1  0.10753  0  -0.062679  -0.114037  0  3.881043  0
C  C158  1  0.58718455  0.51769296  0.27737425  1  0.107582  0  -0.062555  -0.113695  0  3.880855  0
C  C159  1  0.91280984  0.01769400  0.22262828  1  0.107382  0  -0.062658  -0.113937  0  3.880875  0
C  C160  1  0.40332391  0.57507508  0.72300042  1  0.466344  0  0.130544  0.181006  0  3.958056  0
C  C161  1  0.09667722  0.07507552  0.77699942  1  0.466301  0  0.130644  0.181321  0  3.958136  0
C  C162  1  0.59666843  0.42492580  0.27699994  1  0.466287  0  0.130528  0.180935  0  3.958299  0
C  C163  1  0.90332732  0.92492668  0.22300175  1  0.466105  0  0.13065  0.181204  0  3.958085  0
C  C164  1  0.31705261  0.62669106  0.67309285  1  0.522791  0  0.131374  0.180459  0  3.965626  0
C  C165  1  0.18295131  0.12669234  0.82690570  1  0.522886  0  0.131401  0.18039  0  3.965757  0
C  C166  1  0.68294462  0.37330915  0.32690720  1  0.522806  0  0.131347  0.180434  0  3.965713  0
C  C167  1  0.81705569  0.87330986  0.17309462  1  0.522871  0  0.131354  0.180405  0  3.965772  0
C  C168  1  0.22224394  0.58671688  0.62507592  1  -0.027809  0  -0.062948  -0.122162  0  3.895305  0
C  C169  1  0.27775850  0.08671701  0.87492305  1  -0.027669  0  -0.062991  -0.122195  0  3.895361  0
C  C170  1  0.77775330  0.41328400  0.37492367  1  -0.027811  0  -0.062968  -0.122147  0  3.895346  0
C  C171  1  0.72224605  0.91328320  0.12507766  1  -0.027461  0  -0.062992  -0.122206  0  3.895367  0
C  C172  1  0.14273938  0.63959291  0.58012624  1  -0.043636  0  -0.053399  -0.000914  0  3.905521  0
C  C173  1  0.35726462  0.13959188  0.91987231  1  -0.043901  0  -0.053377  -0.000906  0  3.905382  0
C  C174  1  0.85726031  0.36040862  0.41987250  1  -0.043661  0  -0.0534  -0.000951  0  3.905516  0
C  C175  1  0.64273993  0.86040700  0.08012840  1  -0.044026  0  -0.053452  -0.001017  0  3.9054  0
C  C176  1  0.15797263  0.73178687  0.58448894  1  -0.092076  0  -0.083244  -0.132932  0  3.955049  0
C  C177  1  0.34203316  0.23178647  0.91551059  1  -0.092139  0  -0.083241  -0.132823  0  3.954851  0
C  C178  1  0.84202829  0.26821467  0.41550984  1  -0.092062  0  -0.08319  -0.132757  0  3.954881  0
C  C179  1  0.65797260  0.76821241  0.08449061  1  -0.092068  0  -0.083181  -0.132793  0  3.954844  0
C  C180  1  0.25442804  0.76707291  0.63359432  1  0.476504  0  0.04785  0.095804  0  3.951777  0
C  C181  1  0.24557550  0.26707299  0.86640653  1  0.476487  0  0.04787  0.095804  0  3.951714  0
C  C182  1  0.74557164  0.23292862  0.36640534  1  0.476509  0  0.047789  0.095651  0  3.951878  0
C  C183  1  0.75442902  0.73292789  0.13359602  1  0.476491  0  0.047825  0.095769  0  3.951941  0
C  C184  1  0.21095743  0.14072422  0.45289216  1  0.44538  0  0.046105  0.087793  0  3.998594  0
C  C185  1  0.28904511  0.64072221  0.04710890  1  0.445433  0  0.04609  0.087782  0  3.998668  0
C  C186  1  0.78904590  0.85927732  0.54710852  1  0.445388  0  0.046079  0.087787  0  3.998651  0
C  C187  1  0.71095580  0.35927800  0.95289033  1  0.445398  0  0.046137  0.087852  0  3.998576  0
C  C188  1  0.34709655  0.09019098  0.43990948  1  -0.069237  0  -0.081997  -0.12723  0  3.954845  0
C  C189  1  0.15290083  0.59018871  0.06008822  1  -0.06973  0  -0.081963  -0.127187  0  3.954783  0
C  C190  1  0.65290314  0.90980923  0.56008926  1  -0.069175  0  -0.081973  -0.127193  0  3.95481  0
C  C191  1  0.84709765  0.40981017  0.93990957  1  -0.069233  0  -0.081991  -0.127203  0  3.954795  0
C  C192  1  0.34315432  0.99893280  0.45116623  1  -0.065358  0  -0.072778  -0.034451  0  3.984625  0
C  C193  1  0.15684563  0.49893200  0.04883249  1  -0.065483  0  -0.072795  -0.034526  0  3.984669  0
C  C194  1  0.65684293  0.00106674  0.54883290  1  -0.065463  0  -0.072823  -0.034547  0  3.984612  0
C  C195  1  0.84315774  0.50106821  0.95116589  1  -0.065354  0  -0.072821  -0.034528  0  3.984648  0
C  C196  1  0.20584784  0.96220468  0.47536383  1  0.009776  0  -0.083343  -0.16081  0  3.936626  0
C  C197  1  0.29415187  0.46220347  0.02463534  1  0.009698  0  -0.083313  -0.160701  0  3.936537  0
C  C198  1  0.79414819  0.03779686  0.52463526  1  0.010012  0  -0.083279  -0.160644  0  3.936647  0
C  C199  1  0.70585271  0.53779674  0.97536354  1  0.010022  0  -0.083281  -0.160713  0  3.936631  0
C  C200  1  0.07471942  0.01804925  0.48717564  1  0.536434  0  0.116649  0.164267  0  4.00877  0
C  C201  1  0.42528113  0.51804882  0.01282489  1  0.536513  0  0.116642  0.164168  0  4.008808  0
C  C202  1  0.92527905  0.98195361  0.51282352  1  0.494494  0  0.116651  0.16416  0  4.009003  0
C  C203  1  0.57472341  0.48195272  0.98717627  1  0.494526  0  0.11669  0.164237  0  4.008959  0
N  N204  1  0.47318480  0.62334681  0.76983272  1  -1.242939  0  -0.316448  -0.270057  0  3.52341  0
N  N205  1  0.02681663  0.12334645  0.73016713  1  -1.242939  0  -0.316507  -0.270192  0  3.523596  0
N  N206  1  0.52680875  0.37665340  0.23016768  1  -1.243319  0  -0.316449  -0.270064  0  3.523444  0
N  N207  1  0.97318546  0.87665575  0.26983442  1  -1.243112  0  -0.316517  -0.270207  0  3.523484  0
N  N208  1  0.33280028  0.71598166  0.67669240  1  -1.249766  0  -0.317949  -0.264374  0  3.502853  0
N  N209  1  0.16720296  0.21598291  0.82330751  1  -1.24977  0  -0.318002  -0.26444  0  3.503034  0
N  N210  1  0.66719573  0.28401854  0.32330806  1  -1.249804  0  -0.317913  -0.26427  0  3.502895  0
N  N211  1  0.83280035  0.78401929  0.17669408  1  -1.249818  0  -0.317956  -0.264332  0  3.503042  0
N  N212  1  0.07738455  0.10611235  0.47567233  1  -1.226195  0  -0.316486  -0.30681  0  3.349023  0
N  N213  1  0.42261778  0.60611257  0.02432826  1  -1.226226  0  -0.316445  -0.306707  0  3.349111  0
N  N214  1  0.92261757  0.89388986  0.52432740  1  -1.226122  0  -0.316465  -0.306752  0  3.349122  0
N  N215  1  0.57738556  0.39388963  0.97567195  1  -1.226139  0  -0.316532  -0.306798  0  3.349107  0
O  O216  1  0.46715726  0.88913222  0.71744801  1  -1.182714  0  -0.312816  -0.5531  0  2.363915  0
O  O217  1  0.03285439  0.38913520  0.78255262  1  -1.182786  0  -0.312827  -0.553049  0  2.364055  0
O  O218  1  0.53285097  0.11086733  0.28255189  1  -1.182725  0  -0.312879  -0.55317  0  2.36385  0
O  O219  1  0.96714649  0.61086501  0.21744845  1  -1.182745  0  -0.312834  -0.553033  0  2.364051  0
O  O220  1  0.55202244  0.97970951  0.79724313  1  -1.180597  0  -0.316975  -0.566464  0  2.400433  0
O  O221  1  0.94798370  0.47970861  0.70275493  1  -1.180527  0  -0.317005  -0.566524  0  2.400319  0
O  O222  1  0.44797723  0.02028937  0.20275744  1  -1.180537  0  -0.316975  -0.566455  0  2.400462  0
O  O223  1  0.05202455  0.52029093  0.29724359  1  -1.180523  0  -0.316953  -0.566441  0  2.400379  0
O  O224  1  0.64781400  0.33801522  0.65379641  1  -1.15678  0  -0.301907  -0.534226  0  2.418058  0
O  O225  1  0.85219493  0.83801669  0.84620035  1  -1.156785  0  -0.301911  -0.534142  0  2.418201  0
O  O226  1  0.35219058  0.66198366  0.34620292  1  -1.156804  0  -0.301945  -0.534227  0  2.418085  0
O  O227  1  0.14780230  0.16198286  0.15379970  1  -1.156791  0  -0.301914  -0.534179  0  2.418125  0
O  O228  1  0.78122854  0.25809839  0.72958384  1  -1.200758  0  -0.323419  -0.569755  0  2.377619  0
O  O229  1  0.71877497  0.75809960  0.77041459  1  -1.200448  0  -0.323443  -0.569817  0  2.377518  0
O  O230  1  0.21877357  0.74190182  0.27041680  1  -1.200653  0  -0.323424  -0.569767  0  2.377564  0
O  O231  1  0.28121980  0.24189862  0.22958630  1  -1.200432  0  -0.323496  -0.569825  0  2.377385  0
O  O232  1  0.18850859  0.29226455  0.68074975  1  -1.159268  0  -0.307092  -0.531417  0  2.348104  0
O  O233  1  0.31150367  0.79226461  0.81925134  1  -1.159114  0  -0.30701  -0.531364  0  2.348105  0
O  O234  1  0.81149354  0.70773433  0.31924952  1  -1.159231  0  -0.307132  -0.531473  0  2.348144  0
O  O235  1  0.68849356  0.20773627  0.18074916  1  -1.159075  0  -0.306979  -0.531321  0  2.348097  0
O  O236  1  0.98238788  0.31726030  0.60862624  1  -1.197953  0  -0.332843  -0.584756  0  2.318999  0
O  O237  1  0.51761837  0.81725982  0.89137686  1  -1.198108  0  -0.332988  -0.584909  0  2.318969  0
O  O238  1  0.01761302  0.68273725  0.39137345  1  -1.197867  0  -0.332837  -0.584737  0  2.318959  0
O  O239  1  0.48238008  0.18273906  0.10862368  1  -1.198144  0  -0.332968  -0.584892  0  2.319019  0
O  O240  1  0.16992951  0.51333589  0.44134550  1  -1.170487  0  -0.333992  -0.569751  0  2.260696  0
O  O241  1  0.33006734  0.01333475  0.05865539  1  -1.170416  0  -0.334043  -0.569887  0  2.260685  0
O  O242  1  0.83007138  0.48666366  0.55865510  1  -1.170476  0  -0.334034  -0.569817  0  2.260721  0
O  O243  1  0.66992867  0.98666413  0.94134462  1  -1.170454  0  -0.334024  -0.569801  0  2.260693  0
O  O244  1  0.37345273  0.46029723  0.38853133  1  -1.166988  0  -0.321519  -0.543755  0  2.124823  0
O  O245  1  0.12654328  0.96029558  0.11146911  1  -1.166237  0  -0.321522  -0.543799  0  2.12472  0
O  O246  1  0.62654937  0.53970298  0.61146977  1  -1.167066  0  -0.321561  -0.543778  0  2.124749  0
O  O247  1  0.87345273  0.03970330  0.88853044  1  -1.166851  0  -0.321536  -0.543773  0  2.12475  0
