# generated using pymatgen
data_CoH4C6(N3O2)2
_symmetry_space_group_name_H-M   'P 1'
_cell_length_a   14.87801078
_cell_length_b   14.87792679
_cell_length_c   14.87796854
_cell_angle_alpha   109.47135329
_cell_angle_beta   109.47090194
_cell_angle_gamma   109.47126373
_symmetry_Int_Tables_number   1
_chemical_formula_structural   CoH4C6(N3O2)2
_chemical_formula_sum   'Co6 H24 C36 N36 O24'
_cell_volume   2535.18582369
_cell_formula_units_Z   6
loop_
 _symmetry_equiv_pos_site_id
 _symmetry_equiv_pos_as_xyz
  1  'x, y, z'
loop_
 _atom_site_type_symbol
 _atom_site_label
 _atom_site_symmetry_multiplicity
 _atom_site_fract_x
 _atom_site_fract_y
 _atom_site_fract_z
 _atom_site_occupancy
 _atom_site_pbe_bader_charge
 _atom_site_pbe_bader_spin_density
 _atom_site_pbe_cm5_charge
 _atom_site_pbe_ddec_charge
 _atom_site_pbe_ddec_spin_density
 _atom_site_pbe_ddec_sum_bond_order
 _atom_site_pbe_magmom
Co  Co0  1  0.75000017  0.50000036  0.25000026  1  1.215946  2.586868  0.722402  0.738954  2.792547  2.666068  2.536
Co  Co1  1  0.24999953  0.50000027  0.75000068  1  1.215976  2.586863  0.722398  0.738948  2.792546  2.666081  2.536
Co  Co2  1  0.50000077  0.24999796  0.74999768  1  1.215884  2.586854  0.722556  0.739144  2.792534  2.666094  2.536
Co  Co3  1  0.49999876  0.75000332  0.25000279  1  1.215928  2.586861  0.722567  0.739155  2.792541  2.666009  2.536
Co  Co4  1  0.74999741  0.24999721  0.50000093  1  1.215828  2.586881  0.722535  0.739063  2.792559  2.665893  2.536
Co  Co5  1  0.25000209  0.75000322  0.49999839  1  1.215973  2.586869  0.722541  0.73907  2.792557  2.665906  2.536
H  H6  1  0.86878401  0.54099057  0.11433506  1  0.063269  0.002131  0.126396  0.115276  0.000687  0.982351  0.001
H  H7  1  0.57334624  0.45900803  0.32779380  1  0.089905  0.002098  0.1264  0.115289  0.000687  0.982257  0.001
H  H8  1  0.42665469  0.75444735  0.88566177  1  0.097192  0.002082  0.126382  0.115265  0.000687  0.98234  0.001
H  H9  1  0.13121850  0.24555278  0.67220773  1  0.083148  0.002105  0.126408  0.115262  0.000687  0.982388  0.001
H  H10  1  0.45900439  0.32779247  0.57334650  1  0.092232  0.002097  0.126408  0.115308  0.000688  0.982182  0.001
H  H11  1  0.54099606  0.11434084  0.86878758  1  0.065177  0.002129  0.126402  0.115293  0.000688  0.982238  0.001
H  H12  1  0.24555506  0.67220833  0.13121039  1  0.083335  0.002106  0.126377  0.115231  0.000687  0.98228  0.001
H  H13  1  0.75444368  0.88565366  0.42665148  1  0.094337  0.002088  0.126379  0.115252  0.000687  0.982253  0.001
H  H14  1  0.67220939  0.13121118  0.24556295  1  0.083185  0.002105  0.126376  0.115274  0.000687  0.982346  0.001
H  H15  1  0.88564990  0.42664738  0.75443925  1  0.094529  0.002087  0.126363  0.115271  0.000687  0.982345  0.001
H  H16  1  0.32779119  0.57335323  0.45900271  1  0.087062  0.002101  0.126378  0.115271  0.000687  0.982306  0.001
H  H17  1  0.11435024  0.86878997  0.54099716  1  0.062339  0.002132  0.126357  0.115258  0.000687  0.982368  0.001
H  H18  1  0.32779329  0.45900884  0.57334462  1  0.089942  0.002098  0.126395  0.115262  0.000687  0.982335  0.001
H  H19  1  0.11433469  0.54099104  0.86878461  1  0.063375  0.002131  0.126386  0.115264  0.000687  0.982363  0.001
H  H20  1  0.67220734  0.24555069  0.13121578  1  0.083105  0.002105  0.126391  0.115271  0.000687  0.982346  0.001
H  H21  1  0.88566580  0.75445078  0.42665706  1  0.096682  0.002082  0.126381  0.115271  0.000687  0.982329  0.001
H  H22  1  0.13121218  0.67220865  0.24555703  1  0.083356  0.002106  0.126404  0.11527  0.000688  0.982253  0.001
H  H23  1  0.42664758  0.88565303  0.75443974  1  0.094612  0.002087  0.126395  0.115278  0.000687  0.982276  0.001
H  H24  1  0.57335036  0.32779112  0.45900587  1  0.092249  0.002096  0.126406  0.115281  0.000687  0.982232  0.001
H  H25  1  0.86878692  0.11434363  0.54099636  1  0.065021  0.002129  0.126398  0.115278  0.000687  0.982282  0.001
H  H26  1  0.54100033  0.86879152  0.11434845  1  0.062476  0.002132  0.126364  0.115236  0.000687  0.9823  0.001
H  H27  1  0.45900029  0.57334849  0.32779166  1  0.086979  0.002102  0.126373  0.115259  0.000687  0.98221  0.001
H  H28  1  0.75443945  0.42664667  0.88564905  1  0.094528  0.002087  0.126353  0.115253  0.000687  0.982314  0.001
H  H29  1  0.24556070  0.13121021  0.67220766  1  0.083187  0.002105  0.126359  0.115246  0.000687  0.982341  0.001
C  C30  1  0.61615839  0.36369875  0.99999658  1  1.347033  0.004589  0.286672  0.256249  0.002238  4.028628  0.005
C  C31  1  0.63629708  0.63630187  0.25246062  1  1.353892  0.004575  0.286716  0.256314  0.002239  4.028684  0.005
C  C32  1  0.36370244  0.61616313  0.00000451  1  1.346773  0.004593  0.286704  0.25632  0.002239  4.028669  0.005
C  C33  1  0.38384331  0.38383933  0.74754056  1  1.356493  0.004588  0.286651  0.256287  0.002239  4.028761  0.005
C  C34  1  0.63629386  0.25245374  0.63629587  1  1.347021  0.004582  0.286721  0.256314  0.002239  4.028656  0.005
C  C35  1  0.36370584  0.00000247  0.61616095  1  1.347322  0.004591  0.286667  0.256267  0.00224  4.0286  0.005
C  C36  1  0.38383815  0.74754475  0.38383786  1  1.356942  0.004587  0.286796  0.256536  0.002239  4.02829  0.005
C  C37  1  0.61616111  0.99999988  0.36370606  1  1.347558  0.004588  0.28677  0.256353  0.002239  4.028506  0.005
C  C38  1  0.74754229  0.38383982  0.38384224  1  1.356503  0.004588  0.286704  0.256329  0.002239  4.028784  0.005
C  C39  1  0.99999735  0.36369882  0.61615796  1  1.347218  0.004589  0.286689  0.25625  0.002239  4.028764  0.005
C  C40  1  0.25245674  0.63629961  0.63629675  1  1.353025  0.004575  0.286702  0.256285  0.002238  4.02878  0.005
C  C41  1  0.00000205  0.61616041  0.36370244  1  1.346987  0.004589  0.286668  0.256261  0.002239  4.02879  0.005
C  C42  1  0.78364889  0.47670795  0.05729433  1  0.547576  0.005754  0.024297  0.023418  0.003363  3.919261  0.005
C  C43  1  0.58058624  0.52329009  0.30694118  1  0.393324  0.005966  0.024302  0.02335  0.003364  3.919155  0.005
C  C44  1  0.41941488  0.72635558  0.94270371  1  0.411907  0.005895  0.024287  0.023332  0.003364  3.919207  0.005
C  C45  1  0.21635311  0.27364726  0.69305934  1  0.405354  0.005941  0.024273  0.0234  0.003363  3.91938  0.005
C  C46  1  0.52329003  0.30693594  0.58058501  1  0.391281  0.005966  0.024301  0.023376  0.003362  3.919423  0.005
C  C47  1  0.47670985  0.05729379  0.78364564  1  0.545659  0.005756  0.024276  0.023388  0.003363  3.919495  0.005
C  C48  1  0.27364708  0.69306552  0.21635184  1  0.540059  0.005696  0.024326  0.023522  0.003363  3.919337  0.005
C  C49  1  0.72635148  0.94270340  0.41941690  1  0.415081  0.005888  0.024329  0.023492  0.003363  3.919362  0.005
C  C50  1  0.69306057  0.21634534  0.27364769  1  0.544173  0.005696  0.024341  0.023397  0.003362  3.919243  0.005
C  C51  1  0.94269835  0.41941157  0.72635325  1  0.414912  0.005885  0.024359  0.023404  0.003362  3.919219  0.005
C  C52  1  0.30693977  0.58058702  0.52328555  1  0.5379  0.005711  0.024376  0.023438  0.003362  3.919142  0.005
C  C53  1  0.05730151  0.78365566  0.47671424  1  0.548237  0.005751  0.024346  0.023385  0.003362  3.919249  0.005
C  C54  1  0.30693855  0.52329030  0.58058631  1  0.393409  0.005965  0.024377  0.023511  0.003363  3.919117  0.005
C  C55  1  0.05729536  0.47670842  0.78364909  1  0.547509  0.005755  0.024314  0.023443  0.003363  3.919221  0.005
C  C56  1  0.69306173  0.27364694  0.21635219  1  0.405362  0.005942  0.024342  0.023468  0.003363  3.91925  0.005
C  C57  1  0.94270431  0.72635370  0.41941361  1  0.412702  0.005893  0.024334  0.023458  0.003364  3.919198  0.005
C  C58  1  0.21635145  0.69306457  0.27364644  1  0.409495  0.005941  0.02433  0.023464  0.003362  3.91934  0.005
C  C59  1  0.41941368  0.94270287  0.72635207  1  0.414763  0.005887  0.024363  0.023459  0.003363  3.919346  0.005
C  C60  1  0.58058555  0.30693844  0.52328898  1  0.532751  0.005718  0.024349  0.023461  0.003362  3.919227  0.005
C  C61  1  0.78364811  0.05729561  0.47671277  1  0.545865  0.005756  0.024285  0.023339  0.003362  3.919498  0.005
C  C62  1  0.47671471  0.78365377  0.05730007  1  0.548131  0.005751  0.024417  0.023595  0.003362  3.919149  0.005
C  C63  1  0.52328631  0.58058526  0.30693910  1  0.537957  0.005711  0.024428  0.02356  0.003362  3.919108  0.005
C  C64  1  0.72635237  0.41941142  0.94269903  1  0.414584  0.005888  0.024382  0.023439  0.003362  3.919251  0.005
C  C65  1  0.27364821  0.21634561  0.69305862  1  0.544192  0.005697  0.024407  0.023527  0.003362  3.919158  0.005
N  N66  1  0.71338153  0.44084148  0.09322457  1  -1.20575  0.076582  -0.356999  -0.335509  0.040143  3.634747  0.053
N  N67  1  0.65238422  0.55916016  0.27254158  1  -1.198369  0.076664  -0.356976  -0.335497  0.040142  3.634766  0.053
N  N68  1  0.34761610  0.62015756  0.90677593  1  -1.20414  0.076714  -0.356999  -0.335516  0.040143  3.634769  0.053
N  N69  1  0.28662050  0.37984503  0.72745992  1  -1.196719  0.076746  -0.356949  -0.335476  0.040142  3.634876  0.053
N  N70  1  0.55915287  0.27253624  0.65238005  1  -1.195776  0.076659  -0.357  -0.335545  0.040144  3.635116  0.053
N  N71  1  0.44084708  0.09322717  0.71338384  1  -1.205678  0.07658  -0.356993  -0.335521  0.040143  3.634996  0.053
N  N72  1  0.37984210  0.72746315  0.28661610  1  -1.196875  0.076748  -0.357015  -0.335666  0.040143  3.634921  0.053
N  N73  1  0.62015689  0.90677342  0.34761960  1  -1.204824  0.076717  -0.357011  -0.335544  0.040143  3.634974  0.053
N  N74  1  0.72745820  0.28661871  0.37984295  1  -1.196815  0.076747  -0.357003  -0.335551  0.040145  3.635022  0.053
N  N75  1  0.90677556  0.34761470  0.62015786  1  -1.204846  0.076719  -0.356999  -0.3355  0.040145  3.635015  0.053
N  N76  1  0.27254108  0.65238444  0.55915981  1  -1.197762  0.076657  -0.357024  -0.335565  0.040146  3.635092  0.053
N  N77  1  0.09322409  0.71338213  0.44083896  1  -1.205593  0.076583  -0.356981  -0.33548  0.040145  3.634994  0.053
N  N78  1  0.27253757  0.55915742  0.65238234  1  -1.198456  0.076667  -0.357014  -0.335559  0.040142  3.634769  0.053
N  N79  1  0.09322469  0.44084182  0.71338102  1  -1.205782  0.076581  -0.35701  -0.335546  0.040142  3.634801  0.053
N  N80  1  0.72746210  0.37984448  0.28661928  1  -1.196779  0.076746  -0.357001  -0.335562  0.040142  3.634907  0.053
N  N81  1  0.90677498  0.62015586  0.34761695  1  -1.204521  0.076715  -0.357012  -0.335559  0.040142  3.634811  0.053
N  N82  1  0.28661616  0.72746206  0.37984041  1  -1.197368  0.076748  -0.357061  -0.335646  0.040142  3.634843  0.053
N  N83  1  0.34761771  0.90677659  0.62015726  1  -1.204651  0.076717  -0.357044  -0.335544  0.040143  3.634969  0.053
N  N84  1  0.65238209  0.27253896  0.55915890  1  -1.195405  0.076656  -0.357006  -0.335515  0.040143  3.634931  0.053
N  N85  1  0.71338276  0.09322298  0.44084464  1  -1.205734  0.076574  -0.357067  -0.335526  0.040142  3.63505  0.053
N  N86  1  0.44084272  0.71338510  0.09322714  1  -1.205505  0.07658  -0.357032  -0.335613  0.040146  3.635105  0.053
N  N87  1  0.55915715  0.65238392  0.27254210  1  -1.197787  0.076654  -0.356994  -0.335559  0.040145  3.635108  0.053
N  N88  1  0.62015639  0.34761294  0.90677288  1  -1.204344  0.076716  -0.356999  -0.335521  0.040145  3.634921  0.053
N  N89  1  0.37984506  0.28661793  0.72745719  1  -1.196878  0.07675  -0.356995  -0.335617  0.040148  3.635095  0.053
N  N90  1  0.51883794  0.30637112  0.99999235  1  0.291071  -0.002941  0.043386  0.461883  -0.003847  4.267388  -0.003
N  N91  1  0.69362011  0.69362935  0.21246683  1  0.282799  -0.002945  0.043321  0.461786  -0.003847  4.267353  -0.003
N  N92  1  0.30637963  0.51884675  0.00000929  1  0.290859  -0.002941  0.043417  0.461916  -0.003847  4.267321  -0.003
N  N93  1  0.48116368  0.48115437  0.78753313  1  0.26547  -0.002938  0.043309  0.461761  -0.003847  4.267515  -0.003
N  N94  1  0.69362128  0.21246260  0.69362233  1  0.283751  -0.002948  0.043471  0.461975  -0.003849  4.267162  -0.003
N  N95  1  0.30637792  0.00000148  0.51884137  1  0.290713  -0.002942  0.043467  0.461978  -0.003848  4.267109  -0.003
N  N96  1  0.48115608  0.78753633  0.48115713  1  0.264721  -0.002938  0.043432  0.4619  -0.003848  4.267186  -0.003
N  N97  1  0.51884326  0.00000074  0.30637926  1  0.290645  -0.002942  0.043465  0.462  -0.003848  4.267107  -0.003
N  N98  1  0.78753469  0.48115613  0.48116354  1  0.265302  -0.002938  0.043383  0.461889  -0.003847  4.26736  -0.003
N  N99  1  0.99999201  0.30637099  0.51883737  1  0.291049  -0.002942  0.043453  0.462002  -0.003848  4.267253  -0.003
N  N100  1  0.21246428  0.69362855  0.69362047  1  0.283669  -0.002945  0.043395  0.461935  -0.003846  4.267274  -0.003
N  N101  1  0.00000706  0.51884425  0.30637916  1  0.290909  -0.002941  0.043372  0.461916  -0.003847  4.267288  -0.003
O  O102  1  0.43326764  0.23699145  0.90881695  1  -0.477259  0.017866  -0.139385  -0.347056  0.008477  1.971871  0.015
O  O103  1  0.67182332  0.76300842  0.19627421  1  -0.478114  0.017879  -0.139377  -0.347096  0.008477  1.971857  0.015
O  O104  1  0.32817490  0.52445094  0.09118413  1  -0.479211  0.017813  -0.139439  -0.347133  0.008477  1.971859  0.015
O  O105  1  0.56673364  0.47554726  0.80372363  1  -0.476292  0.017879  -0.139354  -0.347006  0.008478  1.971924  0.015
O  O106  1  0.76300472  0.19627320  0.67183104  1  -0.477881  0.017879  -0.139425  -0.347079  0.008476  1.971615  0.015
O  O107  1  0.23699431  0.90882648  0.43326828  1  -0.476988  0.017866  -0.139397  -0.347033  0.008476  1.971609  0.015
O  O108  1  0.47555579  0.80372794  0.56673093  1  -0.475725  0.017876  -0.139445  -0.347111  0.008476  1.971756  0.015
O  O109  1  0.52444358  0.09117512  0.32817116  1  -0.47912  0.017813  -0.139446  -0.347114  0.008476  1.971704  0.015
O  O110  1  0.80372854  0.56673087  0.47556882  1  -0.475618  0.017866  -0.139394  -0.346971  0.00847  1.971633  0.015
O  O111  1  0.09116040  0.32815797  0.52443142  1  -0.478852  0.017801  -0.139403  -0.346999  0.00847  1.971608  0.015
O  O112  1  0.19627043  0.67183904  0.76300146  1  -0.47839  0.01787  -0.139395  -0.34701  0.008471  1.971539  0.015
O  O113  1  0.90883812  0.43326983  0.23699960  1  -0.476722  0.017854  -0.139356  -0.346933  0.00847  1.971576  0.015
O  O114  1  0.19627360  0.76300940  0.67182378  1  -0.478151  0.017879  -0.13932  -0.34703  0.008477  1.971805  0.015
O  O115  1  0.90881413  0.23699054  0.43326650  1  -0.477307  0.017869  -0.139426  -0.347122  0.008478  1.971781  0.015
O  O116  1  0.80372520  0.47554881  0.56673415  1  -0.476149  0.017879  -0.139362  -0.347047  0.008477  1.971814  0.015
O  O117  1  0.09118353  0.52444958  0.32817523  1  -0.479195  0.017816  -0.139378  -0.347094  0.008478  1.971794  0.015
O  O118  1  0.56673035  0.80372825  0.47555886  1  -0.475782  0.017875  -0.139432  -0.347061  0.008475  1.971703  0.015
O  O119  1  0.32816976  0.09117506  0.52443994  1  -0.479135  0.01781  -0.139449  -0.347111  0.008474  1.971658  0.015
O  O120  1  0.67182951  0.19626896  0.76300367  1  -0.477941  0.017877  -0.139422  -0.347083  0.008475  1.971665  0.015
O  O121  1  0.43326888  0.90882729  0.23699597  1  -0.476954  0.017866  -0.139442  -0.347097  0.008476  1.971648  0.015
O  O122  1  0.23699827  0.43327256  0.90883851  1  -0.476676  0.017858  -0.139388  -0.34696  0.008472  1.97162  0.015
O  O123  1  0.76300051  0.67183922  0.19627316  1  -0.478316  0.01787  -0.139341  -0.3469  0.008472  1.971605  0.015
O  O124  1  0.52443489  0.32816046  0.09116318  1  -0.478884  0.017803  -0.139379  -0.346967  0.008471  1.971648  0.015
O  O125  1  0.47556836  0.56673003  0.80372744  1  -0.475655  0.017865  -0.139366  -0.346937  0.00847  1.971622  0.015
