# generated using pymatgen
data_SrH11PtC19N7
_symmetry_space_group_name_H-M   'P 1'
_cell_length_a   8.68944743
_cell_length_b   8.68950717
_cell_length_c   13.48047874
_cell_angle_alpha   80.48706572
_cell_angle_beta   80.48740802
_cell_angle_gamma   75.33524782
_symmetry_Int_Tables_number   1
_chemical_formula_structural   SrH11PtC19N7
_chemical_formula_sum   'Sr2 H22 Pt2 C38 N14'
_cell_volume   963.01083318
_cell_formula_units_Z   2
loop_
 _symmetry_equiv_pos_site_id
 _symmetry_equiv_pos_as_xyz
  1  'x, y, z'
loop_
 _atom_site_type_symbol
 _atom_site_label
 _atom_site_symmetry_multiplicity
 _atom_site_fract_x
 _atom_site_fract_y
 _atom_site_fract_z
 _atom_site_occupancy
 _atom_site_hle17_bader_spin_density
 _atom_site_hle17_ddec_charge
 _atom_site_hle17_ddec_spin_density
 _atom_site_hle17_ddec_sum_bond_order
 _atom_site_hle17_magmom
 _atom_site_hse06_10hf_bader_spin_density
 _atom_site_hse06_10hf_ddec_charge
 _atom_site_hse06_10hf_ddec_spin_density
 _atom_site_hse06_10hf_ddec_sum_bond_order
 _atom_site_hse06_10hf_magmom
 _atom_site_hse06_bader_spin_density
 _atom_site_hse06_ddec_charge
 _atom_site_hse06_ddec_spin_density
 _atom_site_hse06_ddec_sum_bond_order
 _atom_site_hse06_magmom
 _atom_site_pbe_bader_spin_density
 _atom_site_pbe_cm5_charge
 _atom_site_pbe_ddec_charge
 _atom_site_pbe_ddec_spin_density
 _atom_site_pbe_ddec_sum_bond_order
 _atom_site_pbe_magmom
Sr  Sr0  1  0.89422097  0.10577831  0.25000089  1  0  1.447027  0  1.297997  0  0  1.26187  0  1.701088  0  0  1.300366  0  1.662898  0  0  1.0585  1.234127  0  1.727807  0
Sr  Sr1  1  0.10577094  0.89422548  0.74999913  1  0  1.447054  0  1.29791  0  0  1.261906  0  1.700978  0  0  1.300404  0  1.662784  0  0  1.05844  1.234172  0  1.7277  0
H  H2  1  0.27326882  0.72673498  0.24999972  1  0  0.106369  0  0.953185  0  0  0.114112  0  1.015217  0  0  0.116299  0  1.014926  0  0  0.11119  0.112513  0  1.015501  0
H  H3  1  0.72673329  0.27326530  0.75000104  1  0  0.106362  0  0.953125  0  0  0.114114  0  1.015156  0  0  0.116283  0  1.014884  0  0  0.111194  0.112514  0  1.01544  0
H  H4  1  0.31482836  0.53316886  0.40528334  1  0  0.089395  0  0.995166  0  0  0.09066  0  1.075242  0  0  0.094967  0  1.071693  0  0  0.092962  0.087556  0  1.077853  0
H  H5  1  0.46683378  0.68517466  0.09471537  1  0  0.089367  0  0.995218  0  0  0.090633  0  1.075289  0  0  0.094942  0  1.071737  0  0  0.092974  0.087532  0  1.0779  0
H  H6  1  0.68517081  0.46682897  0.59471505  1  0  0.089393  0  0.995157  0  0  0.09067  0  1.075223  0  0  0.094979  0  1.071666  0  0  0.092989  0.087567  0  1.07785  0
H  H7  1  0.53316863  0.31482924  0.90528497  1  0  0.089404  0  0.995167  0  0  0.090686  0  1.075219  0  0  0.094993  0  1.071666  0  0  0.093003  0.087579  0  1.077843  0
H  H8  1  0.33551800  0.36323343  0.51760226  1  0  0.088281  0  0.996936  0  0  0.088384  0  1.078235  0  0  0.092899  0  1.074475  0  0  0.091717  0.085127  0  1.08101  0
H  H9  1  0.63677018  0.66448258  0.98239723  1  0  0.088286  0  0.99692  0  0  0.088394  0  1.078202  0  0  0.092912  0  1.074438  0  0  0.091727  0.085136  0  1.08098  0
H  H10  1  0.66447856  0.63676079  0.48239905  1  0  0.08827  0  0.996987  0  0  0.088392  0  1.078256  0  0  0.092909  0  1.074491  0  0  0.091726  0.085135  0  1.081034  0
H  H11  1  0.36323802  0.33552135  0.01759951  1  0  0.088277  0  0.996941  0  0  0.088392  0  1.07822  0  0  0.092911  0  1.074451  0  0  0.091722  0.085135  0  1.080997  0
H  H12  1  0.39437346  0.16913216  0.67043450  1  0  0.102583  0  0.953155  0  0  0.112924  0  1.011584  0  0  0.115347  0  1.010526  0  0  0.112141  0.111157  0  1.012377  0
H  H13  1  0.83087175  0.60562690  0.82956629  1  0  0.102581  0  0.953166  0  0  0.112916  0  1.011608  0  0  0.115345  0  1.010536  0  0  0.112122  0.111157  0  1.012395  0
H  H14  1  0.60562572  0.83086089  0.32956665  1  0  0.10258  0  0.953178  0  0  0.112921  0  1.0116  0  0  0.115348  0  1.010541  0  0  0.112137  0.111155  0  1.012394  0
H  H15  1  0.16914171  0.39437470  0.17043308  1  0  0.102568  0  0.953167  0  0  0.112912  0  1.011585  0  0  0.115332  0  1.010538  0  0  0.112129  0.111141  0  1.012381  0
H  H16  1  0.65921825  0.96463060  0.66554132  1  0  0.111171  0  0.942944  0  0  0.120926  0  1.001318  0  0  0.123858  0  1.001118  0  0  0.11417  0.11884  0  1.001588  0
H  H17  1  0.03537148  0.34078047  0.83445939  1  0  0.111167  0  0.942895  0  0  0.120926  0  1.001263  0  0  0.123858  0  1.001063  0  0  0.114156  0.118841  0  1.001525  0
H  H18  1  0.34078122  0.03536605  0.33445940  1  0  0.111201  0  0.942872  0  0  0.120958  0  1.001243  0  0  0.123891  0  1.001042  0  0  0.11418  0.118871  0  1.001503  0
H  H19  1  0.96463996  0.65921991  0.16554183  1  0  0.111212  0  0.942894  0  0  0.120974  0  1.00126  0  0  0.123906  0  1.00106  0  0  0.114163  0.118886  0  1.001518  0
H  H20  1  0.84461680  0.95953920  0.50347531  1  0  0.069236  0  0.960207  0  0  0.076792  0  1.026156  0  0  0.078396  0  1.02574  0  0  0.11849  0.075627  0  1.026482  0
H  H21  1  0.04045589  0.15538069  0.99652525  1  0  0.069239  0  0.960218  0  0  0.076767  0  1.026185  0  0  0.078371  0  1.02577  0  0  0.118492  0.0756  0  1.026505  0
H  H22  1  0.15538443  0.04045987  0.49652569  1  0  0.069233  0  0.960169  0  0  0.076771  0  1.026128  0  0  0.078374  0  1.025715  0  0  0.118498  0.075605  0  1.026453  0
H  H23  1  0.95954651  0.84461840  0.00347636  1  0  0.06925  0  0.960179  0  0  0.076753  0  1.026173  0  0  0.078357  0  1.025758  0  0  0.118497  0.075588  0  1.026496  0
Pt  Pt24  1  0.49999397  0.00000302  0.00000724  1  0  0.056956  0  4.11743  0  0  0.102491  0  4.673327  0  0  0.091182  0  4.646802  0  0  0.551934  0.112  0  4.690374  0
Pt  Pt25  1  0.00000228  0.50000249  0.49999235  1  0  0.056851  0  4.117503  0  0  0.10242  0  4.673357  0  0  0.091163  0  4.646759  0  0  0.551883  0.11193  0  4.690404  0
C  C26  1  0.63431037  0.97911156  0.10847328  1  0  0.10628  0  3.631193  0  0  0.070595  0  3.978372  0  0  0.083736  0  3.986077  0  0  0.007039  0.061267  0  3.972906  0
C  C27  1  0.02089228  0.36568476  0.39152439  1  0  0.106267  0  3.631471  0  0  0.070574  0  3.978634  0  0  0.083702  0  3.986332  0  0  0.00712  0.061248  0  3.973165  0
C  C28  1  0.36567437  0.02089347  0.89154223  1  0  0.106153  0  3.631443  0  0  0.070477  0  3.978619  0  0  0.083618  0  3.986324  0  0  0.007009  0.061151  0  3.973152  0
C  C29  1  0.97911028  0.63431780  0.60845605  1  0  0.106161  0  3.630947  0  0  0.070462  0  3.978149  0  0  0.083594  0  3.985852  0  0  0.007015  0.061135  0  3.972685  0
C  C30  1  0.37584613  0.62415661  0.24999933  1  0  0.001343  0  3.729639  0  0  -0.012647  0  3.972593  0  0  -0.01023  0  3.993816  0  0  -0.066415  -0.013945  0  3.957954  0
C  C31  1  0.62415625  0.37584246  0.75000006  1  0  0.001444  0  3.729438  0  0  -0.012548  0  3.972393  0  0  -0.010117  0  3.993624  0  0  -0.066382  -0.013838  0  3.957755  0
C  C32  1  0.39947685  0.51498859  0.33683778  1  0  -0.133915  0  3.710243  0  0  -0.153006  0  3.957158  0  0  -0.160499  0  3.979272  0  0  -0.080241  -0.14804  0  3.942263  0
C  C33  1  0.48501311  0.60052642  0.16316050  1  0  -0.133889  0  3.710334  0  0  -0.152976  0  3.957246  0  0  -0.160466  0  3.979357  0  0  -0.080262  -0.148012  0  3.942353  0
C  C34  1  0.60052350  0.48500926  0.66316122  1  0  -0.134009  0  3.710258  0  0  -0.153111  0  3.957187  0  0  -0.160601  0  3.979297  0  0  -0.080267  -0.148151  0  3.942298  0
C  C35  1  0.51498609  0.39947624  0.83683959  1  0  -0.133986  0  3.710287  0  0  -0.15308  0  3.957207  0  0  -0.160569  0  3.979314  0  0  -0.080304  -0.148113  0  3.942312  0
C  C36  1  0.53249177  0.38377349  0.33486727  1  0  0.18854  0  3.741345  0  0  0.189862  0  3.978663  0  0  0.196434  0  3.998005  0  0  0.127554  0.185489  0  3.965442  0
C  C37  1  0.61622630  0.46750895  0.16513210  1  0  0.188538  0  3.741411  0  0  0.189856  0  3.978727  0  0  0.196426  0  3.998068  0  0  0.127552  0.18549  0  3.965499  0
C  C38  1  0.46750741  0.61622436  0.66513260  1  0  0.188629  0  3.741277  0  0  0.189929  0  3.978623  0  0  0.196498  0  3.997966  0  0  0.127525  0.185558  0  3.9654  0
C  C39  1  0.38377346  0.53249130  0.83486670  1  0  0.188518  0  3.741355  0  0  0.189811  0  3.9787  0  0  0.196381  0  3.998043  0  0  0.127511  0.185439  0  3.965481  0
C  C40  1  0.56136142  0.26659305  0.42789777  1  0  0.178296  0  3.751154  0  0  0.177439  0  3.988708  0  0  0.18347  0  4.009524  0  0  0.123325  0.173423  0  3.974549  0
C  C41  1  0.73340731  0.43863828  0.07210199  1  0  0.178253  0  3.751234  0  0  0.177392  0  3.988798  0  0  0.183429  0  4.009604  0  0  0.123324  0.173375  0  3.974634  0
C  C42  1  0.43863689  0.73340359  0.57210308  1  0  0.178323  0  3.75106  0  0  0.177441  0  3.988663  0  0  0.183476  0  4.009473  0  0  0.123353  0.17343  0  3.974498  0
C  C43  1  0.26659565  0.56136321  0.92789633  1  0  0.178278  0  3.751057  0  0  0.177399  0  3.988649  0  0  0.183439  0  4.009451  0  0  0.123303  0.173385  0  3.974491  0
C  C44  1  0.44923861  0.27433467  0.51585104  1  0  -0.146037  0  3.71008  0  0  -0.161213  0  3.957116  0  0  -0.169641  0  3.980064  0  0  -0.082553  -0.155628  0  3.941625  0
C  C45  1  0.72566818  0.55076301  0.98414813  1  0  -0.145965  0  3.710016  0  0  -0.161137  0  3.957043  0  0  -0.169566  0  3.979989  0  0  -0.082543  -0.155551  0  3.94156  0
C  C46  1  0.55075970  0.72566196  0.48414832  1  0  -0.146012  0  3.710141  0  0  -0.161204  0  3.957173  0  0  -0.169634  0  3.980123  0  0  -0.082542  -0.155625  0  3.941693  0
C  C47  1  0.27433887  0.44924093  0.01585095  1  0  -0.146069  0  3.710141  0  0  -0.16125  0  3.957165  0  0  -0.16968  0  3.98011  0  0  -0.082577  -0.155672  0  3.941683  0
C  C48  1  0.48150208  0.16526806  0.60214264  1  0  0.002033  0  3.713639  0  0  -0.014518  0  3.958335  0  0  -0.011528  0  3.978354  0  0  -0.062253  -0.016132  0  3.944483  0
C  C49  1  0.83473521  0.51849910  0.89785760  1  0  0.001901  0  3.713804  0  0  -0.014657  0  3.958522  0  0  -0.011668  0  3.978548  0  0  -0.062303  -0.016283  0  3.944685  0
C  C50  1  0.51849564  0.83472617  0.39785780  1  0  0.002033  0  3.713757  0  0  -0.014509  0  3.95844  0  0  -0.011524  0  3.978464  0  0  -0.062263  -0.016129  0  3.944593  0
C  C51  1  0.16527680  0.48150369  0.10214255  1  0  0.002063  0  3.713682  0  0  -0.014478  0  3.958371  0  0  -0.011493  0  3.978392  0  0  -0.062266  -0.016097  0  3.944513  0
C  C52  1  0.62671165  0.05105200  0.59968565  1  0  -0.105978  0  3.702497  0  0  -0.120756  0  3.954417  0  0  -0.127269  0  3.975652  0  0  -0.073754  -0.116562  0  3.940026  0
C  C53  1  0.94894873  0.37328895  0.90031552  1  0  -0.10597  0  3.702559  0  0  -0.120749  0  3.954464  0  0  -0.127261  0  3.975701  0  0  -0.073771  -0.116546  0  3.940065  0
C  C54  1  0.37328928  0.94894346  0.40031504  1  0  -0.106063  0  3.702472  0  0  -0.120848  0  3.954396  0  0  -0.12736  0  3.975629  0  0  -0.073794  -0.116643  0  3.939989  0
C  C55  1  0.05106125  0.62671263  0.09968572  1  0  -0.106133  0  3.702528  0  0  -0.120928  0  3.954447  0  0  -0.12744  0  3.975678  0  0  -0.0738  -0.116724  0  3.94004  0
C  C56  1  0.73120077  0.04917609  0.50926352  1  0  0.133748  0  3.732157  0  0  0.106829  0  3.986934  0  0  0.112791  0  4.006056  0  0  0.055421  0.103064  0  3.973756  0
C  C57  1  0.95082195  0.26879736  0.99073772  1  0  0.133799  0  3.732161  0  0  0.106915  0  3.986924  0  0  0.112876  0  4.006048  0  0  0.055499  0.103148  0  3.973735  0
C  C58  1  0.26879987  0.95082057  0.49073706  1  0  0.133834  0  3.732122  0  0  0.106934  0  3.986899  0  0  0.112895  0  4.006021  0  0  0.055458  0.103165  0  3.973715  0
C  C59  1  0.04918365  0.73120297  0.00926341  1  0  0.133817  0  3.732086  0  0  0.106949  0  3.986851  0  0  0.11291  0  4.005973  0  0  0.055467  0.103178  0  3.973672  0
C  C60  1  0.30445621  0.01425376  0.09974403  1  0  0.105145  0  3.630785  0  0  0.073832  0  3.973627  0  0  0.086619  0  3.981196  0  0  0.008706  0.064683  0  3.968342  0
C  C61  1  0.98574490  0.69553968  0.40025632  1  0  0.105224  0  3.630908  0  0  0.073913  0  3.973731  0  0  0.086688  0  3.981296  0  0  0.008759  0.064766  0  3.968447  0
C  C62  1  0.69553316  0.98574168  0.90027054  1  0  0.105243  0  3.630829  0  0  0.073956  0  3.973643  0  0  0.086742  0  3.981218  0  0  0.008851  0.06481  0  3.96836  0
C  C63  1  0.01425478  0.30446529  0.59972936  1  0  0.105241  0  3.630761  0  0  0.073941  0  3.973583  0  0  0.086717  0  3.981152  0  0  0.008795  0.064793  0  3.968299  0
N  N64  1  0.71702442  0.96861869  0.17087590  1  0  -0.494166  0  2.85613  0  0  -0.433595  0  3.12966  0  0  -0.45072  0  3.140218  0  0  -0.421951  -0.421657  0  3.122444  0
N  N65  1  0.03138587  0.28297502  0.32912663  1  0  -0.494105  0  2.856491  0  0  -0.433535  0  3.130015  0  0  -0.450657  0  3.140577  0  0  -0.421989  -0.421598  0  3.122798  0
N  N66  1  0.28296205  0.03138393  0.82913672  1  0  -0.494085  0  2.856466  0  0  -0.433533  0  3.130025  0  0  -0.450657  0  3.14058  0  0  -0.421911  -0.421601  0  3.122815  0
N  N67  1  0.96861648  0.71702882  0.67086556  1  0  -0.49408  0  2.855857  0  0  -0.433507  0  3.129412  0  0  -0.450631  0  3.139973  0  0  -0.421926  -0.421572  0  3.122202  0
N  N68  1  0.63876075  0.36123910  0.24999951  1  0  -0.408005  0  3.105752  0  0  -0.358926  0  3.353196  0  0  -0.37302  0  3.368913  0  0  -0.348656  -0.349133  0  3.342329  0
N  N69  1  0.36123931  0.63875995  0.74999940  1  0  -0.408025  0  3.105672  0  0  -0.358906  0  3.3531  0  0  -0.373001  0  3.368819  0  0  -0.348608  -0.349111  0  3.342232  0
N  N70  1  0.70016369  0.15207986  0.42503679  1  0  -0.405866  0  3.165231  0  0  -0.348504  0  3.420102  0  0  -0.364236  0  3.438568  0  0  -0.367965  -0.337662  0  3.407364  0
N  N71  1  0.84791687  0.29983593  0.07496321  1  0  -0.405858  0  3.165266  0  0  -0.348504  0  3.420133  0  0  -0.364237  0  3.438598  0  0  -0.368  -0.337662  0  3.407386  0
N  N72  1  0.29983667  0.84791801  0.57496444  1  0  -0.405945  0  3.165256  0  0  -0.34858  0  3.420141  0  0  -0.364314  0  3.438606  0  0  -0.368015  -0.337738  0  3.407397  0
N  N73  1  0.15208348  0.70016673  0.92503527  1  0  -0.405808  0  3.16502  0  0  -0.34844  0  3.419872  0  0  -0.364176  0  3.438339  0  0  -0.367946  -0.337598  0  3.407132  0
N  N74  1  0.18542769  0.02386331  0.15618913  1  0  -0.490598  0  2.847112  0  0  -0.430109  0  3.119384  0  0  -0.446936  0  3.129641  0  0  -0.416094  -0.418342  0  3.112403  0
N  N75  1  0.97612660  0.81456870  0.34381035  1  0  -0.490631  0  2.847207  0  0  -0.430152  0  3.119486  0  0  -0.446979  0  3.129748  0  0  -0.416122  -0.418389  0  3.112509  0
N  N76  1  0.81455638  0.97612001  0.84382068  1  0  -0.490615  0  2.847213  0  0  -0.430141  0  3.119474  0  0  -0.44697  0  3.129736  0  0  -0.416152  -0.418379  0  3.1125  0
N  N77  1  0.02386758  0.18543985  0.65617851  1  0  -0.490599  0  2.847117  0  0  -0.430123  0  3.119385  0  0  -0.44695  0  3.129651  0  0  -0.416096  -0.418357  0  3.112405  0
