# generated using pymatgen
data_H12PbC14(NO2)2
_symmetry_space_group_name_H-M   'P 1'
_cell_length_a   6.75160700
_cell_length_b   7.94144478
_cell_length_c   13.83813040
_cell_angle_alpha   74.89329209
_cell_angle_beta   88.08072471
_cell_angle_gamma   69.27613573
_symmetry_Int_Tables_number   1
_chemical_formula_structural   H12PbC14(NO2)2
_chemical_formula_sum   'H24 Pb2 C28 N4 O8'
_cell_volume   668.55809514
_cell_formula_units_Z   2
loop_
 _symmetry_equiv_pos_site_id
 _symmetry_equiv_pos_as_xyz
  1  'x, y, z'
loop_
 _atom_site_type_symbol
 _atom_site_label
 _atom_site_symmetry_multiplicity
 _atom_site_fract_x
 _atom_site_fract_y
 _atom_site_fract_z
 _atom_site_occupancy
 _atom_site_hle17_bader_spin_density
 _atom_site_hle17_ddec_charge
 _atom_site_hle17_ddec_spin_density
 _atom_site_hle17_ddec_sum_bond_order
 _atom_site_hle17_magmom
 _atom_site_hse06_10hf_bader_spin_density
 _atom_site_hse06_10hf_ddec_charge
 _atom_site_hse06_10hf_ddec_spin_density
 _atom_site_hse06_10hf_ddec_sum_bond_order
 _atom_site_hse06_10hf_magmom
 _atom_site_hse06_bader_spin_density
 _atom_site_hse06_ddec_charge
 _atom_site_hse06_ddec_spin_density
 _atom_site_hse06_ddec_sum_bond_order
 _atom_site_hse06_magmom
 _atom_site_pbe_bader_spin_density
 _atom_site_pbe_cm5_charge
 _atom_site_pbe_ddec_charge
 _atom_site_pbe_ddec_spin_density
 _atom_site_pbe_ddec_sum_bond_order
 _atom_site_pbe_magmom
H  H0  1  0.58433491  0.67813523  0.35693911  1  0  0.32106  0  0.899606  0  0  0.310614  0  0.95767  0  0  0.316624  0  0.952742  0  0  0.298255  0.30638  0  0.961049  0
H  H1  1  0.41564946  0.32187263  0.64305260  1  0  0.321042  0  0.899559  0  0  0.310641  0  0.957559  0  0  0.31665  0  0.952628  0  0  0.298286  0.306407  0  0.96094  0
H  H2  1  0.62642109  0.56305993  0.48086217  1  0  0.293419  0  0.938126  0  0  0.283595  0  0.999056  0  0  0.288456  0  0.996081  0  0  0.293186  0.280134  0  1.001169  0
H  H3  1  0.37357002  0.43695337  0.51913082  1  0  0.293472  0  0.938045  0  0  0.283617  0  0.999013  0  0  0.288473  0  0.996045  0  0  0.293197  0.280157  0  1.001125  0
H  H4  1  0.01729052  0.23749005  0.96307856  1  0  0.321936  0  0.904097  0  0  0.306388  0  0.966214  0  0  0.313827  0  0.960619  0  0  0.297193  0.301061  0  0.970227  0
H  H5  1  0.98272167  0.76249235  0.03692213  1  0  0.321852  0  0.904129  0  0  0.30633  0  0.966229  0  0  0.313772  0  0.960634  0  0  0.297167  0.301004  0  0.970241  0
H  H6  1  0.02652566  0.14044558  0.86939493  1  0  0.32682  0  0.916532  0  0  0.310747  0  0.977762  0  0  0.318595  0  0.971795  0  0  0.295836  0.305134  0  0.982018  0
H  H7  1  0.97347837  0.85954249  0.13060435  1  0  0.326832  0  0.916582  0  0  0.31076  0  0.977795  0  0  0.318611  0  0.971828  0  0  0.295848  0.305141  0  0.982065  0
H  H8  1  0.67935296  0.51848827  0.22692312  1  0  0.073577  0  1.002177  0  0  0.08438  0  1.073028  0  0  0.08674  0  1.072225  0  0  0.096493  0.082683  0  1.073765  0
H  H9  1  0.32062303  0.48151828  0.77306964  1  0  0.07366  0  1.002181  0  0  0.084446  0  1.073042  0  0  0.08682  0  1.072227  0  0  0.096563  0.08275  0  1.073778  0
H  H10  1  0.74064412  0.21793784  0.53861859  1  0  0.097345  0  0.956931  0  0  0.109335  0  1.016451  0  0  0.112843  0  1.0145  0  0  0.09972  0.106775  0  1.017998  0
H  H11  1  0.25935595  0.78207530  0.46137717  1  0  0.097302  0  0.956893  0  0  0.109293  0  1.016418  0  0  0.112803  0  1.014466  0  0  0.099682  0.106716  0  1.017985  0
H  H12  1  0.79380179  0.92860358  0.48923343  1  0  0.081382  0  0.97843  0  0  0.094186  0  1.037742  0  0  0.096212  0  1.037403  0  0  0.097055  0.09274  0  1.038059  0
H  H13  1  0.20619660  0.07140255  0.51076624  1  0  0.081458  0  0.978564  0  0  0.094245  0  1.03786  0  0  0.096272  0  1.037519  0  0  0.097073  0.092801  0  1.038171  0
H  H14  1  0.78071998  0.93191025  0.30866763  1  0  0.095132  0  0.964666  0  0  0.101511  0  1.034836  0  0  0.105645  0  1.031687  0  0  0.09658  0.098579  0  1.037084  0
H  H15  1  0.21927746  0.06809454  0.69133081  1  0  0.095146  0  0.964611  0  0  0.101497  0  1.034825  0  0  0.105631  0  1.031677  0  0  0.096583  0.098565  0  1.037073  0
H  H16  1  0.84985022  0.57148234  0.94396041  1  0  0.106777  0  0.971666  0  0  0.114621  0  1.041613  0  0  0.118552  0  1.038419  0  0  0.103739  0.111794  0  1.044005  0
H  H17  1  0.15014268  0.42850015  0.05604564  1  0  0.106759  0  0.971648  0  0  0.114688  0  1.041483  0  0  0.118613  0  1.038311  0  0  0.103748  0.11186  0  1.043874  0
H  H18  1  0.91473068  0.32613202  0.69630786  1  0  0.105775  0  0.945863  0  0  0.118595  0  1.004282  0  0  0.122002  0  1.00198  0  0  0.10489  0.116146  0  1.005973  0
H  H19  1  0.08527658  0.67386289  0.30369328  1  0  0.105921  0  0.946002  0  0  0.118754  0  1.004376  0  0  0.122161  0  1.002074  0  0  0.104988  0.116304  0  1.006068  0
H  H20  1  0.81185423  0.64159115  0.57766200  1  0  0.078964  0  0.963133  0  0  0.091648  0  1.023112  0  0  0.094607  0  1.021436  0  0  0.09735  0.089523  0  1.024434  0
H  H21  1  0.18814232  0.35841214  0.42234173  1  0  0.078922  0  0.963284  0  0  0.091629  0  1.02324  0  0  0.094591  0  1.021564  0  0  0.097332  0.089504  0  1.024564  0
H  H22  1  0.71003085  0.92540481  0.64285642  1  0  0.092224  0  0.966372  0  0  0.101183  0  1.032834  0  0  0.104276  0  1.030928  0  0  0.100093  0.099036  0  1.034131  0
H  H23  1  0.28998025  0.07459541  0.35715329  1  0  0.092166  0  0.966414  0  0  0.101101  0  1.032904  0  0  0.10419  0  1.031  0  0  0.10006  0.098942  0  1.03423  0
Pb  Pb24  1  0.57318612  0.23656288  0.94712956  1  0  1.290974  0  1.391055  0  0  1.111763  0  1.773489  0  0  1.171448  0  1.73421  0  0  0.63423  1.06877  0  1.801101  0
Pb  Pb25  1  0.42682030  0.76345297  0.05286571  1  0  1.291001  0  1.391091  0  0  1.111769  0  1.773511  0  0  1.171455  0  1.734227  0  0  0.634233  1.068776  0  1.801123  0
C  C26  1  0.72078642  0.23257339  0.14865028  1  0  0.649788  0  3.892879  0  0  0.597755  0  4.18259  0  0  0.632669  0  4.176069  0  0  0.212342  0.574026  0  4.186094  0
C  C27  1  0.27921173  0.76742583  0.85134895  1  0  0.649697  0  3.892975  0  0  0.597621  0  4.18277  0  0  0.632532  0  4.176252  0  0  0.212281  0.573891  0  4.186273  0
C  C28  1  0.73005388  0.22613990  0.25697599  1  0  -0.050463  0  3.806844  0  0  -0.02648  0  4.039225  0  0  -0.032493  0  4.063013  0  0  -0.022499  -0.022523  0  4.023409  0
C  C29  1  0.26993500  0.77386781  0.74302001  1  0  -0.050374  0  3.806622  0  0  -0.02641  0  4.039044  0  0  -0.032421  0  4.062835  0  0  -0.022523  -0.022454  0  4.023233  0
C  C30  1  0.69799088  0.39004298  0.28458087  1  0  -0.178558  0  3.717232  0  0  -0.203864  0  3.956165  0  0  -0.208699  0  3.979516  0  0  -0.094655  -0.200541  0  3.940693  0
C  C31  1  0.30200315  0.60995918  0.71541294  1  0  -0.178658  0  3.717018  0  0  -0.20392  0  3.955987  0  0  -0.208769  0  3.979332  0  0  -0.094703  -0.200599  0  3.940517  0
C  C32  1  0.69560879  0.39266396  0.38565522  1  0  0.30402  0  3.870687  0  0  0.303552  0  4.116878  0  0  0.312341  0  4.137634  0  0  0.091444  0.297371  0  4.102816  0
C  C33  1  0.30438194  0.60734656  0.61433817  1  0  0.30392  0  3.870658  0  0  0.303379  0  4.116947  0  0  0.312166  0  4.137709  0  0  0.091331  0.2972  0  4.102878  0
C  C34  1  0.73379872  0.22237969  0.45923770  1  0  -0.198065  0  3.724398  0  0  -0.213809  0  3.970611  0  0  -0.219032  0  3.990258  0  0  -0.104941  -0.210163  0  3.957376  0
C  C35  1  0.26620692  0.77763061  0.54075837  1  0  -0.197834  0  3.724307  0  0  -0.213568  0  3.970541  0  0  -0.218781  0  3.990169  0  0  -0.104813  -0.209911  0  3.957314  0
C  C36  1  0.76548017  0.05846298  0.43120522  1  0  -0.051685  0  3.81094  0  0  -0.063252  0  4.062619  0  0  -0.06353  0  4.084208  0  0  -0.094276  -0.062944  0  4.047782  0
C  C37  1  0.23451374  0.94154324  0.56879308  1  0  -0.051786  0  3.811084  0  0  -0.063323  0  4.062735  0  0  -0.063598  0  4.084322  0  0  -0.094248  -0.063014  0  4.047894  0
C  C38  1  0.76248861  0.05814638  0.33082344  1  0  -0.10274  0  3.752238  0  0  -0.133716  0  4.012972  0  0  -0.135559  0  4.032702  0  0  -0.104154  -0.132447  0  3.999676  0
C  C39  1  0.23751497  0.94185411  0.66917841  1  0  -0.102774  0  3.752154  0  0  -0.133732  0  4.01292  0  0  -0.135577  0  4.032651  0  0  -0.104171  -0.132464  0  3.999629  0
C  C40  1  0.71129122  0.93377050  0.83728479  1  0  0.649471  0  3.8943  0  0  0.596806  0  4.188112  0  0  0.631583  0  4.18161  0  0  0.207129  0.573203  0  4.191598  0
C  C41  1  0.28871366  0.06622293  0.16272167  1  0  0.649631  0  3.894113  0  0  0.5969  0  4.187943  0  0  0.631683  0  4.181435  0  0  0.207183  0.573294  0  4.191431  0
C  C42  1  0.77358688  0.76599857  0.79707421  1  0  -0.053123  0  3.777707  0  0  -0.029013  0  4.010801  0  0  -0.036057  0  4.033709  0  0  -0.021313  -0.024553  0  3.995669  0
C  C43  1  0.22642097  0.23399487  0.20293074  1  0  -0.053113  0  3.77766  0  0  -0.028854  0  4.01058  0  0  -0.035909  0  4.033502  0  0  -0.02125  -0.024392  0  3.995448  0
C  C44  1  0.84027054  0.58756740  0.86350941  1  0  -0.174943  0  3.698356  0  0  -0.206339  0  3.950532  0  0  -0.208897  0  3.970442  0  0  -0.0927  -0.204462  0  3.93721  0
C  C45  1  0.15973618  0.41241763  0.13650038  1  0  -0.17494  0  3.698598  0  0  -0.206442  0  3.950728  0  0  -0.208995  0  3.97063  0  0  -0.092698  -0.204569  0  3.937415  0
C  C46  1  0.89088422  0.42887899  0.82787072  1  0  0.258672  0  3.832659  0  0  0.2621  0  4.073926  0  0  0.266986  0  4.098857  0  0  0.081609  0.258594  0  4.056931  0
C  C47  1  0.10912804  0.57111453  0.17212838  1  0  0.258665  0  3.83259  0  0  0.262095  0  4.073857  0  0  0.266985  0  4.098787  0  0  0.081541  0.258592  0  4.056855  0
C  C48  1  0.87714356  0.44945683  0.72433896  1  0  -0.152197  0  3.701008  0  0  -0.173589  0  3.951165  0  0  -0.175983  0  3.970037  0  0  -0.091191  -0.17179  0  3.938318  0
C  C49  1  0.12286247  0.55054497  0.27566483  1  0  -0.152451  0  3.701123  0  0  -0.173865  0  3.95129  0  0  -0.17626  0  3.970162  0  0  -0.091323  -0.172062  0  3.938436  0
C  C50  1  0.81531590  0.62761926  0.65813979  1  0  -0.052736  0  3.794621  0  0  -0.066471  0  4.050315  0  0  -0.068239  0  4.071823  0  0  -0.091067  -0.065337  0  4.035963  0
C  C51  1  0.18469437  0.37237553  0.34186566  1  0  -0.052779  0  3.794818  0  0  -0.066529  0  4.050515  0  0  -0.0683  0  4.072021  0  0  -0.091087  -0.065391  0  4.036162  0
C  C52  1  0.76159269  0.78577032  0.69363744  1  0  -0.075463  0  3.741814  0  0  -0.10205  0  3.993261  0  0  -0.103091  0  4.015423  0  0  -0.085655  -0.101268  0  3.978598  0
C  C53  1  0.23841929  0.21422014  0.30637438  1  0  -0.07527  0  3.74157  0  0  -0.101884  0  3.992999  0  0  -0.102922  0  4.015176  0  0  -0.085585  -0.101105  0  3.978332  0
N  N54  1  0.66568064  0.55837190  0.40998541  1  0  -0.672501  0  3.093058  0  0  -0.640114  0  3.313443  0  0  -0.658481  0  3.314535  0  0  -0.600726  -0.626867  0  3.312215  0
N  N55  1  0.33431158  0.44163861  0.59000796  1  0  -0.672529  0  3.092879  0  0  -0.640129  0  3.313289  0  0  -0.658495  0  3.314385  0  0  -0.600759  -0.626884  0  3.312063  0
N  N56  1  0.93944577  0.25096326  0.89735294  1  0  -0.677443  0  3.097006  0  0  -0.616809  0  3.318306  0  0  -0.639773  0  3.318741  0  0  -0.57384  -0.60048  0  3.317771  0
N  N57  1  0.06056650  0.74903021  0.10264833  1  0  -0.677364  0  3.097148  0  0  -0.616729  0  3.318366  0  0  -0.639706  0  3.318811  0  0  -0.573784  -0.600398  0  3.317832  0
O  O58  1  0.74434143  0.08137129  0.12389997  1  0  -0.647799  0  1.957552  0  0  -0.576064  0  2.184945  0  0  -0.604874  0  2.177346  0  0  -0.302446  -0.555807  0  2.189494  0
O  O59  1  0.25563794  0.91862671  0.87610119  1  0  -0.647841  0  1.957834  0  0  -0.575988  0  2.185087  0  0  -0.604793  0  2.177487  0  0  -0.30235  -0.555732  0  2.189636  0
O  O60  1  0.68251240  0.38740797  0.08210426  1  0  -0.700441  0  2.027407  0  0  -0.62718  0  2.26915  0  0  -0.659663  0  2.266075  0  0  -0.30481  -0.604241  0  2.270621  0
O  O61  1  0.31750376  0.61258693  0.91789313  1  0  -0.700454  0  2.027484  0  0  -0.627165  0  2.269204  0  0  -0.65965  0  2.266138  0  0  -0.304835  -0.604226  0  2.270673  0
O  O62  1  0.64644540  0.09660011  0.77888321  1  0  -0.636805  0  1.895039  0  0  -0.579954  0  2.120019  0  0  -0.606241  0  2.112748  0  0  -0.311727  -0.561535  0  2.124409  0
O  O63  1  0.35355904  0.90339069  0.22111785  1  0  -0.636834  0  1.894845  0  0  -0.579992  0  2.119872  0  0  -0.606277  0  2.112597  0  0  -0.311755  -0.561572  0  2.124261  0
O  O64  1  0.72638890  0.90304273  0.93469797  1  0  -0.722337  0  1.997831  0  0  -0.64011  0  2.233932  0  0  -0.672826  0  2.227655  0  0  -0.311165  -0.617017  0  2.237473  0
O  O65  1  0.27359276  0.09696074  0.06530526  1  0  -0.722482  0  1.99789  0  0  -0.640202  0  2.233943  0  0  -0.672922  0  2.227669  0  0  -0.311191  -0.617108  0  2.237487  0
