# generated using pymatgen
data_DyAgH2C2SO9
_symmetry_space_group_name_H-M   'P 1'
_cell_length_a   6.89604625
_cell_length_b   7.67287233
_cell_length_c   9.06552848
_cell_angle_alpha   113.44920171
_cell_angle_beta   89.96642394
_cell_angle_gamma   116.73716727
_symmetry_Int_Tables_number   1
_chemical_formula_structural   DyAgH2C2SO9
_chemical_formula_sum   'Dy2 Ag2 H4 C4 S2 O18'
_cell_volume   383.57815320
_cell_formula_units_Z   2
loop_
 _symmetry_equiv_pos_site_id
 _symmetry_equiv_pos_as_xyz
  1  'x, y, z'
loop_
 _atom_site_type_symbol
 _atom_site_label
 _atom_site_symmetry_multiplicity
 _atom_site_fract_x
 _atom_site_fract_y
 _atom_site_fract_z
 _atom_site_occupancy
 _atom_site_pbe_bader_spin_density
 _atom_site_pbe_cm5_charge
 _atom_site_pbe_ddec_charge
 _atom_site_pbe_ddec_spin_density
 _atom_site_pbe_ddec_sum_bond_order
 _atom_site_pbe_magmom
Dy  Dy0  1  0.75597166  0.51209890  0.73911222  1  0  1.526508  2.154444  0  2.094863  0
Dy  Dy1  1  0.24402844  0.48790133  0.26088820  1  0  1.526499  2.154451  0  2.094821  0
Ag  Ag2  1  0.91815188  0.83609069  0.33328571  1  0  0.491065  0.574911  0  1.765426  0
Ag  Ag3  1  0.08184141  0.16390465  0.66671416  1  0  0.491062  0.574921  0  1.765397  0
H  H4  1  0.69458880  0.39046125  0.01956161  1  0  0.319413  0.425763  0  0.888253  0
H  H5  1  0.30541483  0.60953736  0.98043715  1  0  0.319405  0.42577  0  0.888246  0
H  H6  1  0.58326087  0.16679964  0.85612418  1  0  0.314709  0.436779  0  0.877551  0
H  H7  1  0.41673923  0.83320060  0.14387404  1  0  0.31468  0.436761  0  0.87758  0
C  C8  1  0.98278253  0.96557450  0.06972120  1  0  0.220241  0.515404  0  4.188043  0
C  C9  1  0.01721965  0.03442410  0.93027866  1  0  0.220192  0.515351  0  4.188078  0
C  C10  1  0.39028281  0.99992640  0.49999675  1  0  0.221013  0.521551  0  4.203957  0
C  C11  1  0.60971520  0.00007546  0.50000311  1  0  0.221069  0.521613  0  4.203936  0
S  S12  1  0.66946384  0.33920583  0.29669843  1  0  0.607363  1.541113  0  6.301629  0
S  S13  1  0.33053689  0.66079277  0.70330143  1  0  0.607412  1.541228  0  6.301569  0
O  O14  1  0.88121368  0.76262962  0.02853266  1  0  -0.354855  -0.582733  0  2.336775  0
O  O15  1  0.11878995  0.23736898  0.97146942  1  0  -0.354854  -0.582747  0  2.33679  0
O  O16  1  0.05738222  0.11459014  0.21613426  1  0  -0.351126  -0.584265  0  2.375662  0
O  O17  1  0.94261869  0.88541172  0.78386671  1  0  -0.351096  -0.584229  0  2.375698  0
O  O18  1  0.39734500  0.17855267  0.59143458  1  0  -0.350079  -0.584212  0  2.553131  0
O  O19  1  0.21872086  0.82121333  0.40856963  1  0  -0.349299  -0.583069  0  2.552326  0
O  O20  1  0.60265301  0.82144918  0.40856749  1  0  -0.350071  -0.584217  0  2.553264  0
O  O21  1  0.78127715  0.17878853  0.59143024  1  0  -0.349339  -0.5831  0  2.552255  0
O  O22  1  0.73854526  0.47794235  0.47815574  1  0  -0.439132  -0.774979  0  2.332894  0
O  O23  1  0.26146046  0.52205461  0.52184578  1  0  -0.439129  -0.775  0  2.332932  0
O  O24  1  0.52508988  0.39644182  0.22362382  1  0  -0.437586  -0.78697  0  2.326642  0
O  O25  1  0.12854564  0.60392457  0.77610499  1  0  -0.437759  -0.786758  0  2.326516  0
O  O26  1  0.47491248  0.60356003  0.77638045  1  0  -0.437622  -0.787038  0  2.32657  0
O  O27  1  0.87145509  0.39607403  0.22389598  1  0  -0.437749  -0.786741  0  2.326567  0
O  O28  1  0.55317974  0.10748870  0.25635283  1  0  -0.324391  -0.62244  0  2.194746  0
O  O29  1  0.44681890  0.89251153  0.74364759  1  0  -0.324383  -0.622463  0  2.194753  0
O  O30  1  0.66354207  0.32754905  0.89937331  1  0  -0.656101  -0.86456  0  2.077341  0
O  O31  1  0.33646256  0.67245445  0.10062710  1  0  -0.656059  -0.864539  0  2.07728  0
