# generated using pymatgen
data_CuH20C18(NO2)2
_symmetry_space_group_name_H-M   'P 1'
_cell_length_a   5.10404610
_cell_length_b   9.55496600
_cell_length_c   16.58860120
_cell_angle_alpha   100.20680868
_cell_angle_beta   90.00009877
_cell_angle_gamma   90.00065609
_symmetry_Int_Tables_number   1
_chemical_formula_structural   CuH20C18(NO2)2
_chemical_formula_sum   'Cu2 H40 C36 N4 O8'
_cell_volume   796.20634486
_cell_formula_units_Z   2
loop_
 _symmetry_equiv_pos_site_id
 _symmetry_equiv_pos_as_xyz
  1  'x, y, z'
loop_
 _atom_site_type_symbol
 _atom_site_label
 _atom_site_symmetry_multiplicity
 _atom_site_fract_x
 _atom_site_fract_y
 _atom_site_fract_z
 _atom_site_occupancy
 _atom_site_hle17_ddec_charge
 _atom_site_hle17_ddec_spin_density
 _atom_site_hle17_ddec_sum_bond_order
 _atom_site_hle17_magmom
 _atom_site_hse06_10hf_ddec_charge
 _atom_site_hse06_10hf_ddec_spin_density
 _atom_site_hse06_10hf_ddec_sum_bond_order
 _atom_site_hse06_10hf_magmom
 _atom_site_hse06_ddec_charge
 _atom_site_hse06_ddec_spin_density
 _atom_site_hse06_ddec_sum_bond_order
 _atom_site_hse06_magmom
 _atom_site_pbe_cm5_charge
 _atom_site_pbe_ddec_charge
 _atom_site_pbe_ddec_spin_density
 _atom_site_pbe_ddec_sum_bond_order
 _atom_site_pbe_magmom
Cu  Cu0  1  0.25479210  0.25028233  0.49153783  1  0.88027  0.679477  1.739681  0.51  0.855805  0.772501  2.132978  0.626  0.944974  0.830918  2.063638  0.704  0.716067  0.798024  0.731972  2.183072  0.575
Cu  Cu1  1  0.75479096  0.74971717  0.50846316  1  0.880361  0.679563  1.739769  0.51  0.855945  0.772574  2.133081  0.626  0.945042  0.830951  2.063703  0.704  0.715999  0.798103  0.732001  2.183233  0.575
H  H2  1  0.85267643  0.35938809  0.72181953  1  0.088727  0.000284  0.98998  0.0  0.100817  0.000325  1.051511  0.0  0.104068  0.000242  1.049477  0.0  0.095648  0.098646  0.000404  1.052778  0.0
H  H3  1  0.35267289  0.64060868  0.27817524  1  0.088741  0.000278  0.989963  0.0  0.100839  0.000325  1.05147  0.0  0.10409  0.000242  1.049438  0.0  0.095671  0.098674  0.000404  1.052742  0.0
H  H4  1  0.96861689  0.24457941  0.83845971  1  0.079354  -5e-06  0.974774  0.0  0.091664  -4e-06  1.036041  0.0  0.093806  -5e-06  1.03566  0.0  0.096603  0.090455  -2e-06  1.035722  0.0
H  H5  1  0.46860925  0.75541605  0.16153681  1  0.079354  -7e-06  0.974889  0.0  0.091681  -4e-06  1.036128  0.0  0.093823  -5e-06  1.035749  0.0  0.096617  0.090473  -2e-06  1.035813  0.0
H  H6  1  0.68996225  0.28232766  0.96439786  1  0.080793  2e-06  0.976041  0.0  0.094595  2e-06  1.035251  0.0  0.097021  1e-06  1.034442  0.0  0.096442  0.092919  4e-06  1.036022  0.0
H  H7  1  0.18994722  0.71766711  0.03560084  1  0.080806  3e-06  0.976064  0.0  0.09461  2e-06  1.035267  0.0  0.097036  1e-06  1.03446  0.0  0.096438  0.092934  4e-06  1.036035  0.0
H  H8  1  0.29952859  0.43989920  0.97164826  1  0.080283  -7e-06  0.975297  0.0  0.09192  -2e-06  1.036877  0.0  0.094131  -3e-06  1.036801  0.0  0.094211  0.090392  -1e-06  1.036933  0.0
H  H9  1  0.79951486  0.56009424  0.02835280  1  0.080185  -7e-06  0.975392  0.0  0.091838  -2e-06  1.036945  0.0  0.094047  -3e-06  1.036874  0.0  0.094175  0.090309  -1e-06  1.037001  0.0
H  H10  1  0.18908186  0.55881419  0.85499759  1  0.08813  -5e-06  0.953475  0.0  0.10151  4e-06  1.010667  0.0  0.104008  1e-06  1.010513  0.0  0.097992  0.099657  6e-06  1.011118  0.0
H  H11  1  0.68907802  0.44118493  0.14500514  1  0.0881  -6e-06  0.953572  0.0  0.101503  3e-06  1.010745  0.0  0.103999  1e-06  1.010593  0.0  0.097984  0.099649  6e-06  1.011191  0.0
H  H12  1  0.00570440  0.93522077  0.34276299  1  0.063742  0.001808  0.918892  0.002  0.077838  0.001511  0.975407  0.002  0.079302  0.001142  0.974758  0.001  0.111219  0.076538  0.001748  0.976283  0.002
H  H13  1  0.50568762  0.06478329  0.65723164  1  0.063667  0.001808  0.918977  0.002  0.077721  0.001512  0.975519  0.002  0.079216  0.001142  0.974825  0.001  0.111186  0.07641  0.001748  0.976401  0.002
H  H14  1  0.34069945  0.24320244  0.17717277  1  0.090037  -7e-06  0.947989  0.0  0.104117  -1.1e-05  1.004268  0.0  0.106854  -7e-06  1.003525  0.0  0.099459  0.101877  -1.4e-05  1.005561  0.0
H  H15  1  0.84070416  0.75680393  0.82282649  1  0.089949  -6e-06  0.947914  0.0  0.104067  -1.1e-05  1.004162  0.0  0.106792  -7e-06  1.003433  0.0  0.099405  0.101831  -1.4e-05  1.005458  0.0
H  H16  1  0.19008039  0.36052355  0.66638840  1  0.071533  0.000115  0.936169  0.001  0.08692  5.8e-05  0.99263  0.0  0.087623  1.9e-05  0.992693  0.0  0.116527  0.086117  6.8e-05  0.992926  0.0
H  H17  1  0.69008573  0.63947978  0.33361290  1  0.071475  0.000112  0.936155  0.001  0.086898  5.8e-05  0.992605  0.0  0.087603  1.9e-05  0.992671  0.0  0.116513  0.086098  6.8e-05  0.992911  0.0
H  H18  1  0.61584085  0.40866891  0.55522326  1  0.31135  -0.001482  0.904674  -0.002  0.299025  -9.1e-05  0.966377  0.0  0.306558  -0.000407  0.962134  -0.001  0.295546  0.293564  0.000127  0.969805  0.0
H  H19  1  0.11584111  0.59132761  0.44477918  1  0.311308  -0.001477  0.904661  -0.002  0.298966  -9.1e-05  0.966385  0.0  0.306497  -0.000407  0.962142  -0.001  0.295549  0.29351  0.000128  0.969809  0.0
H  H20  1  0.60026177  0.27740514  0.60785602  1  0.305185  -0.000462  0.90481  -0.001  0.295683  0.000702  0.965453  0.0  0.302423  0.000252  0.962063  0.0  0.29373  0.290877  0.000994  0.968108  0.0
H  H21  1  0.10025864  0.72259132  0.39214761  1  0.305214  -0.000459  0.904784  -0.001  0.295655  0.000701  0.96551  0.0  0.302399  0.000251  0.962125  0.0  0.293685  0.29084  0.000994  0.968196  0.0
H  H22  1  0.61699708  0.58571741  0.68454224  1  0.097511  -0.000186  0.939334  0.0  0.11407  -1.4e-05  1.000581  0.0  0.115061  -1.5e-05  1.000941  0.0  0.097786  0.113358  4e-06  1.000524  0.0
H  H23  1  0.11700266  0.41428755  0.31545857  1  0.097496  -0.000176  0.939305  0.0  0.114049  -1.4e-05  1.000562  0.0  0.11504  -1.5e-05  1.000917  0.0  0.09775  0.113332  4e-06  1.000497  0.0
H  H24  1  0.30355022  0.62597700  0.72872696  1  0.092791  0.001095  0.944954  0.002  0.105063  0.000779  1.012601  0.001  0.10692  0.000493  1.011325  0.001  0.09643  0.103788  0.001036  1.013548  0.002
H  H25  1  0.80355351  0.37401970  0.27127621  1  0.092833  0.001093  0.945025  0.002  0.10511  0.000778  1.01265  0.001  0.106967  0.000492  1.011371  0.001  0.096451  0.10383  0.001034  1.013587  0.002
H  H26  1  0.92402905  0.21322583  0.37135883  1  0.308394  -0.000886  0.881659  -0.001  0.302215  0.000251  0.936679  0.0  0.308659  -8.8e-05  0.933676  0.0  0.302259  0.297663  0.000541  0.939022  0.0
H  H27  1  0.42403841  0.78677792  0.62864084  1  0.308348  -0.000886  0.881696  -0.001  0.302139  0.000252  0.936739  0.0  0.308579  -8.7e-05  0.93374  0.0  0.302268  0.297593  0.000543  0.939094  0.0
H  H28  1  0.84980277  0.11500912  0.43966302  1  0.315085  -0.001476  0.903478  -0.001  0.302975  -0.000269  0.964554  0.0  0.310487  -0.000497  0.960104  -0.001  0.296013  0.297662  -8.2e-05  0.967925  0.0
H  H29  1  0.34979620  0.88498671  0.56033648  1  0.315113  -0.00148  0.903503  -0.001  0.303002  -0.000269  0.964563  0.0  0.310513  -0.000497  0.960112  -0.001  0.296018  0.297697  -8e-05  0.967933  0.0
H  H30  1  0.38867656  0.16108990  0.30231409  1  0.103796  -9e-06  0.943933  0.0  0.119385  2.8e-05  1.007575  0.0  0.121313  -2e-05  1.006309  0.0  0.100809  0.117765  8.6e-05  1.008737  0.0
H  H31  1  0.88867838  0.83892096  0.69768321  1  0.103865  -2e-06  0.943864  0.0  0.119398  2.8e-05  1.007589  0.0  0.12131  -2e-05  1.006341  0.0  0.100828  0.117783  8.7e-05  1.008758  0.0
H  H32  1  0.41820875  0.97834298  0.26279654  1  0.085968  -1.5e-05  0.957474  0.0  0.102745  2.1e-05  1.022835  0.0  0.103324  8e-06  1.023514  0.0  0.097256  0.102063  3.1e-05  1.022555  0.0
H  H33  1  0.91818954  0.02167132  0.73720290  1  0.08594  -6e-06  0.957503  0.0  0.10272  2.1e-05  1.022848  0.0  0.1033  8e-06  1.023522  0.0  0.097251  0.102038  3e-05  1.022568  0.0
H  H34  1  0.83274766  0.90916536  0.22666078  1  0.08407  1e-06  0.964869  0.0  0.096684  2e-05  1.025605  0.0  0.099415  1.5e-05  1.024488  0.0  0.096158  0.094612  2.4e-05  1.026997  0.0
H  H35  1  0.33272545  0.09082933  0.77333981  1  0.083925  4e-06  0.965018  0.0  0.09657  2e-05  1.025729  0.0  0.099285  1.5e-05  1.024636  0.0  0.096097  0.094509  2.4e-05  1.027101  0.0
H  H36  1  0.57685247  0.92616746  0.10166281  1  0.080618  -2e-06  0.968869  0.0  0.092647  -5e-06  1.030123  0.0  0.094666  -4e-06  1.030017  0.0  0.097216  0.091376  -6e-06  1.029835  0.0
H  H37  1  0.07683451  0.07382666  0.89833878  1  0.080607  -8e-06  0.968778  0.0  0.092644  -5e-06  1.030028  0.0  0.094664  -4e-06  1.02992  0.0  0.097219  0.091371  -6e-06  1.029737  0.0
H  H38  1  0.70817252  0.09299043  0.01169780  1  0.081677  -1e-06  0.981902  0.0  0.091921  -1e-06  1.046078  0.0  0.094056  -1e-06  1.046291  0.0  0.0946  0.090385  -1e-06  1.045851  0.0
H  H39  1  0.20818254  0.90700876  0.98830313  1  0.081666  -2e-06  0.981957  0.0  0.091932  -1e-06  1.046109  0.0  0.094069  -1e-06  1.046318  0.0  0.094594  0.090383  -1e-06  1.045896  0.0
H  H40  1  0.09460425  0.25398457  0.04975431  1  0.081254  3e-06  0.958517  0.0  0.094541  1e-06  1.016873  0.0  0.096792  -1e-06  1.016427  0.0  0.097469  0.092778  -1e-06  1.017619  0.0
H  H41  1  0.59461336  0.74601806  0.95024446  1  0.081233  -3e-06  0.958691  0.0  0.094526  0.0  1.017028  0.0  0.096781  -1e-06  1.016577  0.0  0.097451  0.092763  -1e-06  1.017775  0.0
C  C42  1  0.36292947  0.97662487  0.41131844  1  0.63601  -0.004323  3.847267  -0.004  0.593866  0.00023  4.154617  0.0  0.629231  -0.00027  4.147589  0.0  0.206238  0.569731  0.000534  4.158329  0.0
C  C43  1  0.86293494  0.02342309  0.58868408  1  0.63639  -0.004339  3.848553  -0.004  0.594356  0.000237  4.155638  0.0  0.629706  -0.000269  4.148618  0.0  0.20659  0.57022  0.000539  4.159342  0.0
C  C44  1  0.11577792  0.50598436  0.58807270  1  0.635688  -0.007286  3.827954  -0.006  0.593578  -0.001727  4.13296  -0.002  0.629694  -0.001797  4.125895  -0.002  0.208108  0.569055  -0.001703  4.136469  -0.002
C  C45  1  0.61577866  0.49398014  0.41192256  1  0.635871  -0.007266  3.827552  -0.006  0.593534  -0.001724  4.132988  -0.002  0.629633  -0.001792  4.125936  -0.002  0.207986  0.569019  -0.001698  4.136475  -0.002
C  C46  1  0.14156935  0.02487436  0.35983383  1  0.065755  -0.003004  3.613506  -0.004  0.04654  -0.000375  3.861458  -0.002  0.047065  -0.001014  3.874196  -0.002  -0.004349  0.046145  0.000154  3.853132  -0.001
C  C47  1  0.64155611  0.97513279  0.64016418  1  0.065759  -0.002988  3.613567  -0.004  0.046684  -0.000388  3.861225  -0.002  0.047201  -0.001013  3.873964  -0.002  -0.004337  0.046285  0.000151  3.85292  -0.001
C  C48  1  0.31098519  0.43567158  0.63928952  1  0.057671  -0.003929  3.610894  -0.004  0.042131  -0.001173  3.852285  -0.002  0.042643  -0.001784  3.865813  -0.002  -0.005184  0.042094  -0.000722  3.842938  -0.001
C  C49  1  0.81098322  0.56432724  0.36071204  1  0.057751  -0.003933  3.610489  -0.004  0.042161  -0.001176  3.852075  -0.002  0.042671  -0.001792  3.865607  -0.002  -0.005155  0.042128  -0.000724  3.84272  -0.001
C  C50  1  0.27471489  0.06295988  0.28358409  1  -0.206069  -0.000178  3.688972  0.0  -0.252161  -6e-06  3.929043  0.0  -0.253718  -6.5e-05  3.941827  0.0  -0.159218  -0.250555  6.4e-05  3.920364  0.0
C  C51  1  0.77470127  0.93704718  0.71641701  1  -0.206052  -0.000219  3.689099  0.0  -0.252241  -2e-06  3.929281  0.0  -0.253789  -6.7e-05  3.94208  0.0  -0.159283  -0.250637  6.6e-05  3.920613  0.0
C  C52  1  0.44265261  0.53903120  0.70858432  1  -0.206265  0.003684  3.702739  0.004  -0.255001  0.002748  3.948285  0.003  -0.256477  0.001908  3.960596  0.002  -0.16617  -0.254047  0.003391  3.939911  0.003
C  C53  1  0.94265197  0.46096633  0.29141600  1  -0.206471  0.003674  3.702858  0.004  -0.255172  0.002748  3.94846  0.003  -0.25664  0.001908  3.960763  0.002  -0.166191  -0.254204  0.00339  3.940067  0.003
C  C54  1  0.10265722  0.07682628  0.21150795  1  0.094329  0.000145  3.744979  0.0  0.116154  0.00014  3.980928  0.0  0.116379  0.000107  4.005874  0.0  -0.014877  0.115652  0.000168  3.964989  0.0
C  C55  1  0.60264175  0.92317851  0.78849042  1  0.094424  0.000199  3.744954  0.0  0.116284  0.00014  3.980866  0.0  0.116512  0.000107  4.005804  0.0  -0.014757  0.11578  0.000169  3.964939  0.0
C  C56  1  0.51397784  0.46890391  0.78008750  1  0.094695  -9.3e-05  3.757943  0.0  0.11762  0.000147  3.992812  0.0  0.11768  9.9e-05  4.018188  0.0  -0.014193  0.11809  0.000176  3.975325  0.0
C  C57  1  0.01397752  0.53109938  0.21991551  1  0.094751  -0.000152  3.75788  0.0  0.11764  0.000147  3.992792  0.0  0.117699  9.8e-05  4.018165  0.0  -0.014244  0.1181  0.000176  3.975334  0.0
C  C58  1  0.88733645  0.98751271  0.18910593  1  -0.131615  0.000139  3.760084  0.0  -0.151408  0.000115  4.006904  0.0  -0.154901  7.5e-05  4.02956  0.0  -0.098291  -0.149895  0.000148  3.993356  0.0
C  C59  1  0.38731279  0.01248987  0.81089844  1  -0.131408  8.5e-05  3.75989  0.0  -0.151225  0.000115  4.00672  0.0  -0.154707  7.5e-05  4.029387  0.0  -0.098184  -0.149716  0.000148  3.99315  0.0
C  C60  1  0.73126722  0.37841845  0.77661432  1  -0.132942  0.00028  3.740408  0.0  -0.15327  0.000382  3.986197  0.0  -0.156223  0.000215  4.006833  0.0  -0.101427  -0.151223  0.000516  3.971664  0.0
C  C61  1  0.23127081  0.62158402  0.22338452  1  -0.132852  0.000335  3.740263  0.0  -0.153166  0.000381  3.98607  0.0  -0.156117  0.000217  4.006699  0.0  -0.101385  -0.151123  0.000517  3.97157  0.0
C  C62  1  0.74553903  0.99507642  0.11815702  1  -0.068931  5e-06  3.804368  0.0  -0.081925  3.4e-05  4.056316  0.0  -0.083566  2.2e-05  4.07908  0.0  -0.095118  -0.08023  5.8e-05  4.040426  0.0
C  C63  1  0.24552539  0.00491669  0.88184519  1  -0.069027  5.1e-05  3.804379  0.0  -0.082029  3.4e-05  4.056355  0.0  -0.083672  2.2e-05  4.079119  0.0  -0.095202  -0.080329  5.8e-05  4.040453  0.0
C  C64  1  0.79494168  0.31166375  0.84225003  1  -0.068056  0.000184  3.803973  0.0  -0.081814  0.000102  4.05636  0.0  -0.083531  8.1e-05  4.078967  0.0  -0.097056  -0.079759  0.000154  4.040449  0.0
C  C65  1  0.29493259  0.68833374  0.15774597  1  -0.068147  0.00016  3.804338  0.0  -0.081927  0.000102  4.056735  0.0  -0.083641  8e-05  4.079334  0.0  -0.097124  -0.079872  0.000154  4.040836  0.0
C  C66  1  0.81897886  0.09035572  0.06754545  1  -0.093383  3.2e-05  3.799719  0.0  -0.108419  2e-05  4.050095  0.0  -0.110911  4e-06  4.071717  0.0  -0.100142  -0.106234  3.3e-05  4.034774  0.0
C  C67  1  0.31897882  0.90964416  0.93245440  1  -0.093398  -4e-06  3.799757  0.0  -0.108453  2e-05  4.050117  0.0  -0.110946  5e-06  4.071742  0.0  -0.100143  -0.106255  3.3e-05  4.034801  0.0
C  C68  1  0.64070173  0.33356678  0.91275212  1  -0.087043  -1.3e-05  3.801121  0.0  -0.102145  -7.9e-05  4.049312  0.0  -0.104608  -0.000127  4.07129  0.0  -0.099781  -0.100148  -5.3e-05  4.034492  0.0
C  C69  1  0.14068982  0.66642761  0.08724472  1  -0.087069  8e-06  3.8015  0.0  -0.10218  -8e-05  4.049697  0.0  -0.104642  -0.000126  4.071676  0.0  -0.099779  -0.100176  -5.3e-05  4.034873  0.0
C  C70  1  0.03421618  0.17926767  0.08879874  1  -0.073167  7.8e-05  3.804337  0.0  -0.08563  7.7e-05  4.05358  0.0  -0.08708  5.2e-05  4.07544  0.0  -0.095393  -0.084605  0.000104  4.039407  0.0
C  C71  1  0.53422666  0.82072921  0.91119826  1  -0.073062  0.000123  3.804441  0.0  -0.085524  7.8e-05  4.05367  0.0  -0.086977  5.2e-05  4.07553  0.0  -0.095341  -0.084495  0.000104  4.039496  0.0
C  C72  1  0.42156476  0.42194047  0.91680602  1  -0.081961  0.00016  3.807452  0.0  -0.093347  0.000145  4.056093  0.0  -0.094993  0.000108  4.077767  0.0  -0.099186  -0.092705  0.000198  4.041069  0.0
C  C73  1  0.92154389  0.57806014  0.08319577  1  -0.081863  0.000137  3.807496  0.0  -0.093244  0.000146  4.056137  0.0  -0.094889  0.000107  4.077811  0.0  -0.09913  -0.092598  0.000198  4.041105  0.0
C  C74  1  0.17288474  0.17328539  0.16058116  1  -0.115582  -3.5e-05  3.743171  0.0  -0.133033  -6e-06  3.986227  0.0  -0.136338  -2.2e-05  4.008726  0.0  -0.090755  -0.131741  1.8e-05  3.9725  0.0
C  C75  1  0.67287731  0.82671877  0.83941599  1  -0.11569  -0.000105  3.743306  0.0  -0.133177  -7e-06  3.986362  0.0  -0.136474  -2.2e-05  4.008875  0.0  -0.090834  -0.131887  1.9e-05  3.972646  0.0
C  C76  1  0.35958701  0.48914633  0.85111675  1  -0.125421  0.000109  3.765885  0.0  -0.143913  -5.2e-05  4.010001  0.0  -0.147609  -0.00012  4.033399  0.0  -0.093875  -0.140915  -8e-06  3.993659  0.0
C  C77  1  0.85958075  0.51084864  0.14888689  1  -0.125452  0.000143  3.765924  0.0  -0.143957  -5.2e-05  4.010044  0.0  -0.147652  -0.000119  4.03344  0.0  -0.093886  -0.140949  -9e-06  3.993699  0.0
N  N78  1  0.00418176  0.14838164  0.40780190  1  -0.611249  0.072329  3.112638  0.092  -0.592615  0.0491  3.386777  0.065  -0.62171  0.039494  3.384868  0.057  -0.637568  -0.574425  0.054629  3.389692  0.068
N  N79  1  0.50417542  0.85162042  0.59219737  1  -0.611215  0.072342  3.1127  0.092  -0.592595  0.049099  3.386885  0.065  -0.621673  0.039491  3.384963  0.057  -0.637586  -0.574369  0.054633  3.389796  0.068
N  N80  1  0.48829243  0.34641581  0.58141363  1  -0.608085  0.085617  3.127518  0.109  -0.593661  0.056878  3.401153  0.075  -0.624754  0.045103  3.401017  0.065  -0.641901  -0.5744  0.063447  3.403005  0.08
N  N81  1  0.98829464  0.65358417  0.41858814  1  -0.608048  0.085605  3.127421  0.109  -0.593546  0.056871  3.401056  0.075  -0.624623  0.045098  3.400898  0.065  -0.641843  -0.574244  0.063446  3.402935  0.08
O  O82  1  0.46631058  0.07398730  0.46650344  1  -0.61325  0.072836  2.06202  0.103  -0.571107  0.050731  2.337727  0.077  -0.610878  0.039468  2.327872  0.065  -0.329673  -0.544335  0.058031  2.344651  0.083
O  O83  1  0.96632117  0.92600710  0.53349358  1  -0.613688  0.072884  2.061507  0.103  -0.571642  0.05074  2.337188  0.077  -0.611435  0.039473  2.32736  0.065  -0.329891  -0.544842  0.058053  2.344117  0.083
O  O84  1  0.03990177  0.42502963  0.52095096  1  -0.610103  0.08057  2.064895  0.114  -0.572742  0.055135  2.342461  0.084  -0.614398  0.042255  2.334675  0.069  -0.329889  -0.544676  0.063673  2.348066  0.092
O  O85  1  0.53988697  0.57497385  0.47905268  1  -0.610417  0.080585  2.06392  0.114  -0.572957  0.055132  2.3416  0.084  -0.614595  0.042252  2.333791  0.069  -0.329949  -0.544865  0.063682  2.347194  0.092
O  O86  1  0.44417149  0.85131705  0.39477642  1  -0.614894  0.011555  1.943979  0.017  -0.585498  0.005323  2.191618  0.009  -0.611378  0.001843  2.180746  0.004  -0.31707  -0.566681  0.009442  2.198561  0.014
O  O87  1  0.94414248  0.14866112  0.60521427  1  -0.614761  0.011511  1.946342  0.017  -0.58544  0.005311  2.193981  0.009  -0.611304  0.001838  2.183116  0.004  -0.317156  -0.566639  0.009423  2.200912  0.014
O  O88  1  0.02987881  0.62861952  0.61258230  1  -0.606722  0.012885  1.953136  0.019  -0.574314  0.006284  2.199061  0.011  -0.601031  0.002312  2.187175  0.006  -0.312593  -0.554726  0.010594  2.206389  0.016
O  O89  1  0.52989248  0.37139563  0.38742362  1  -0.606488  0.012837  1.954157  0.019  -0.574018  0.006267  2.200268  0.011  -0.600746  0.002307  2.18844  0.006  -0.312399  -0.554447  0.010569  2.207574  0.016
