# generated using pymatgen
data_CuH11C12(NCl)2
_symmetry_space_group_name_H-M   'P 1'
_cell_length_a   8.47581745
_cell_length_b   12.63517422
_cell_length_c   24.23388388
_cell_angle_alpha   90.00084822
_cell_angle_beta   90.00023975
_cell_angle_gamma   89.99858449
_symmetry_Int_Tables_number   1
_chemical_formula_structural   CuH11C12(NCl)2
_chemical_formula_sum   'Cu8 H88 C96 N16 Cl16'
_cell_volume   2595.28974921
_cell_formula_units_Z   8
loop_
 _symmetry_equiv_pos_site_id
 _symmetry_equiv_pos_as_xyz
  1  'x, y, z'
loop_
 _atom_site_type_symbol
 _atom_site_label
 _atom_site_symmetry_multiplicity
 _atom_site_fract_x
 _atom_site_fract_y
 _atom_site_fract_z
 _atom_site_occupancy
 _atom_site_pbe_bader_charge
 _atom_site_pbe_bader_spin_density
 _atom_site_pbe_cm5_charge
 _atom_site_pbe_ddec_charge
 _atom_site_pbe_ddec_spin_density
 _atom_site_pbe_ddec_sum_bond_order
 _atom_site_pbe_magmom
Cu  Cu0  1  0.10506176  0.59930874  0.80217101  1  0.919485  -0.498338  0.655617  0.600767  -0.684975  2.437016  -0.499
Cu  Cu1  1  0.39499451  0.40066502  0.30209996  1  0.919262  -0.498167  0.655303  0.600869  -0.684642  2.437583  -0.499
Cu  Cu2  1  0.60504575  0.90069453  0.19783733  1  0.919442  0.498337  0.655672  0.600731  0.684944  2.437116  0.499
Cu  Cu3  1  0.89493176  0.09931009  0.69784010  1  0.919254  0.498313  0.655597  0.600725  0.684901  2.437044  0.499
Cu  Cu4  1  0.13610001  0.58002494  0.62627922  1  0.862046  0.499168  0.51914  0.653021  0.660698  2.525134  0.492
Cu  Cu5  1  0.36384453  0.41998666  0.12632258  1  0.862849  0.499127  0.518973  0.652843  0.660646  2.525286  0.492
Cu  Cu6  1  0.63607349  0.91996832  0.37370895  1  0.862382  -0.499173  0.519058  0.652777  -0.660722  2.52542  -0.492
Cu  Cu7  1  0.86392137  0.08004357  0.87370203  1  0.862599  -0.49915  0.519126  0.652906  -0.660706  2.525368  -0.492
H  H8  1  0.08395061  0.41305241  0.72620926  1  0.129284  -0.000362  0.106974  0.106114  -3.5e-05  1.027346  0.0
H  H9  1  0.41602220  0.58690736  0.22613311  1  0.127578  -0.000363  0.107017  0.106202  -3.5e-05  1.027714  0.0
H  H10  1  0.58393419  0.08693808  0.27381121  1  0.129003  0.000362  0.106935  0.106109  3.5e-05  1.027395  0.0
H  H11  1  0.91605363  0.91306311  0.77381711  1  0.128724  0.000362  0.106933  0.106112  3.5e-05  1.027423  0.0
H  H12  1  0.18048741  0.30816237  0.76052121  1  0.098482  -0.005118  0.106111  0.10806  -0.002831  0.99602  -0.003
H  H13  1  0.31958727  0.69181419  0.26046018  1  0.098805  -0.005118  0.106024  0.108065  -0.002832  0.995876  -0.003
H  H14  1  0.68045488  0.19183208  0.23950312  1  0.098546  0.005121  0.106074  0.108046  0.002833  0.996214  0.003
H  H15  1  0.81954435  0.80816578  0.73950227  1  0.098489  0.005119  0.106071  0.108026  0.002832  0.996236  0.003
H  H16  1  0.87488842  0.39836689  0.76992463  1  0.112511  0.00024  0.111392  0.120413  0.000318  0.999031  0.0
H  H17  1  0.62522088  0.60162865  0.26987993  1  0.1111  0.00024  0.111257  0.120362  0.000317  0.99875  0.0
H  H18  1  0.37484587  0.10164496  0.23009339  1  0.112024  -0.00024  0.111354  0.120459  -0.000318  0.999121  0.0
H  H19  1  0.12515177  0.89838061  0.73009750  1  0.111908  -0.00024  0.111304  0.120372  -0.000318  0.999114  0.0
H  H20  1  0.88973457  0.33398390  0.83401812  1  0.118583  -0.003966  0.099994  0.113213  -0.002133  1.022021  -0.003
H  H21  1  0.61024450  0.66600947  0.33397101  1  0.122053  -0.003963  0.099948  0.113171  -0.002134  1.022035  -0.003
H  H22  1  0.38969596  0.16601820  0.16599869  1  0.121813  0.003965  0.099975  0.113269  0.002133  1.021937  0.003
H  H23  1  0.11030802  0.83399054  0.66600598  1  0.122201  0.003964  0.099956  0.113371  0.002133  1.022092  0.003
H  H24  1  0.60870551  0.73981214  0.89900537  1  0.121569  -0.002734  0.104723  0.125491  -0.002151  1.006035  -0.001
H  H25  1  0.89135099  0.26028672  0.39905165  1  0.122221  -0.002731  0.104789  0.125537  -0.002149  1.006121  -0.001
H  H26  1  0.10873462  0.76021006  0.10098936  1  0.121715  0.002733  0.104715  0.125555  0.002151  1.005977  0.001
H  H27  1  0.39127451  0.23980954  0.60100148  1  0.121934  0.002735  0.104749  0.125633  0.002152  1.005826  0.001
H  H28  1  0.68305902  0.44586661  0.69853991  1  0.135141  0.000923  0.096351  0.101523  0.001016  1.04049  0.0
H  H29  1  0.81691968  0.55419976  0.19851700  1  0.134193  0.000925  0.096192  0.101256  0.001018  1.040442  0.0
H  H30  1  0.18304029  0.05411988  0.30146338  1  0.134557  -0.000923  0.096376  0.101649  -0.001016  1.040577  0.0
H  H31  1  0.31693456  0.94587048  0.80146402  1  0.134978  -0.000923  0.096327  0.101526  -0.001017  1.040449  0.0
H  H32  1  0.64840580  0.55041627  0.12773414  1  0.138066  0.003287  0.100176  0.082271  0.002362  1.056986  0.002
H  H33  1  0.85167001  0.44953812  0.62766697  1  0.13991  0.003284  0.100019  0.081686  0.002362  1.057832  0.002
H  H34  1  0.14834350  0.94951664  0.87232750  1  0.139554  -0.003286  0.09994  0.081707  -0.002363  1.057855  -0.002
H  H35  1  0.35164987  0.05048756  0.37233286  1  0.139769  -0.003285  0.099968  0.08175  -0.002362  1.057931  -0.002
H  H36  1  0.10766840  0.54681860  0.90612071  1  0.071667  0.000367  0.099389  0.099928  0.000314  1.046551  0.0
H  H37  1  0.39235368  0.45310106  0.40603357  1  0.066253  0.000368  0.099474  0.099795  0.000315  1.047553  0.0
H  H38  1  0.60767283  0.95318383  0.09390208  1  0.071779  -0.000367  0.099437  0.099873  -0.000314  1.046501  0.0
H  H39  1  0.89234832  0.04682027  0.59390938  1  0.071718  -0.000368  0.099377  0.099809  -0.000315  1.046578  0.0
H  H40  1  0.44622744  0.33118809  0.71241242  1  0.062687  -0.001593  0.106484  0.117814  -0.000775  1.014807  -0.001
H  H41  1  0.05382308  0.66880849  0.21234049  1  0.062602  -0.001591  0.106502  0.117845  -0.000774  1.014839  -0.001
H  H42  1  0.94619868  0.16880517  0.28759210  1  0.06281  0.001592  0.106472  0.117791  0.000775  1.014846  0.001
H  H43  1  0.55378339  0.83119165  0.78760010  1  0.062723  0.001592  0.106477  0.117849  0.000775  1.014726  0.001
H  H44  1  0.87740711  0.75461724  0.85812527  1  0.138834  -0.002795  0.103467  0.089482  -0.001373  1.045317  -0.002
H  H45  1  0.62264775  0.24542271  0.35818175  1  0.14405  -0.00279  0.103421  0.089385  -0.001375  1.045501  -0.002
H  H46  1  0.37742662  0.74539660  0.14186740  1  0.134547  0.002801  0.103463  0.089586  0.001375  1.045416  0.002
H  H47  1  0.12256411  0.25461543  0.64187716  1  0.138652  0.002795  0.103505  0.089496  0.001373  1.045373  0.002
H  H48  1  0.24728245  0.25064560  0.83201680  1  0.09272  0.000264  0.095389  0.107743  0.000226  1.053273  0.0
H  H49  1  0.25278951  0.74929891  0.33195364  1  0.092057  0.000264  0.095348  0.107816  0.000226  1.05315  0.0
H  H50  1  0.74719740  0.24937466  0.16800557  1  0.091523  -0.000264  0.095463  0.107642  -0.000226  1.05307  0.0
H  H51  1  0.75277859  0.75063624  0.66800829  1  0.092697  -0.000264  0.095452  0.107682  -0.000227  1.053126  0.0
H  H52  1  0.41973379  0.70069179  0.77444600  1  0.133252  -0.002771  0.103726  0.076908  -0.001309  1.05773  -0.002
H  H53  1  0.08013930  0.29934451  0.27443269  1  0.13329  -0.002772  0.103855  0.076996  -0.00131  1.057888  -0.002
H  H54  1  0.91973485  0.79930474  0.22555003  1  0.133127  0.002771  0.103748  0.076961  0.001309  1.057684  0.002
H  H55  1  0.58023944  0.20068324  0.72555352  1  0.13347  0.002771  0.103779  0.076938  0.001309  1.057854  0.002
H  H56  1  0.47607389  0.55977141  0.90062584  1  0.086252  2.6e-05  0.108567  0.107694  5.2e-05  0.999471  0.0
H  H57  1  0.02398352  0.44031589  0.40060819  1  0.085309  2.5e-05  0.108606  0.107774  5.1e-05  0.999646  0.0
H  H58  1  0.97607296  0.94024873  0.09938059  1  0.085518  -2.6e-05  0.108594  0.107738  -5.2e-05  0.999229  0.0
H  H59  1  0.52393763  0.05977213  0.59939197  1  0.085367  -2.6e-05  0.108618  0.107738  -5.2e-05  0.999407  0.0
H  H60  1  0.62241288  0.40468592  0.86057687  1  0.140635  -0.002741  0.101143  0.126073  -0.00209  1.027343  -0.001
H  H61  1  0.87763257  0.59535093  0.36052714  1  0.140429  -0.002742  0.10122  0.126234  -0.002089  1.027544  -0.001
H  H62  1  0.12238604  0.09532214  0.13944943  1  0.140496  0.002737  0.101147  0.125943  0.002087  1.027464  0.001
H  H63  1  0.37761528  0.90469299  0.63944324  1  0.140763  0.002739  0.101153  0.125898  0.002089  1.027313  0.001
H  H64  1  0.90304822  0.47897628  0.97816934  1  0.090667  0.000234  0.105639  0.104008  0.000109  1.004747  0.0
H  H65  1  0.59684047  0.52110500  0.47816152  1  0.089648  0.000234  0.10544  0.103983  0.000109  1.004841  0.0
H  H66  1  0.40312073  0.02107072  0.02184584  1  0.089625  -0.000234  0.105496  0.103876  -0.000109  1.004847  0.0
H  H67  1  0.09684148  0.97891265  0.52184269  1  0.089496  -0.000234  0.105442  0.103843  -0.000109  1.004764  0.0
H  H68  1  0.67216351  0.63466389  0.72937021  1  0.078227  -0.000699  0.095693  0.108467  -0.000214  1.035025  -0.001
H  H69  1  0.82769166  0.36542075  0.22939039  1  0.078573  -0.000702  0.09575  0.108604  -0.000215  1.034909  -0.001
H  H70  1  0.17215406  0.86532640  0.27062751  1  0.078518  0.000698  0.095717  0.108414  0.000213  1.035129  0.001
H  H71  1  0.32781218  0.13465993  0.77062715  1  0.078413  0.000698  0.095619  0.108256  0.000213  1.035141  0.001
H  H72  1  0.68076146  0.35713217  0.95255539  1  0.100272  0.001346  0.103419  0.117025  0.000527  1.024344  0.001
H  H73  1  0.81914110  0.64291673  0.45252244  1  0.100517  0.001344  0.103444  0.117017  0.000526  1.024457  0.001
H  H74  1  0.18085332  0.14293904  0.04746276  1  0.100731  -0.001342  0.103506  0.117099  -0.000525  1.024357  -0.001
H  H75  1  0.31912570  0.85706720  0.54746642  1  0.100848  -0.001343  0.103536  0.117077  -0.000526  1.02443  -0.001
H  H76  1  0.33530257  0.30942934  0.04686891  1  0.075921  -0.00048  0.084509  0.088114  -0.000278  1.081361  0.0
H  H77  1  0.16474251  0.69050328  0.54680376  1  0.075461  -0.00048  0.084499  0.088234  -0.000277  1.080919  0.0
H  H78  1  0.83533020  0.19057920  0.95315318  1  0.075347  0.00048  0.084686  0.088376  0.000277  1.080927  0.0
H  H79  1  0.66467030  0.80943965  0.45316258  1  0.07478  0.00048  0.084691  0.088381  0.000278  1.080905  0.0
H  H80  1  0.46842126  0.23549834  0.00588396  1  0.067065  8e-06  0.104409  0.124552  4e-06  0.975181  0.0
H  H81  1  0.03165403  0.76443788  0.50581011  1  0.067616  7e-06  0.104257  0.12437  4e-06  0.975406  0.0
H  H82  1  0.96842890  0.26450722  0.99415113  1  0.066475  -7e-06  0.104334  0.124357  -4e-06  0.975279  0.0
H  H83  1  0.53156735  0.73551040  0.49415521  1  0.066568  -7e-06  0.104316  0.12434  -4e-06  0.975236  0.0
H  H84  1  0.39130412  0.20399724  0.91555925  1  0.117086  -0.000621  0.094954  0.107536  -0.000309  1.030495  0.0
H  H85  1  0.10881127  0.79595672  0.41550780  1  0.118689  -0.00062  0.094974  0.107578  -0.000309  1.030661  0.0
H  H86  1  0.89121284  0.29603096  0.08445921  1  0.117641  0.000621  0.094972  0.107593  0.00031  1.030521  0.0
H  H87  1  0.60873623  0.70399583  0.58446671  1  0.117477  0.000621  0.095039  0.107693  0.000309  1.030397  0.0
H  H88  1  0.24450384  0.49567495  0.99211137  1  0.11391  -0.000173  0.090055  0.111814  -0.000173  1.04182  0.0
H  H89  1  0.25552040  0.50423366  0.49202773  1  0.115469  -0.000173  0.090379  0.112226  -0.000174  1.04205  0.0
H  H90  1  0.74452520  0.00433428  0.00791388  1  0.114858  0.000173  0.09027  0.112173  0.000174  1.041821  0.0
H  H91  1  0.75548788  0.99567533  0.50792184  1  0.11492  0.000173  0.090224  0.112046  0.000174  1.042015  0.0
H  H92  1  0.88801137  0.57656350  0.06883219  1  0.130699  0.001202  0.104131  0.121088  0.000877  1.008729  0.001
H  H93  1  0.61199298  0.42344068  0.56879457  1  0.130493  0.001209  0.104146  0.121082  0.000883  1.008719  0.001
H  H94  1  0.38798728  0.92339635  0.93121331  1  0.130467  -0.001207  0.104269  0.121257  -0.000881  1.00849  -0.001
H  H95  1  0.11197373  0.07658179  0.43121150  1  0.130352  -0.001207  0.104202  0.121195  -0.000881  1.008585  -0.001
C  C96  1  0.16792107  0.40269207  0.86246272  1  0.237146  0.000782  0.068747  0.15161  -0.000265  3.965564  0.003
C  C97  1  0.33212646  0.59724063  0.36239354  1  0.234712  0.00077  0.068809  0.152092  -0.000261  3.964335  0.003
C  C98  1  0.66786848  0.09732554  0.13755416  1  0.233327  -0.000765  0.068517  0.151194  0.000266  3.965226  -0.003
C  C99  1  0.83211542  0.90268531  0.63755985  1  0.23389  -0.000764  0.068529  0.151197  0.000266  3.965683  -0.003
C  C100  1  0.54997052  0.38940087  0.02637329  1  0.453251  0.002277  0.125908  0.270583  0.002817  3.911476  0.002
C  C101  1  0.95004749  0.61055465  0.52630589  1  0.453107  0.002268  0.125858  0.270182  0.002816  3.911907  0.002
C  C102  1  0.04998691  0.11059018  0.97367106  1  0.452737  -0.00227  0.125552  0.270219  -0.002815  3.912001  -0.002
C  C103  1  0.45000527  0.88942160  0.47367699  1  0.452445  -0.002269  0.125657  0.269957  -0.002816  3.912055  -0.002
C  C104  1  0.16380422  0.39437422  0.76067463  1  0.209759  -0.000461  -0.066224  -0.162649  -0.001221  3.897182  0.002
C  C105  1  0.33622090  0.60559680  0.26061006  1  0.223088  -0.000451  -0.065792  -0.162049  -0.00122  3.89762  0.002
C  C106  1  0.66377727  0.10562130  0.23934390  1  0.209824  0.000461  -0.066047  -0.16242  0.001219  3.897178  -0.002
C  C107  1  0.83621488  0.89437814  0.73934870  1  0.209605  0.000461  -0.06606  -0.162296  0.001218  3.897175  -0.002
C  C108  1  0.91423098  0.40932942  0.81287861  1  0.240256  -0.000547  -0.065283  -0.154159  -0.001341  3.841111  0.002
C  C109  1  0.58582690  0.59066020  0.31282510  1  0.238056  -0.000553  -0.065105  -0.153515  -0.001343  3.840657  0.002
C  C110  1  0.41419542  0.09067703  0.18714071  1  0.236922  0.000546  -0.065249  -0.154185  0.00134  3.841392  -0.002
C  C111  1  0.08580408  0.90933547  0.68714484  1  0.236845  0.00055  -0.065236  -0.154307  0.001343  3.841781  -0.002
C  C112  1  0.82342760  0.49861777  0.83852563  1  0.476249  -0.002837  0.119395  0.241281  -0.002744  3.924616  -0.003
C  C113  1  0.67662822  0.50139709  0.33849590  1  0.476455  -0.002831  0.119258  0.241263  -0.00274  3.925197  -0.003
C  C114  1  0.32341041  0.00139017  0.16149067  1  0.477164  0.002838  0.119438  0.241218  0.002744  3.925028  0.003
C  C115  1  0.17658879  0.99862162  0.66149357  1  0.476609  0.002838  0.119361  0.241177  0.002743  3.924862  0.003
C  C116  1  0.66513314  0.66955677  0.88202437  1  -0.024477  -0.008196  -0.083056  -0.130475  -0.006008  3.95402  -0.006
C  C117  1  0.83491491  0.33051550  0.38205460  1  -0.026643  -0.008194  -0.082969  -0.130191  -0.006008  3.954609  -0.006
C  C118  1  0.16515038  0.83046213  0.11797623  1  -0.024018  0.008206  -0.083092  -0.130495  0.006016  3.953803  0.006
C  C119  1  0.33485776  0.16955478  0.61798441  1  -0.024936  0.008199  -0.083023  -0.130534  0.00601  3.953639  0.006
C  C120  1  0.57780025  0.47777312  0.71820127  1  -0.019172  0.004717  -0.062884  -0.003106  0.003294  3.929402  0.003
C  C121  1  0.92215626  0.52226688  0.21818116  1  -0.019045  0.004717  -0.062953  -0.003412  0.003294  3.929455  0.003
C  C122  1  0.07778721  0.02221667  0.28179980  1  -0.018218  -0.004717  -0.063088  -0.003699  -0.003295  3.930276  -0.003
C  C123  1  0.42219450  0.97777393  0.78180374  1  -0.019225  -0.004717  -0.062896  -0.003413  -0.003295  3.929655  -0.003
C  C124  1  0.66223275  0.50885861  0.08867050  1  0.400561  0.000195  0.04323  0.099792  0.000147  3.926796  0.0
C  C125  1  0.83780840  0.49108203  0.58860364  1  0.399712  0.000189  0.043326  0.100459  0.000142  3.927781  0.0
C  C126  1  0.16220237  0.99108041  0.91138662  1  0.400575  -0.00019  0.043389  0.100473  -0.000143  3.927676  0.0
C  C127  1  0.33778672  0.00892726  0.41139163  1  0.399847  -0.000186  0.043298  0.100254  -0.00014  3.9281  0.0
C  C128  1  0.16703402  0.47034750  0.90836442  1  -0.024451  -0.006637  -0.10252  -0.182969  -0.004263  4.023243  -0.004
C  C129  1  0.33301875  0.52958015  0.40829306  1  -0.022001  -0.006618  -0.102112  -0.18197  -0.004252  4.023636  -0.004
C  C130  1  0.66701292  0.02966537  0.09165535  1  -0.024813  0.006636  -0.102611  -0.182774  0.004264  4.023075  0.004
C  C131  1  0.83299050  0.97034262  0.59166075  1  -0.025457  0.006632  -0.102511  -0.182546  0.004261  4.023354  0.004
C  C132  1  0.44698935  0.41287374  0.72655575  1  0.059647  -0.003752  -0.079019  -0.151259  -0.002965  3.923261  -0.003
C  C133  1  0.05300589  0.58713827  0.22651206  1  0.060721  -0.00375  -0.078838  -0.150962  -0.002966  3.923309  -0.003
C  C134  1  0.94697055  0.08711793  0.27344877  1  0.059291  0.00375  -0.078876  -0.151117  0.002964  3.923472  0.003
C  C135  1  0.55301254  0.91287534  0.77345329  1  0.059623  0.003752  -0.078931  -0.151163  0.002964  3.923566  0.003
C  C136  1  0.81487414  0.67922901  0.85905173  1  0.455168  0.002576  0.044162  0.09769  0.001162  3.921968  0.002
C  C137  1  0.68518545  0.32081254  0.35908083  1  0.448818  0.002564  0.044272  0.09785  0.001158  3.922719  0.002
C  C138  1  0.31489200  0.82078902  0.14094868  1  0.459724  -0.002578  0.044011  0.097275  -0.001159  3.922367  -0.002
C  C139  1  0.18511287  0.17922853  0.64095754  1  0.45523  -0.002578  0.044055  0.097515  -0.001162  3.922124  -0.002
C  C140  1  0.24800955  0.30640470  0.86610400  1  -0.05532  -0.010185  -0.095006  -0.141091  -0.00722  3.961021  -0.007
C  C141  1  0.25207577  0.69354234  0.36604041  1  -0.054079  -0.010165  -0.095248  -0.141823  -0.007212  3.961547  -0.007
C  C142  1  0.74792266  0.19362109  0.13391631  1  -0.051927  0.01017  -0.095192  -0.141221  0.00722  3.961274  0.007
C  C143  1  0.75205058  0.80639361  0.63392318  1  -0.052284  0.010168  -0.095162  -0.141134  0.007218  3.961249  0.007
C  C144  1  0.43487004  0.61945239  0.76064023  1  0.520421  0.002393  0.045829  0.106794  0.000889  3.959542  0.002
C  C145  1  0.06503355  0.38058194  0.26062960  1  0.521134  0.002385  0.045612  0.106749  0.000882  3.959957  0.002
C  C146  1  0.93486116  0.88054231  0.23935747  1  0.520891  -0.00239  0.045877  0.106685  -0.000888  3.959305  -0.002
C  C147  1  0.56511329  0.11944684  0.73936278  1  0.519847  -0.002393  0.045766  0.106721  -0.000889  3.959583  -0.002
C  C148  1  0.59312778  0.57028925  0.88282817  1  -0.005201  0.003554  -0.060734  -0.005267  0.002553  3.94792  0.002
C  C149  1  0.90692146  0.42977908  0.38282051  1  -0.001828  0.003557  -0.060915  -0.005597  0.002554  3.948343  0.002
C  C150  1  0.09312598  0.92972608  0.11718016  1  -0.004664  -0.003554  -0.060701  -0.005273  -0.002553  3.947572  -0.002
C  C151  1  0.40687862  0.07029001  0.61718725  1  -0.003679  -0.003554  -0.060703  -0.005304  -0.002553  3.947688  -0.002
C  C152  1  0.67336814  0.48391512  0.86076003  1  -0.084329  -0.006244  -0.082063  -0.16908  -0.004618  3.922787  -0.005
C  C153  1  0.82667849  0.51612886  0.36073229  1  -0.084591  -0.006247  -0.082051  -0.16935  -0.004621  3.92324  -0.005
C  C154  1  0.17334779  0.01609527  0.13925728  1  -0.084864  0.006241  -0.082238  -0.169126  0.004616  3.923091  0.005
C  C155  1  0.32664880  0.98391906  0.63925823  1  -0.08517  0.006244  -0.082195  -0.168907  0.004617  3.922889  0.005
C  C156  1  0.80134053  0.46975198  0.00529959  1  -0.046844  -0.003005  -0.066199  -0.020128  -0.002106  3.966346  -0.002
C  C157  1  0.69861117  0.53027339  0.50526624  1  -0.047273  -0.003012  -0.065824  -0.020287  -0.002111  3.965821  -0.002
C  C158  1  0.30137431  0.03025870  0.99473194  1  -0.046957  0.003012  -0.065845  -0.019739  0.00211  3.965595  0.002
C  C159  1  0.19859687  0.96973467  0.49473151  1  -0.047337  0.003013  -0.065814  -0.019912  0.002111  3.96551  0.002
C  C160  1  0.57149458  0.58255551  0.73545686  1  -0.068218  -0.004536  -0.085609  -0.117986  -0.003178  3.957255  -0.004
C  C161  1  0.92841139  0.41749606  0.23545408  1  -0.069666  -0.004549  -0.085338  -0.117846  -0.003185  3.957725  -0.004
C  C162  1  0.07148194  0.91743485  0.26454318  1  -0.068745  0.004535  -0.085542  -0.117621  0.003177  3.957506  0.004
C  C163  1  0.42848777  0.08255290  0.76454257  1  -0.068761  0.004533  -0.085536  -0.117538  0.003175  3.95716  0.004
C  C164  1  0.31452480  0.45422642  0.75242702  1  0.406875  -0.002185  0.115086  0.227341  -0.002382  3.963831  -0.002
C  C165  1  0.18546365  0.54576891  0.25238156  1  0.406544  -0.002189  0.114664  0.227059  -0.002378  3.964313  -0.002
C  C166  1  0.81450490  0.04576663  0.24758060  1  0.407055  0.002183  0.114897  0.227206  0.002381  3.963691  0.002
C  C167  1  0.68548026  0.95422829  0.74758647  1  0.407353  0.002184  0.115003  0.227393  0.002382  3.964048  0.002
C  C168  1  0.67853923  0.40223856  0.99088124  1  0.001745  0.006015  -0.083765  -0.172823  0.004408  3.934413  0.005
C  C169  1  0.82142159  0.59776631  0.49083309  1  0.000305  0.006023  -0.083788  -0.172335  0.004409  3.934654  0.005
C  C170  1  0.17858867  0.09778600  0.00915299  1  0.000415  -0.006018  -0.083781  -0.172633  -0.004406  3.934508  -0.005
C  C171  1  0.32139227  0.90221838  0.50915619  1  0.000368  -0.006022  -0.083821  -0.172429  -0.004409  3.934607  -0.005
C  C172  1  0.32886056  0.34596792  0.96012258  1  -0.099011  -0.007264  -0.008638  0.128302  -0.004937  3.942485  -0.005
C  C173  1  0.17122349  0.65396671  0.46005649  1  -0.096379  -0.007249  -0.008449  0.128984  -0.004927  3.941869  -0.005
C  C174  1  0.82880945  0.15405497  0.03990074  1  -0.097525  0.007262  -0.008616  0.128314  0.004936  3.942585  0.005
C  C175  1  0.67117215  0.84596029  0.53990822  1  -0.097455  0.007263  -0.008638  0.128392  0.004937  3.942244  0.005
C  C176  1  0.41767898  0.31484084  0.01179331  1  -0.038969  0.002116  -0.155787  -0.282864  0.001485  3.950508  0.002
C  C177  1  0.08238104  0.68509079  0.51172263  1  -0.036694  0.002119  -0.156073  -0.28345  0.001485  3.950866  0.002
C  C178  1  0.91768598  0.18516714  0.98823675  1  -0.037079  -0.002119  -0.155945  -0.283048  -0.001486  3.950254  -0.002
C  C179  1  0.58230666  0.81484953  0.48824276  1  -0.036011  -0.002119  -0.155967  -0.28307  -0.001486  3.950373  -0.002
C  C180  1  0.32749531  0.27878421  0.91432899  1  -0.036679  0.000523  -0.091619  -0.117829  0.000173  3.964203  0.001
C  C181  1  0.17259883  0.72116339  0.41426797  1  -0.039595  0.000523  -0.091296  -0.117479  0.000174  3.964592  0.001
C  C182  1  0.82741390  0.22124503  0.08569309  1  -0.037865  -0.000519  -0.091407  -0.117364  -0.00017  3.96392  -0.001
C  C183  1  0.67254226  0.77877862  0.58570169  1  -0.038839  -0.000523  -0.091464  -0.117646  -0.000174  3.963969  -0.001
C  C184  1  0.24630505  0.44209465  0.95668308  1  -0.031463  0.001428  -0.092544  -0.123567  0.000865  3.948511  0.001
C  C185  1  0.25373058  0.55782643  0.45660728  1  -0.03258  0.001422  -0.093286  -0.124745  0.000862  3.949509  0.001
C  C186  1  0.74629651  0.05791693  0.04334135  1  -0.031793  -0.001427  -0.092909  -0.124249  -0.000865  3.949435  -0.001
C  C187  1  0.75369811  0.94209367  0.54334806  1  -0.03156  -0.001427  -0.092882  -0.124114  -0.000865  3.949497  -0.001
C  C188  1  0.79327921  0.52447458  0.05525753  1  -0.001223  0.004908  -0.080962  -0.120545  0.003538  3.951836  0.004
C  C189  1  0.70672615  0.47550944  0.55520850  1  -0.000367  0.00492  -0.08115  -0.120548  0.003546  3.951523  0.004
C  C190  1  0.29326514  0.97548761  0.94479071  1  -0.000924  -0.004917  -0.081327  -0.121062  -0.003543  3.951381  -0.004
C  C191  1  0.20671136  0.02450436  0.44479029  1  -0.00067  -0.004917  -0.081227  -0.120849  -0.003543  3.95154  -0.004
N  N192  1  0.08602722  0.43306122  0.81161332  1  -0.994482  -0.131756  -0.313782  -0.083866  -0.091309  3.508827  -0.112
N  N193  1  0.41403742  0.56689697  0.31153990  1  -1.005317  -0.131755  -0.314111  -0.085361  -0.091303  3.509085  -0.112
N  N194  1  0.58599051  0.06694348  0.18840509  1  -0.994007  0.131795  -0.313662  -0.083648  0.091336  3.507897  0.112
N  N195  1  0.91400341  0.93306008  0.68841115  1  -0.994471  0.131784  -0.313597  -0.083888  0.091328  3.508375  0.112
N  N196  1  0.89186284  0.59553078  0.83751714  1  -1.216534  -0.0808  -0.352688  -0.272506  -0.056637  3.608594  -0.07
N  N197  1  0.60820948  0.40448089  0.33751419  1  -1.216597  -0.08086  -0.352611  -0.272663  -0.056686  3.60838  -0.07
N  N198  1  0.39186485  0.90448124  0.16249081  1  -1.217018  0.080809  -0.352644  -0.272088  0.056639  3.608601  0.07
N  N199  1  0.10813672  0.09553136  0.66249517  1  -1.216405  0.08081  -0.352616  -0.272252  0.056641  3.608471  0.07
N  N200  1  0.31040540  0.55631946  0.76939499  1  -1.209131  -0.090461  -0.353796  -0.267661  -0.063487  3.629105  -0.077
N  N201  1  0.18953251  0.44368979  0.26937060  1  -1.208007  -0.090521  -0.353652  -0.267544  -0.063537  3.628163  -0.077
N  N202  1  0.81039052  0.94367649  0.23060789  1  -1.209609  0.090447  -0.353788  -0.267458  0.063474  3.628526  0.077
N  N203  1  0.68958737  0.05631638  0.73061248  1  -1.208134  0.090447  -0.353819  -0.267765  0.063476  3.629048  0.077
N  N204  1  0.54444704  0.44240521  0.07476277  1  -1.206369  0.084639  -0.348776  -0.260353  0.058656  3.604839  0.071
N  N205  1  0.95559749  0.55751446  0.57468381  1  -1.204749  0.0847  -0.348871  -0.260286  0.05869  3.604856  0.071
N  N206  1  0.04443299  0.05754240  0.92529561  1  -1.205449  -0.084676  -0.348594  -0.260165  -0.058681  3.605011  -0.071
N  N207  1  0.45555981  0.94247278  0.42530361  1  -1.2045  -0.084699  -0.348561  -0.259796  -0.058695  3.604793  -0.071
Cl  Cl208  1  0.98032638  0.61207959  0.70234786  1  -0.612256  0.091697  -0.285465  -0.503214  0.062403  1.398224  0.07
Cl  Cl209  1  0.51934207  0.38772413  0.20242057  1  -0.611909  0.091759  -0.285289  -0.502851  0.062439  1.40062  0.07
Cl  Cl210  1  0.48029045  0.88788508  0.29765115  1  -0.612366  -0.091728  -0.285437  -0.503259  -0.062429  1.398606  -0.07
Cl  Cl211  1  0.01970442  0.11211308  0.79764355  1  -0.612306  -0.091752  -0.285427  -0.503135  -0.062444  1.398523  -0.07
Cl  Cl212  1  0.32564535  0.69954468  0.63953441  1  -0.597569  0.121644  -0.303495  -0.484568  0.081963  1.281165  0.094
Cl  Cl213  1  0.17418489  0.30047837  0.13950145  1  -0.597916  0.121662  -0.303456  -0.484474  0.081974  1.280661  0.094
Cl  Cl214  1  0.82564084  0.80044864  0.36045694  1  -0.597474  -0.121648  -0.303502  -0.484551  -0.081968  1.281144  -0.094
Cl  Cl215  1  0.67433028  0.19953043  0.86042178  1  -0.597443  -0.121673  -0.303515  -0.484489  -0.081983  1.281097  -0.094
Cl  Cl216  1  0.27740792  0.44296072  0.59424966  1  -0.596812  0.155731  -0.328605  -0.505162  0.104287  1.149266  0.119
Cl  Cl217  1  0.22279934  0.55720273  0.09433969  1  -0.596691  0.155549  -0.328552  -0.505194  0.104161  1.149699  0.119
Cl  Cl218  1  0.77735401  0.05705351  0.40571870  1  -0.596827  -0.155697  -0.328596  -0.505063  -0.104265  1.149249  -0.119
Cl  Cl219  1  0.72262942  0.94297431  0.90572247  1  -0.596897  -0.155675  -0.328641  -0.505188  -0.104255  1.149383  -0.119
Cl  Cl220  1  0.16834586  0.76764652  0.82374564  1  -0.628302  -0.11281  -0.314926  -0.509443  -0.076531  1.210653  -0.087
Cl  Cl221  1  0.33172600  0.23232942  0.32368143  1  -0.628348  -0.112703  -0.314965  -0.509507  -0.07646  1.21053  -0.087
Cl  Cl222  1  0.66831935  0.73235254  0.17626568  1  -0.628444  0.112789  -0.314884  -0.509506  0.076516  1.211015  0.087
Cl  Cl223  1  0.83160600  0.26762852  0.67623873  1  -0.628183  0.112803  -0.314974  -0.509464  0.07652  1.210467  0.087
