# generated using pymatgen
data_CdH5C7S2N3O
_symmetry_space_group_name_H-M   'P 1'
_cell_length_a   7.63417180
_cell_length_b   8.32728449
_cell_length_c   8.79756936
_cell_angle_alpha   63.31672899
_cell_angle_beta   88.32511162
_cell_angle_gamma   88.92071913
_symmetry_Int_Tables_number   1
_chemical_formula_structural   CdH5C7S2N3O
_chemical_formula_sum   'Cd2 H10 C14 S4 N6 O2'
_cell_volume   499.49294575
_cell_formula_units_Z   2
loop_
 _symmetry_equiv_pos_site_id
 _symmetry_equiv_pos_as_xyz
  1  'x, y, z'
loop_
 _atom_site_type_symbol
 _atom_site_label
 _atom_site_symmetry_multiplicity
 _atom_site_fract_x
 _atom_site_fract_y
 _atom_site_fract_z
 _atom_site_occupancy
 _atom_site_hle17_bader_spin_density
 _atom_site_hle17_ddec_charge
 _atom_site_hle17_ddec_spin_density
 _atom_site_hle17_ddec_sum_bond_order
 _atom_site_hle17_magmom
 _atom_site_hse06_10hf_bader_spin_density
 _atom_site_hse06_10hf_ddec_charge
 _atom_site_hse06_10hf_ddec_spin_density
 _atom_site_hse06_10hf_ddec_sum_bond_order
 _atom_site_hse06_10hf_magmom
 _atom_site_hse06_bader_spin_density
 _atom_site_hse06_ddec_charge
 _atom_site_hse06_ddec_spin_density
 _atom_site_hse06_ddec_sum_bond_order
 _atom_site_hse06_magmom
 _atom_site_pbe_bader_spin_density
 _atom_site_pbe_cm5_charge
 _atom_site_pbe_ddec_charge
 _atom_site_pbe_ddec_spin_density
 _atom_site_pbe_ddec_sum_bond_order
 _atom_site_pbe_magmom
Cd  Cd0  1  0.66521323  0.65871586  0.03701496  1  0  1.036085  0  1.933025  0  0  0.867501  0  2.411752  0  0  0.914724  0  2.366367  0  0  0.708052  0.834435  0  2.442406  0
Cd  Cd1  1  0.33479124  0.34129117  0.96298476  1  0  1.036034  0  1.933204  0  0  0.867476  0  2.411884  0  0  0.914697  0  2.366499  0  0  0.708031  0.834413  0  2.442548  0
H  H2  1  0.78162034  0.23986691  0.98785983  1  0  0.107716  0  0.968529  0  0  0.113083  0  1.03693  0  0  0.115689  0  1.035023  0  0  0.122351  0.111131  0  1.0384  0
H  H3  1  0.21836712  0.76013589  0.01213771  1  0  0.107747  0  0.968447  0  0  0.113085  0  1.036895  0  0  0.115689  0  1.03499  0  0  0.122318  0.111135  0  1.038361  0
H  H4  1  0.97419804  0.96314707  0.13557735  1  0  0.107324  0  0.958143  0  0  0.115723  0  1.020119  0  0  0.11846  0  1.019773  0  0  0.106929  0.113755  0  1.020584  0
H  H5  1  0.02578934  0.03685299  0.86440887  1  0  0.107289  0  0.958216  0  0  0.115751  0  1.020119  0  0  0.118489  0  1.019769  0  0  0.106949  0.113789  0  1.020575  0
H  H6  1  0.95671927  0.79291366  0.45280283  1  0  0.104621  0  0.951944  0  0  0.112624  0  1.015775  0  0  0.11559  0  1.013632  0  0  0.102305  0.110447  0  1.017342  0
H  H7  1  0.04329447  0.20707862  0.54718927  1  0  0.104523  0  0.951978  0  0  0.112501  0  1.015853  0  0  0.115466  0  1.013709  0  0  0.102262  0.110328  0  1.017414  0
H  H8  1  0.75812948  0.91041342  0.61399194  1  0  0.123932  0  0.962672  0  0  0.129222  0  1.025439  0  0  0.13212  0  1.025321  0  0  0.109813  0.127153  0  1.025677  0
H  H9  1  0.24189350  0.08958034  0.38600832  1  0  0.123959  0  0.962658  0  0  0.129262  0  1.025399  0  0  0.132162  0  1.025283  0  0  0.109822  0.127197  0  1.025626  0
H  H10  1  0.57795602  0.19155845  0.44636813  1  0  0.112532  0  0.944176  0  0  0.119293  0  1.010338  0  0  0.122513  0  1.007584  0  0  0.124842  0.116921  0  1.0124  0
H  H11  1  0.42206444  0.80843668  0.55364413  1  0  0.112508  0  0.944059  0  0  0.119299  0  1.010222  0  0  0.12252  0  1.007468  0  0  0.12483  0.116929  0  1.012284  0
C  C12  1  0.78412660  0.15909668  0.12501745  1  0  0.026212  0  3.5822  0  0  -0.014417  0  3.838897  0  0  -0.008091  0  3.854435  0  0  0.045693  -0.018353  0  3.828603  0
C  C13  1  0.21586482  0.84090618  0.87498336  1  0  0.026275  0  3.582132  0  0  -0.014344  0  3.838844  0  0  -0.008016  0  3.854384  0  0  0.045668  -0.018278  0  3.828553  0
C  C14  1  0.88694302  0.00758050  0.20914587  1  0  -0.084162  0  3.740387  0  0  -0.095976  0  3.995504  0  0  -0.102496  0  4.016124  0  0  -0.074958  -0.092065  0  3.98192  0
C  C15  1  0.11305353  0.99242371  0.79084509  1  0  -0.084328  0  3.740543  0  0  -0.096176  0  3.995657  0  0  -0.102698  0  4.016278  0  0  -0.074965  -0.092269  0  3.982076  0
C  C16  1  0.87790001  0.91365256  0.38600670  1  0  -0.006331  0  3.69034  0  0  -0.030962  0  3.940711  0  0  -0.025816  0  3.956902  0  0  -0.06841  -0.034042  0  3.929714  0
C  C17  1  0.12210456  0.08634369  0.61399082  1  0  -0.005964  0  3.690567  0  0  -0.030571  0  3.940917  0  0  -0.025424  0  3.957108  0  0  -0.068307  -0.033667  0  3.929946  0
C  C18  1  0.76753381  0.97825701  0.47568054  1  0  -0.097036  0  3.733306  0  0  -0.10354  0  3.9813  0  0  -0.110393  0  4.002188  0  0  -0.075542  -0.099352  0  3.967451  0
C  C19  1  0.23246687  0.02174192  0.52432505  1  0  -0.097263  0  3.733627  0  0  -0.103751  0  3.981609  0  0  -0.110609  0  4.0025  0  0  -0.075588  -0.099559  0  3.967751  0
C  C20  1  0.66715082  0.13093640  0.38795918  1  0  0.018609  0  3.592254  0  0  -0.023964  0  3.852591  0  0  -0.017221  0  3.866372  0  0  0.044189  -0.028217  0  3.843441  0
C  C21  1  0.33285234  0.86906926  0.61204004  1  0  0.01885  0  3.591825  0  0  -0.023799  0  3.852216  0  0  -0.017055  0  3.865999  0  0  0.04423  -0.028039  0  3.843051  0
C  C22  1  0.39373147  0.88854907  0.19183640  1  0  0.302959  0  4.013982  0  0  0.284889  0  4.310584  0  0  0.306184  0  4.327846  0  0  0.148596  0.270449  0  4.298364  0
C  C23  1  0.60626012  0.11144168  0.80816730  1  0  0.302972  0  4.013443  0  0  0.284912  0  4.31006  0  0  0.306205  0  4.327317  0  0  0.148665  0.270471  0  4.297846  0
C  C24  1  0.04725718  0.45740970  0.20225640  1  0  0.303628  0  3.996799  0  0  0.283166  0  4.297929  0  0  0.304205  0  4.313827  0  0  0.148308  0.268832  0  4.286738  0
C  C25  1  0.95275137  0.54258932  0.79774890  1  0  0.303526  0  3.997457  0  0  0.283045  0  4.298596  0  0  0.304078  0  4.314498  0  0  0.148201  0.268717  0  4.287397  0
S  S26  1  0.45395129  0.67823874  0.28768594  1  0  -0.321323  0  2.146632  0  0  -0.287151  0  2.468626  0  0  -0.305206  0  2.462934  0  0  -0.137618  -0.274479  0  2.472204  0
S  S27  1  0.54603197  0.32178150  0.71230655  1  0  -0.321282  0  2.14603  0  0  -0.287106  0  2.467999  0  0  -0.305163  0  2.462311  0  0  -0.137555  -0.274455  0  2.471632  0
S  S28  1  0.90646215  0.55570683  0.27743882  1  0  -0.353357  0  2.213798  0  0  -0.319457  0  2.556708  0  0  -0.339363  0  2.552086  0  0  -0.138383  -0.305283  0  2.559222  0
S  S29  1  0.09353049  0.44429871  0.72255625  1  0  -0.353404  0  2.214016  0  0  -0.31948  0  2.556881  0  0  -0.339385  0  2.552262  0  0  -0.138421  -0.305303  0  2.559395  0
N  N30  1  0.67438704  0.21609738  0.21521470  1  0  0.263067  0  3.696173  0  0  0.315612  0  3.951324  0  0  0.313566  0  3.973796  0  0  -0.121279  0.31628  0  3.936104  0
N  N31  1  0.32561748  0.78390831  0.78478901  1  0  0.262963  0  3.695849  0  0  0.315555  0  3.951016  0  0  0.313502  0  3.97349  0  0  -0.121218  0.316217  0  3.935811  0
N  N32  1  0.34316823  0.03932267  0.12532278  1  0  -0.549532  0  2.901945  0  0  -0.48989  0  3.180688  0  0  -0.512752  0  3.1887  0  0  -0.399289  -0.474107  0  3.174854  0
N  N33  1  0.65681281  0.96067335  0.87468129  1  0  -0.549547  0  2.902113  0  0  -0.489919  0  3.180893  0  0  -0.512778  0  3.188901  0  0  -0.399393  -0.474116  0  3.175025  0
N  N34  1  0.15010334  0.38394631  0.15163533  1  0  -0.523037  0  2.885419  0  0  -0.46652  0  3.162329  0  0  -0.487679  0  3.169666  0  0  -0.387428  -0.451969  0  3.15717  0
N  N35  1  0.84990789  0.61604057  0.84836143  1  0  -0.522915  0  2.885721  0  0  -0.466391  0  3.162618  0  0  -0.487547  0  3.169958  0  0  -0.387275  -0.45184  0  3.157454  0
O  O36  1  0.56896071  0.35692777  0.13429816  1  0  -0.571891  0  1.935812  0  0  -0.509259  0  2.206699  0  0  -0.534061  0  2.20154  0  0  -0.258197  -0.491571  0  2.209768  0
O  O37  1  0.43103877  0.64306578  0.86571205  1  0  -0.571961  0  1.935798  0  0  -0.509324  0  2.20666  0  0  -0.534107  0  2.201482  0  0  -0.258228  -0.491635  0  2.209737  0
