# generated using pymatgen
data_HgH9C11N3Cl2O
_symmetry_space_group_name_H-M   'P 1'
_cell_length_a   7.95483260
_cell_length_b   12.00000082
_cell_length_c   13.41610000
_cell_angle_alpha   90.00000000
_cell_angle_beta   90.00000000
_cell_angle_gamma   95.35164011
_symmetry_Int_Tables_number   1
_chemical_formula_structural   HgH9C11N3Cl2O
_chemical_formula_sum   'Hg4 H36 C44 N12 Cl8 O4'
_cell_volume   1275.09163831
_cell_formula_units_Z   4
loop_
 _symmetry_equiv_pos_site_id
 _symmetry_equiv_pos_as_xyz
  1  'x, y, z'
loop_
 _atom_site_type_symbol
 _atom_site_label
 _atom_site_symmetry_multiplicity
 _atom_site_fract_x
 _atom_site_fract_y
 _atom_site_fract_z
 _atom_site_occupancy
 _atom_site_hle17_bader_spin_density
 _atom_site_hle17_ddec_charge
 _atom_site_hle17_ddec_spin_density
 _atom_site_hle17_ddec_sum_bond_order
 _atom_site_hle17_magmom
 _atom_site_hse06_10hf_bader_spin_density
 _atom_site_hse06_10hf_ddec_charge
 _atom_site_hse06_10hf_ddec_spin_density
 _atom_site_hse06_10hf_ddec_sum_bond_order
 _atom_site_hse06_10hf_magmom
 _atom_site_hse06_bader_spin_density
 _atom_site_hse06_ddec_charge
 _atom_site_hse06_ddec_spin_density
 _atom_site_hse06_ddec_sum_bond_order
 _atom_site_hse06_magmom
 _atom_site_pbe_bader_charge
 _atom_site_pbe_bader_spin_density
 _atom_site_pbe_cm5_charge
 _atom_site_pbe_ddec_charge
 _atom_site_pbe_ddec_spin_density
 _atom_site_pbe_ddec_sum_bond_order
 _atom_site_pbe_magmom
Hg  Hg0  1  0.83134947  0.17758491  0.61904801  1  0  0.734098  0  2.109977  0  0  0.567567  0  2.613124  0  0  0.615001  0  2.582212  0  0.813859  0  0.525134  0.535295  0  2.633514  0
Hg  Hg1  1  0.66864680  0.32241621  0.11904950  1  0  0.73409  0  2.109963  0  0  0.567569  0  2.613111  0  0  0.615006  0  2.582199  0  0.81388  0  0.525136  0.535296  0  2.633501  0
Hg  Hg2  1  0.16864816  0.82241314  0.38095274  1  0  0.734083  0  2.109915  0  0  0.567565  0  2.613069  0  0  0.615  0  2.582157  0  0.813875  0  0.525139  0.535293  0  2.633462  0
Hg  Hg3  1  0.33135118  0.67758435  0.88095125  1  0  0.734101  0  2.109992  0  0  0.567583  0  2.613134  0  0  0.615016  0  2.582222  0  0.813905  0  0.525142  0.535312  0  2.633523  0
H  H4  1  0.47681799  0.20221058  0.49839372  1  0  0.081652  0  0.953601  0  0  0.085594  0  1.028419  0  0  0.088478  0  1.025331  0  0.100046  0  0.106702  0.083509  0  1.030661  0
H  H5  1  0.02318363  0.29779054  0.99839298  1  0  0.081636  0  0.953612  0  0  0.085588  0  1.02842  0  0  0.088472  0  1.025333  0  0.100031  0  0.106696  0.083503  0  1.030663  0
H  H6  1  0.52317724  0.79778831  0.50160628  1  0  0.081637  0  0.953561  0  0  0.085579  0  1.02838  0  0  0.088464  0  1.025291  0  0.10009  0  0.106699  0.083492  0  1.030625  0
H  H7  1  0.97681537  0.70220835  0.00160702  1  0  0.081624  0  0.953696  0  0  0.085574  0  1.028497  0  0  0.088458  0  1.02541  0  0.099998  0  0.106685  0.08349  0  1.030739  0
H  H8  1  0.50212377  0.50947324  0.32907402  1  0  0.106748  0  0.943627  0  0  0.116768  0  1.003388  0  0  0.119248  0  1.00263  0  0.079034  0  0.108944  0.114938  0  1.003967  0
H  H9  1  0.99786589  0.99052928  0.82907104  1  0  0.106792  0  0.943587  0  0  0.116804  0  1.003357  0  0  0.119282  0  1.0026  0  0.079049  0  0.108982  0.114975  0  1.003934  0
H  H10  1  0.49787798  0.49052732  0.67092672  1  0  0.106708  0  0.943628  0  0  0.116748  0  1.00337  0  0  0.119229  0  1.002611  0  0.078936  0  0.108936  0.114919  0  1.00395  0
H  H11  1  0.00212844  0.00947212  0.17092523  1  0  0.106814  0  0.943513  0  0  0.116838  0  1.003274  0  0  0.119317  0  1.002515  0  0.079096  0  0.10898  0.115007  0  1.003855  0
H  H12  1  0.81090680  0.54026914  0.37455520  1  0  0.109654  0  0.967862  0  0  0.116414  0  1.032757  0  0  0.120161  0  1.031048  0  0.144836  0  0.097194  0.113703  0  1.034205  0
H  H13  1  0.68908687  0.95973505  0.87455669  1  0  0.109766  0  0.967813  0  0  0.116465  0  1.03274  0  0  0.120207  0  1.031035  0  0.144803  0  0.097222  0.113753  0  1.034189  0
H  H14  1  0.18909448  0.45972807  0.62544555  1  0  0.109787  0  0.967764  0  0  0.116576  0  1.032606  0  0  0.120288  0  1.03093  0  0.144871  0  0.097267  0.113868  0  1.034059  0
H  H15  1  0.31090883  0.04026719  0.12544033  1  0  0.10975  0  0.967768  0  0  0.116435  0  1.032734  0  0  0.120193  0  1.031014  0  0.144813  0  0.097187  0.113723  0  1.034183  0
H  H16  1  0.93250789  0.39819318  0.48401771  1  0  0.081981  0  0.936013  0  0  0.089441  0  1.002774  0  0  0.0918  0  1.000226  0  0.115082  0  0.11418  0.087666  0  1.00466  0
H  H17  1  0.56749113  0.10180961  0.98402442  1  0  0.08203  0  0.935923  0  0  0.089479  0  1.002694  0  0  0.09184  0  1.00014  0  0.115131  0  0.114198  0.087706  0  1.004585  0
H  H18  1  0.06748950  0.60180319  0.51598304  1  0  0.081961  0  0.93604  0  0  0.089425  0  1.002798  0  0  0.091785  0  1.00025  0  0.115039  0  0.114183  0.087657  0  1.004691  0
H  H19  1  0.43250662  0.89818928  0.01597782  1  0  0.082032  0  0.935963  0  0  0.089478  0  1.002739  0  0  0.091838  0  1.000186  0  0.115139  0  0.114192  0.087704  0  1.00463  0
H  H20  1  0.03884105  0.04510661  0.42930658  1  0  0.093217  0  0.982803  0  0  0.103268  0  1.050296  0  0  0.105803  0  1.048311  0  0.069756  0  0.093418  0.101372  0  1.051886  0
H  H21  1  0.46116195  0.45489534  0.92930732  1  0  0.093177  0  0.982815  0  0  0.103211  0  1.050325  0  0  0.105745  0  1.048342  0  0.069775  0  0.093376  0.101314  0  1.051916  0
H  H22  1  0.96115956  0.95489478  0.57069417  1  0  0.093187  0  0.982777  0  0  0.103232  0  1.050288  0  0  0.105767  0  1.048302  0  0.069781  0  0.093392  0.101337  0  1.051878  0
H  H23  1  0.53883729  0.54510522  0.07069118  1  0  0.093177  0  0.982827  0  0  0.103259  0  1.050272  0  0  0.105794  0  1.048288  0  0.069748  0  0.093397  0.101362  0  1.051864  0
H  H24  1  0.74304826  0.98061021  0.37485260  1  0  0.108507  0  0.96278  0  0  0.11308  0  1.031017  0  0  0.116303  0  1.029777  0  0.149516  0  0.094787  0.110764  0  1.03206  0
H  H25  1  0.75695271  0.51939231  0.87485186  1  0  0.108485  0  0.962821  0  0  0.113053  0  1.03107  0  0  0.116275  0  1.02983  0  0.149481  0  0.094766  0.110737  0  1.032111  0
H  H26  1  0.25695247  0.01939203  0.62514740  1  0  0.108499  0  0.9628  0  0  0.113063  0  1.03105  0  0  0.116286  0  1.02981  0  0.149484  0  0.09478  0.110747  0  1.03209  0
H  H27  1  0.24304652  0.48060825  0.12514740  1  0  0.108491  0  0.962819  0  0  0.113058  0  1.031066  0  0  0.116281  0  1.029826  0  0.149505  0  0.094774  0.110742  0  1.032107  0
H  H28  1  0.59703408  0.10123711  0.25622573  1  0  0.082769  0  0.946099  0  0  0.087899  0  1.016707  0  0  0.090877  0  1.013352  0  0.13482  0  0.10461  0.085675  0  1.019212  0
H  H29  1  0.90296733  0.39876484  0.75622573  1  0  0.082747  0  0.946117  0  0  0.087896  0  1.016702  0  0  0.090867  0  1.013354  0  0.135269  0  0.104606  0.085677  0  1.019201  0
H  H30  1  0.40296641  0.89876345  0.74377353  1  0  0.082791  0  0.946123  0  0  0.087907  0  1.016743  0  0  0.090894  0  1.01338  0  0.134821  0  0.104602  0.085685  0  1.019246  0
H  H31  1  0.09703556  0.60123488  0.24377725  1  0  0.08275  0  0.946129  0  0  0.087892  0  1.01672  0  0  0.090864  0  1.013372  0  0.135277  0  0.104625  0.085679  0  1.019213  0
H  H32  1  0.01158353  0.33860762  0.24660743  1  0  0.101188  0  0.965635  0  0  0.104015  0  1.037359  0  0  0.107366  0  1.034329  0  0.124073  0  0.109809  0.101563  0  1.039592  0
H  H33  1  0.48841707  0.16139517  0.74660818  1  0  0.101172  0  0.965646  0  0  0.103977  0  1.037384  0  0  0.107326  0  1.034357  0  0.124127  0  0.109793  0.101513  0  1.039628  0
H  H34  1  0.98841834  0.66139378  0.75339257  1  0  0.101171  0  0.965624  0  0  0.103998  0  1.037343  0  0  0.107346  0  1.034315  0  0.124098  0  0.109788  0.101519  0  1.039604  0
H  H35  1  0.51158331  0.83860455  0.25339257  1  0  0.101156  0  0.965656  0  0  0.103979  0  1.03738  0  0  0.10733  0  1.03435  0  0.12411  0  0.109788  0.101501  0  1.039641  0
H  H36  1  0.28472169  0.16585126  0.38918240  1  0  0.287006  0  0.93661  0  0  0.267437  0  1.008931  0  0  0.274547  0  1.003832  0  0.484783  0  0.288866  0.262411  0  1.012554  0
H  H37  1  0.21528084  0.33414735  0.88918315  1  0  0.286993  0  0.936634  0  0  0.267438  0  1.008939  0  0  0.274547  0  1.003851  0  0.484818  0  0.288899  0.262413  0  1.012561  0
H  H38  1  0.71527892  0.83415014  0.61081835  1  0  0.286996  0  0.936638  0  0  0.267417  0  1.008965  0  0  0.274529  0  1.003868  0  0.484774  0  0.288855  0.262389  0  1.01259  0
H  H39  1  0.78471954  0.66585238  0.11081611  1  0  0.287033  0  0.936578  0  0  0.267465  0  1.008888  0  0  0.274574  0  1.003797  0  0.484808  0  0.288891  0.26244  0  1.012511  0
C  C40  1  0.54446973  0.27840520  0.46859147  1  0  0.107207  0  3.674231  0  0  0.067352  0  3.924499  0  0  0.075825  0  3.943042  0  0.501091  0  0.04658  0.061688  0  3.912372  0
C  C41  1  0.95552917  0.22159675  0.96859072  1  0  0.107214  0  3.674203  0  0  0.067351  0  3.924491  0  0  0.075821  0  3.943038  0  0.501089  0  0.046567  0.061683  0  3.912371  0
C  C42  1  0.45552550  0.72159368  0.53140928  1  0  0.107236  0  3.674149  0  0  0.067397  0  3.924395  0  0  0.075868  0  3.942939  0  0.501096  0  0.046595  0.061753  0  3.912235  0
C  C43  1  0.04446857  0.77840214  0.03140704  1  0  0.107165  0  3.674249  0  0  0.067318  0  3.924529  0  0  0.075786  0  3.943073  0  0.501078  0  0.046574  0.061652  0  3.912406  0
C  C44  1  0.46621949  0.35299533  0.40794195  1  0  -0.105122  0  3.75367  0  0  -0.080442  0  3.9907  0  0  -0.092047  0  4.014884  0  -0.017703  0  -0.010407  -0.073194  0  3.974599  0
C  C45  1  0.03378088  0.14700578  0.90793897  1  0  -0.105192  0  3.753499  0  0  -0.080527  0  3.990573  0  0  -0.092131  0  4.014747  0  -0.01757  0  -0.010424  -0.073278  0  3.974471  0
C  C46  1  0.53378101  0.64700523  0.59205954  1  0  -0.105201  0  3.753668  0  0  -0.080538  0  3.990733  0  0  -0.092135  0  4.014903  0  -0.017723  0  -0.010444  -0.073291  0  3.974635  0
C  C47  1  0.96621687  0.85299310  0.09205954  1  0  -0.105128  0  3.753361  0  0  -0.080463  0  3.990447  0  0  -0.092054  0  4.0146  0  -0.017561  0  -0.010433  -0.073214  0  3.974344  0
C  C48  1  0.56261936  0.44976380  0.37492789  1  0  -0.01119  0  3.680226  0  0  -0.038645  0  3.926689  0  0  -0.033678  0  3.944212  0  -0.012797  0  -0.059279  -0.041474  0  3.914729  0
C  C49  1  0.93737109  0.05024066  0.87492267  1  0  -0.01113  0  3.680228  0  0  -0.038579  0  3.92664  0  0  -0.033618  0  3.94418  0  -0.012868  0  -0.059287  -0.041405  0  3.914677  0
C  C50  1  0.43738377  0.55023759  0.62507584  1  0  -0.010989  0  3.680124  0  0  -0.03845  0  3.926573  0  0  -0.033489  0  3.94409  0  -0.012728  0  -0.05923  -0.04128  0  3.914612  0
C  C51  1  0.06262586  0.94976157  0.12507137  1  0  -0.011179  0  3.680211  0  0  -0.038643  0  3.926672  0  0  -0.03368  0  3.944198  0  -0.012887  0  -0.059306  -0.041468  0  3.914707  0
C  C52  1  0.73224837  0.46674030  0.40047033  1  0  -0.105198  0  3.711618  0  0  -0.117106  0  3.964573  0  0  -0.125263  0  3.985051  0  -0.022276  0  -0.080619  -0.11198  0  3.950864  0
C  C53  1  0.76774951  0.03326332  0.90047108  1  0  -0.105352  0  3.711888  0  0  -0.117183  0  3.964816  0  0  -0.12533  0  3.985277  0  -0.022304  0  -0.080616  -0.112057  0  3.95111  0
C  C54  1  0.26775669  0.53325691  0.59953116  1  0  -0.105503  0  3.71165  0  0  -0.117392  0  3.964519  0  0  -0.125536  0  3.985052  0  -0.022295  0  -0.080666  -0.112271  0  3.950823  0
C  C55  1  0.23224607  0.96673807  0.09952669  1  0  -0.105331  0  3.711821  0  0  -0.117159  0  3.964764  0  0  -0.125322  0  3.985227  0  -0.02228  0  -0.080585  -0.112034  0  3.951057  0
C  C56  1  0.80012038  0.38839129  0.46167515  1  0  0.148096  0  3.674731  0  0  0.113281  0  3.931108  0  0  0.123172  0  3.946933  0  0.47327  0  0.054169  0.106963  0  3.920209  0
C  C57  1  0.69987875  0.11161234  0.96167664  1  0  0.148047  0  3.674732  0  0  0.11323  0  3.931081  0  0  0.123122  0  3.946907  0  0.473205  0  0.0541  0.106904  0  3.920191  0
C  C58  1  0.19987701  0.61160509  0.53832634  1  0  0.148162  0  3.674685  0  0  0.113328  0  3.931097  0  0  0.123219  0  3.946909  0  0.473241  0  0.05412  0.106994  0  3.920217  0
C  C59  1  0.30012037  0.88838738  0.03832261  1  0  0.1481  0  3.674707  0  0  0.113297  0  3.931047  0  0  0.123189  0  3.946875  0  0.473234  0  0.054177  0.106973  0  3.920156  0
C  C60  1  0.28410694  0.33824856  0.37822169  1  0  0.555232  0  3.84158  0  0  0.504572  0  4.133988  0  0  0.53465  0  4.1334  0  1.422906  0  0.241999  0.484424  0  4.133651  0
C  C61  1  0.21588851  0.16175340  0.87821796  1  0  0.555291  0  3.841506  0  0  0.504635  0  4.133906  0  0  0.534712  0  4.133323  0  1.422878  0  0.241974  0.484488  0  4.13357  0
C  C62  1  0.71589139  0.66175452  0.62177980  1  0  0.555258  0  3.841473  0  0  0.504588  0  4.133877  0  0  0.534662  0  4.133298  0  1.4229  0  0.242033  0.484436  0  4.133547  0
C  C63  1  0.78410900  0.83824381  0.12178055  1  0  0.555189  0  3.841345  0  0  0.504525  0  4.13376  0  0  0.534597  0  4.133178  0  1.422865  0  0.24196  0.484377  0  4.133423  0
C  C64  1  0.04812764  0.19654589  0.34259807  1  0  0.218388  0  3.789893  0  0  0.217288  0  4.032272  0  0  0.221792  0  4.054394  0  0.332589  0  0.100799  0.213898  0  4.01751  0
C  C65  1  0.45187399  0.30345523  0.84260031  1  0  0.218344  0  3.789684  0  0  0.217163  0  4.032158  0  0  0.221668  0  4.054287  0  0.332625  0  0.100714  0.213775  0  4.017394  0
C  C66  1  0.95187172  0.80345551  0.65740267  1  0  0.218365  0  3.789965  0  0  0.217314  0  4.032272  0  0  0.221818  0  4.054402  0  0.332588  0  0.100809  0.213926  0  4.017501  0
C  C67  1  0.54812639  0.69654449  0.15740044  1  0  0.218436  0  3.789726  0  0  0.217221  0  4.032259  0  0  0.221726  0  4.054386  0  0.332619  0  0.100734  0.213833  0  4.017492  0
C  C68  1  0.96972590  0.09477813  0.37833349  1  0  -0.136901  0  3.739072  0  0  -0.158933  0  3.990389  0  0  -0.16051  0  4.010236  0  0.005116  0  -0.084861  -0.157539  0  3.976891  0
C  C69  1  0.53027677  0.40522383  0.87833573  1  0  -0.136752  0  3.738917  0  0  -0.158726  0  3.990211  0  0  -0.160305  0  4.010062  0  0.005161  0  -0.084735  -0.157337  0  3.976724  0
C  C70  1  0.03027346  0.90522327  0.62166725  1  0  -0.136835  0  3.738995  0  0  -0.158886  0  3.990301  0  0  -0.160465  0  4.01015  0  0.005085  0  -0.084833  -0.157493  0  3.976796  0
C  C71  1  0.46972372  0.59477673  0.12166427  1  0  -0.136756  0  3.739001  0  0  -0.158758  0  3.990286  0  0  -0.160338  0  4.010137  0  0.005161  0  -0.084742  -0.157365  0  3.976787  0
C  C72  1  0.80651954  0.05916456  0.34814663  1  0  -0.092168  0  3.756006  0  0  -0.106383  0  4.013092  0  0  -0.111841  0  4.035007  0  0.001569  0  -0.087346  -0.102856  0  3.998334  0
C  C73  1  0.69348176  0.44083656  0.84814738  1  0  -0.092171  0  3.756112  0  0  -0.106388  0  4.013185  0  0  -0.111848  0  4.035103  0  0.001291  0  -0.087319  -0.102855  0  3.998414  0
C  C74  1  0.19347982  0.94083684  0.65185262  1  0  -0.092099  0  3.755902  0  0  -0.106295  0  4.012969  0  0  -0.111755  0  4.034889  0  0.001776  0  -0.087295  -0.102779  0  3.998244  0
C  C75  1  0.30651850  0.55916233  0.15185262  1  0  -0.092147  0  3.755999  0  0  -0.106365  0  4.013073  0  0  -0.111824  0  4.034989  0  0.001409  0  -0.087307  -0.102839  0  3.998323  0
C  C76  1  0.72461029  0.12590380  0.28247702  1  0  0.121272  0  3.693929  0  0  0.084791  0  3.953505  0  0  0.092174  0  3.970566  0  0.445619  0  0.035726  0.079991  0  3.941914  0
C  C77  1  0.77539250  0.37409899  0.78247777  1  0  0.121274  0  3.693963  0  0  0.084774  0  3.953552  0  0  0.092159  0  3.970618  0  0.445363  0  0.035722  0.07997  0  3.94196  0
C  C78  1  0.27539547  0.87409843  0.71752223  1  0  0.121164  0  3.693833  0  0  0.0847  0  3.953409  0  0  0.092073  0  3.970469  0  0.445369  0  0.035708  0.079897  0  3.941819  0
C  C79  1  0.22460937  0.62590241  0.21752298  1  0  0.121197  0  3.693871  0  0  0.084727  0  3.953438  0  0  0.092111  0  3.970503  0  0.445187  0  0.035681  0.079918  0  3.941843  0
C  C80  1  0.95766465  0.25899560  0.27659379  1  0  0.028143  0  3.662177  0  0  -0.010457  0  3.916228  0  0  -0.00562  0  3.932919  0  0.564337  0  0.036341  -0.013586  0  3.904994  0
C  C81  1  0.54233802  0.24100635  0.77659528  1  0  0.028128  0  3.662046  0  0  -0.01044  0  3.916121  0  0  -0.005604  0  3.932815  0  0.564357  0  0.036319  -0.013558  0  3.904891  0
C  C82  1  0.04233596  0.74100580  0.72340621  1  0  0.028087  0  3.6621  0  0  -0.010536  0  3.916168  0  0  -0.0057  0  3.932861  0  0.564349  0  0.036302  -0.013641  0  3.904944  0
C  C83  1  0.45766248  0.75899421  0.22340621  1  0  0.028085  0  3.662052  0  0  -0.0105  0  3.916164  0  0  -0.005663  0  3.932853  0  0.564364  0  0.036297  -0.013608  0  3.904943  0
N  N84  1  0.70750014  0.29689999  0.49548900  1  0  -0.295159  0  3.252976  0  0  -0.217578  0  3.520357  0  0  -0.238919  0  3.541711  0  -1.214858  0  -0.309049  -0.203068  0  3.50534  0
N  N85  1  0.79250276  0.20310364  0.99549124  1  0  -0.295125  0  3.253031  0  0  -0.217561  0  3.52043  0  0  -0.238902  0  3.541783  0  -1.214851  0  -0.309015  -0.203048  0  3.505411  0
N  N86  1  0.29249749  0.70309806  0.50451174  1  0  -0.295151  0  3.252963  0  0  -0.21758  0  3.520373  0  0  -0.238919  0  3.541725  0  -1.214804  0  -0.309046  -0.203071  0  3.50536  0
N  N87  1  0.20749750  0.79689525  0.00450951  1  0  -0.295122  0  3.253034  0  0  -0.217558  0  3.520427  0  0  -0.238901  0  3.541784  0  -1.21488  0  -0.309053  -0.203046  0  3.505408  0
N  N88  1  0.80027179  0.22296689  0.24809222  1  0  -0.286915  0  3.323687  0  0  -0.206299  0  3.590595  0  0  -0.226562  0  3.614151  0  -1.239958  0  -0.315373  -0.192432  0  3.57416  0
N  N89  1  0.69973088  0.27703507  0.74809371  1  0  -0.286877  0  3.32367  0  0  -0.206248  0  3.590578  0  0  -0.226508  0  3.61413  0  -1.239999  0  -0.31533  -0.19238  0  3.574138  0
N  N90  1  0.19972871  0.77703367  0.75190778  1  0  -0.286814  0  3.323547  0  0  -0.206209  0  3.590477  0  0  -0.226468  0  3.614029  0  -1.2399  0  -0.315342  -0.19234  0  3.574031  0
N  N91  1  0.30027201  0.72296466  0.25190853  1  0  -0.286826  0  3.323634  0  0  -0.206202  0  3.59052  0  0  -0.226463  0  3.614073  0  -1.239936  0  -0.31534  -0.192335  0  3.57408  0
N  N92  1  0.21384783  0.23011973  0.37142314  1  0  -0.453531  0  3.404529  0  0  -0.398795  0  3.64144  0  0  -0.421968  0  3.652081  0  -1.257002  0  -0.402006  -0.382768  0  3.633744  0
N  N93  1  0.28615470  0.26987887  0.87142389  1  0  -0.453525  0  3.404624  0  0  -0.398796  0  3.641593  0  0  -0.421943  0  3.652175  0  -1.257025  0  -0.402037  -0.382773  0  3.633904  0
N  N94  1  0.78615267  0.76988083  0.62857760  1  0  -0.453463  0  3.404555  0  0  -0.398743  0  3.641513  0  0  -0.421896  0  3.6521  0  -1.257025  0  -0.401979  -0.382713  0  3.633818  0
N  N95  1  0.71384556  0.73012001  0.12857537  1  0  -0.453562  0  3.404619  0  0  -0.398799  0  3.641598  0  0  -0.421949  0  3.652185  0  -1.257066  0  -0.401998  -0.382771  0  3.633902  0
Cl  Cl96  1  0.62793965  0.01301339  0.61105165  1  0  -0.477577  0  1.010395  0  0  -0.414058  0  1.295979  0  0  -0.431152  0  1.277616  0  -0.538977  0  -0.251187  -0.402207  0  1.308392  0
Cl  Cl97  1  0.87206027  0.48698689  0.11105388  1  0  -0.477577  0  1.010361  0  0  -0.414073  0  1.295951  0  0  -0.431165  0  1.277586  0  -0.538947  0  -0.251203  -0.402225  0  1.308369  0
Cl  Cl98  1  0.37206049  0.98698466  0.38894761  1  0  -0.477564  0  1.010353  0  0  -0.414064  0  1.295946  0  0  -0.431158  0  1.277585  0  -0.538915  0  -0.251199  -0.402209  0  1.308353  0
Cl  Cl99  1  0.12794136  0.51301283  0.88894686  1  0  -0.477569  0  1.010385  0  0  -0.414067  0  1.295966  0  0  -0.431159  0  1.277602  0  -0.538992  0  -0.25119  -0.402212  0  1.30837  0
Cl  Cl100  1  0.12787460  0.23845356  0.62406735  1  0  -0.464306  0  0.947327  0  0  -0.39679  0  1.208654  0  0  -0.414079  0  1.193426  0  -0.517821  0  -0.271664  -0.385089  0  1.219028  0
Cl  Cl101  1  0.37212416  0.26154505  0.12406586  1  0  -0.4643  0  0.947324  0  0  -0.396775  0  1.20865  0  0  -0.414081  0  1.193438  0  -0.517834  0  -0.271652  -0.385066  0  1.219013  0
Cl  Cl102  1  0.87212507  0.76154114  0.37593190  1  0  -0.464272  0  0.947283  0  0  -0.39677  0  1.208638  0  0  -0.414072  0  1.193422  0  -0.517837  0  -0.271655  -0.385065  0  1.219009  0
Cl  Cl103  1  0.62787382  0.73845551  0.87593190  1  0  -0.464316  0  0.947313  0  0  -0.396783  0  1.208632  0  0  -0.414077  0  1.193406  0  -0.517866  0  -0.271664  -0.385081  0  1.219003  0
O  O104  1  0.20581738  0.42061843  0.36067486  1  0  -0.537083  0  1.920279  0  0  -0.493279  0  2.142533  0  0  -0.515549  0  2.139349  0  -1.140955  0  -0.287456  -0.477668  0  2.144055  0
O  O105  1  0.29417886  0.07938018  0.86066592  1  0  -0.537205  0  1.920122  0  0  -0.493361  0  2.142314  0  0  -0.515643  0  2.139145  0  -1.14091  0  -0.287461  -0.477748  0  2.143833  0
O  O106  1  0.79418437  0.57938213  0.63932663  1  0  -0.537168  0  1.92018  0  0  -0.493368  0  2.142445  0  0  -0.515639  0  2.139263  0  -1.140892  0  -0.287518  -0.477754  0  2.143973  0
O  O107  1  0.70581649  0.92061955  0.13933408  1  0  -0.53718  0  1.91997  0  0  -0.493339  0  2.142178  0  0  -0.515628  0  2.139019  0  -1.140886  0  -0.28747  -0.477724  0  2.143694  0
