# generated using pymatgen
data_CuSiH16C24N4(O4F3)2
_symmetry_space_group_name_H-M   'P 1'
_cell_length_a   8.14865810
_cell_length_b   13.71122773
_cell_length_c   13.71126637
_cell_angle_alpha   90.00109925
_cell_angle_beta   89.99887922
_cell_angle_gamma   89.99902547
_symmetry_Int_Tables_number   1
_chemical_formula_structural   CuSiH16C24N4(O4F3)2
_chemical_formula_sum   'Cu1 Si1 H16 C24 N4 O8 F6'
_cell_volume   1531.93383373
_cell_formula_units_Z   1
loop_
 _symmetry_equiv_pos_site_id
 _symmetry_equiv_pos_as_xyz
  1  'x, y, z'
loop_
 _atom_site_type_symbol
 _atom_site_label
 _atom_site_symmetry_multiplicity
 _atom_site_fract_x
 _atom_site_fract_y
 _atom_site_fract_z
 _atom_site_occupancy
 _atom_site_pbe_bader_charge
 _atom_site_pbe_bader_spin_density
 _atom_site_pbe_cm5_charge
 _atom_site_pbe_ddec_charge
 _atom_site_pbe_ddec_spin_density
 _atom_site_pbe_ddec_sum_bond_order
 _atom_site_pbe_magmom
Cu  Cu0  1  0.50002123  0.49998605  0.50000021  1  1.088861  0.56718  0.784879  0.695478  0.730686  2.255669  0.565
Si  Si1  1  0.00002603  0.49999285  0.50000311  1  3.171955  -0.000169  0.244364  1.718152  -0.00029  3.948838  0.0
H  H2  1  0.24260108  0.65479619  0.49999151  1  0.217755  0.002599  0.128542  0.143437  0.00124  1.027141  0.002
H  H3  1  0.75742082  0.65480390  0.49998634  1  0.217633  0.002598  0.12855  0.143336  0.00124  1.027308  0.002
H  H4  1  0.24261429  0.34518278  0.49995937  1  0.21729  0.002598  0.128455  0.143201  0.00124  1.027194  0.002
H  H5  1  0.75743402  0.34516278  0.50009788  1  0.218606  0.002595  0.128455  0.143038  0.00124  1.027494  0.002
H  H6  1  0.24260329  0.50001431  0.65481380  1  0.217354  0.002599  0.12849  0.14318  0.00124  1.027165  0.002
H  H7  1  0.75742548  0.50001692  0.65481374  1  0.217687  0.002597  0.128527  0.14325  0.00124  1.027423  0.002
H  H8  1  0.24260840  0.50003176  0.34519251  1  0.217335  0.002599  0.128499  0.143208  0.00124  1.027161  0.002
H  H9  1  0.75742813  0.49990819  0.34517567  1  0.218434  0.002595  0.128507  0.143106  0.00124  1.027407  0.002
H  H10  1  0.77797617  0.91386959  0.49998652  1  0.590299  0.000481  0.318706  0.332315  0.000351  0.929481  0.0
H  H11  1  0.22199383  0.91385697  0.50005319  1  0.590559  0.000481  0.318863  0.332574  0.000351  0.92943  0.0
H  H12  1  0.77799218  0.08609908  0.50013684  1  0.5908  0.00048  0.319025  0.332853  0.000351  0.92861  0.0
H  H13  1  0.22202580  0.08611782  0.49992783  1  0.590399  0.00048  0.318768  0.33239  0.000351  0.929207  0.0
H  H14  1  0.77799269  0.50002878  0.91387649  1  0.590242  0.000481  0.318753  0.332477  0.000351  0.929274  0.0
H  H15  1  0.22201649  0.49996730  0.91388044  1  0.590178  0.000481  0.318735  0.332484  0.000351  0.929277  0.0
H  H16  1  0.77798671  0.49988300  0.08610976  1  0.59092  0.00048  0.319019  0.332917  0.000351  0.92869  0.0
H  H17  1  0.22201910  0.50007240  0.08613195  1  0.590644  0.00048  0.31885  0.332589  0.000351  0.929192  0.0
C  C18  1  0.35582400  0.69701359  0.49999564  1  0.583509  -0.001401  0.031937  -0.057606  -0.00148  3.880321  -0.001
C  C19  1  0.35151380  0.79869233  0.50000904  1  0.471477  0.005978  0.0984  0.266752  0.003894  4.050875  0.005
C  C20  1  0.49999512  0.85226814  0.50001088  1  0.181773  -0.002947  -0.030114  -0.121815  -0.003355  4.174353  -0.002
C  C21  1  0.64848540  0.79869672  0.50000440  1  0.471345  0.005977  0.098424  0.266778  0.003894  4.050902  0.005
C  C22  1  0.64419418  0.69702022  0.49999397  1  0.583795  -0.001399  0.032021  -0.057325  -0.001479  3.880317  -0.001
C  C23  1  0.49999114  0.95514004  0.50002208  1  -0.191932  -0.001084  -0.044528  -0.107537  -0.001214  4.213849  -0.001
C  C24  1  0.50000224  0.04483425  0.50003304  1  -0.426134  -0.001083  -0.04435  -0.107233  -0.001214  4.213925  -0.001
C  C25  1  0.50001544  0.14770177  0.50003111  1  0.181793  -0.002946  -0.030331  -0.12207  -0.003355  4.174933  -0.002
C  C26  1  0.35153252  0.20127974  0.49999091  1  0.470845  0.005977  0.098732  0.267043  0.003893  4.050144  0.005
C  C27  1  0.35583847  0.30295844  0.49999113  1  0.584671  -0.001404  0.031862  -0.057592  -0.001479  3.879429  -0.001
C  C28  1  0.64420619  0.30294902  0.50006020  1  0.583103  -0.001398  0.031774  -0.057619  -0.001479  3.879264  -0.001
C  C29  1  0.64849553  0.20127028  0.50006431  1  0.469968  0.005977  0.09901  0.267441  0.003892  4.049726  0.005
C  C30  1  0.35582860  0.50001489  0.69703536  1  0.584395  -0.001403  0.031993  -0.057442  -0.001478  3.880042  -0.001
C  C31  1  0.35152805  0.50000714  0.79871089  1  0.470765  0.005977  0.098503  0.266948  0.003893  4.05071  0.005
C  C32  1  0.50001051  0.50000255  0.85228277  1  0.182054  -0.002946  -0.030173  -0.121797  -0.003356  4.174773  -0.002
C  C33  1  0.64849228  0.50000715  0.79870844  1  0.470737  0.005976  0.098515  0.266875  0.003893  4.050445  0.005
C  C34  1  0.64419878  0.50001276  0.69703296  1  0.583876  -0.001401  0.031984  -0.057353  -0.00148  3.880018  -0.001
C  C35  1  0.50000759  0.49999625  0.95514708  1  -0.190978  -0.001084  -0.044575  -0.107445  -0.001215  4.21369  -0.001
C  C36  1  0.50000052  0.49998970  0.04485042  1  -0.426268  -0.001083  -0.044375  -0.107432  -0.001215  4.213911  -0.001
C  C37  1  0.50000741  0.49998413  0.14771327  1  0.18177  -0.002946  -0.03021  -0.121969  -0.003355  4.174981  -0.002
C  C38  1  0.35152809  0.50001307  0.20129708  1  0.471029  0.005977  0.098492  0.266878  0.003893  4.050682  0.005
C  C39  1  0.35583387  0.50000673  0.30297256  1  0.584207  -0.001402  0.031963  -0.057339  -0.001479  3.88019  -0.001
C  C40  1  0.64420037  0.49994553  0.30296068  1  0.583152  -0.001399  0.031952  -0.057192  -0.001479  3.879447  -0.001
C  C41  1  0.64848987  0.49994745  0.20128368  1  0.47023  0.005976  0.098674  0.266969  0.003892  4.050392  0.005
N  N42  1  0.50001165  0.64927975  0.49998997  1  -1.229628  0.09499  -0.326251  -0.16262  0.063284  3.653213  0.083
N  N43  1  0.50002346  0.35069672  0.50002576  1  -1.229245  0.094959  -0.326062  -0.162323  0.063259  3.653123  0.083
N  N44  1  0.50001141  0.50001519  0.64929276  1  -1.229297  0.094986  -0.326083  -0.162381  0.063277  3.653055  0.083
N  N45  1  0.50001633  0.49997367  0.35070765  1  -1.229605  0.094967  -0.326061  -0.162528  0.063266  3.653203  0.083
O  O46  1  0.79682817  0.84355997  0.50000762  1  -1.091609  0.001303  -0.327736  -0.385894  0.000684  2.281452  0.001
O  O47  1  0.20316110  0.84354607  0.50002054  1  -1.095484  0.001306  -0.327852  -0.386082  0.000684  2.281551  0.001
O  O48  1  0.79684209  0.15640925  0.50010896  1  -1.095472  0.001307  -0.328269  -0.386544  0.000684  2.280824  0.001
O  O49  1  0.20317748  0.15642817  0.49994612  1  -1.091619  0.001303  -0.327831  -0.38591  0.000684  2.280963  0.001
O  O50  1  0.79684235  0.50000832  0.84356631  1  -1.095468  0.001307  -0.327875  -0.386195  0.000684  2.281002  0.001
O  O51  1  0.20317282  0.50000099  0.84357048  1  -1.091515  0.001303  -0.327772  -0.386133  0.000684  2.281041  0.001
O  O52  1  0.79683651  0.49990036  0.15642045  1  -1.095655  0.001306  -0.328203  -0.386541  0.000684  2.280886  0.001
O  O53  1  0.20317066  0.50005202  0.15644139  1  -1.091766  0.001303  -0.327893  -0.386137  0.000684  2.281042  0.001
F  F54  1  0.21533632  0.49997284  0.50001134  1  -0.83714  -0.001597  -0.206928  -0.536624  -0.001699  1.310369  -0.001
F  F55  1  0.78472332  0.49999269  0.49998397  1  -0.837584  -0.001598  -0.207027  -0.536748  -0.0017  1.310184  -0.001
F  F56  1  0.00005807  0.58790098  0.41211272  1  -0.828681  0.000183  -0.252952  -0.54161  0.00017  1.060068  0.0
F  F57  1  0.00000011  0.41210586  0.58790953  1  -0.828829  0.000183  -0.252899  -0.541543  0.00017  1.059986  0.0
F  F58  1  0.00002695  0.58789902  0.58789663  1  -0.828748  0.000183  -0.252933  -0.541592  0.00017  1.060022  0.0
F  F59  1  0.00004228  0.41209907  0.41209572  1  -0.828801  0.000183  -0.252941  -0.541499  0.00017  1.060039  0.0
