# generated using pymatgen
data_AlH27C45(SO5)3
_symmetry_space_group_name_H-M   'P 1'
_cell_length_a   4.27032167
_cell_length_b   23.41022044
_cell_length_c   23.40390025
_cell_angle_alpha   60.07048625
_cell_angle_beta   87.28603546
_cell_angle_gamma   87.09903722
_symmetry_Int_Tables_number   1
_chemical_formula_structural   AlH27C45(SO5)3
_chemical_formula_sum   'Al1 H27 C45 S3 O15'
_cell_volume   2024.39139913
_cell_formula_units_Z   1
loop_
 _symmetry_equiv_pos_site_id
 _symmetry_equiv_pos_as_xyz
  1  'x, y, z'
loop_
 _atom_site_type_symbol
 _atom_site_label
 _atom_site_symmetry_multiplicity
 _atom_site_fract_x
 _atom_site_fract_y
 _atom_site_fract_z
 _atom_site_occupancy
 _atom_site_pbe_bader_charge
 _atom_site_pbe_bader_spin_density
 _atom_site_pbe_cm5_charge
 _atom_site_pbe_ddec_charge
 _atom_site_pbe_ddec_spin_density
 _atom_site_pbe_ddec_sum_bond_order
 _atom_site_pbe_magmom
Al  Al0  1  0.04960541  0.49961695  0.50027708  1  2.52244  0  0.457321  1.65059  0  2.479409  0
H  H1  1  0.50158086  0.32903946  0.67597843  1  0.098094  0  0.115515  0.128301  0  0.972403  0
H  H2  1  0.46162603  0.26334304  0.79778950  1  0.067173  0  0.108235  0.106482  0  0.992048  0
H  H3  1  0.76865671  0.22981805  0.88963911  1  0.027363  0  0.100994  0.099195  0  1.003767  0
H  H4  1  0.78818006  0.16822124  0.01072678  1  0.055319  0  0.101004  0.1016  0  1.000563  0
H  H5  1  0.52273927  0.80672105  0.25049551  1  0.125073  0  0.114081  0.123144  0  1.001441  0
H  H6  1  0.20376597  0.89802681  0.22466221  1  0.037713  0  0.104988  0.108067  0  0.992215  0
H  H7  1  0.21601946  0.01898241  0.16571865  1  0.05585  0  0.101312  0.101551  0  1.003626  0
H  H8  1  0.49917313  0.10584743  0.10513512  1  0.049444  0  0.098214  0.095192  0  1.030471  0
H  H9  1  0.49286224  0.67587813  0.49513005  1  0.15369  0  0.115543  0.128187  0  0.973788  0
H  H10  1  0.45722698  0.79780460  0.43926829  1  0.063234  0  0.108442  0.107109  0  0.992158  0
H  H11  1  0.75765151  0.88953060  0.37830480  1  0.062943  0  0.101012  0.099693  0  1.004921  0
H  H12  1  0.77488768  0.01040074  0.31863426  1  0.051932  0  0.101233  0.102146  0  1.001324  0
H  H13  1  0.57354317  0.25099490  0.44099892  1  0.076268  0  0.113874  0.122808  0  1.000312  0
H  H14  1  0.22880855  0.22719819  0.38217133  1  0.072868  0  0.104796  0.108401  0  0.992319  0
H  H15  1  0.22635995  0.16757331  0.32044013  1  0.060758  0  0.1016  0.101872  0  1.000998  0
H  H16  1  0.51233191  0.10508276  0.28909478  1  0.012343  0  0.098629  0.095687  0  1.030723  0
H  H17  1  0.52890087  0.49572562  0.32881693  1  0.077984  0  0.115342  0.128356  0  0.973472  0
H  H18  1  0.48677817  0.43988217  0.26336885  1  0.070385  0  0.108668  0.10754  0  0.99154  0
H  H19  1  0.79161052  0.37699630  0.22677477  1  0.052144  0  0.10125  0.099679  0  1.003091  0
H  H20  1  0.79443611  0.31662150  0.16576774  1  0.073392  0  0.100617  0.101273  0  1.003315  0
H  H21  1  0.48865345  0.44213765  0.80782251  1  0.116193  0  0.113987  0.123578  0  1.001405  0
H  H22  1  0.17148833  0.37935643  0.89884473  1  0.098493  0  0.104901  0.10718  0  0.991539  0
H  H23  1  0.18909303  0.31730008  0.01998937  1  0.024907  0  0.100897  0.100937  0  1.003161  0
H  H24  1  0.50542619  0.28883895  0.10602589  1  0.065412  0  0.098256  0.094835  0  1.030999  0
H  H25  1  0.09348240  0.30863718  0.56077760  1  0.682131  0  0.31518  0.391699  0  0.95693  0
H  H26  1  0.00960328  0.56164447  0.62833987  1  0.67719  0  0.315867  0.392778  0  0.955141  0
H  H27  1  0.05681912  0.62659345  0.31051958  1  0.674241  0  0.316839  0.393672  0  0.95384  0
C  C28  1  0.53339024  0.45901627  0.59908447  1  1.606987  0  0.278426  0.672822  0  4.075503  0
C  C29  1  0.57396121  0.44196008  0.45900345  1  1.611635  0  0.278028  0.67292  0  4.077691  0
C  C30  1  0.53623775  0.59847354  0.44208496  1  1.660879  0  0.278296  0.672352  0  4.078344  0
C  C31  1  0.49202072  0.35357283  0.70528837  1  0.042971  0  -0.074716  -0.08174  0  3.942939  0
C  C32  1  0.47159623  0.31689348  0.77377672  1  -0.0167  0  -0.077469  -0.112926  0  3.961936  0
C  C33  1  0.63500444  0.24861035  0.91802831  1  0.009899  0  -0.090257  -0.126963  0  3.999381  0
C  C34  1  0.64602331  0.21374446  0.98651151  1  -0.046308  0  -0.0908  -0.126002  0  3.994452  0
C  C35  1  0.51410491  0.71032117  0.33580288  1  -0.258673  0  -0.01575  -0.122283  0  3.963864  0
C  C36  1  0.49868107  0.77898447  0.30406952  1  0.065121  0  -0.076879  -0.12896  0  3.952002  0
C  C37  1  0.33344774  0.92241731  0.24508928  1  0.071421  0  -0.088298  -0.123438  0  3.990023  0
C  C38  1  0.34158726  0.99082411  0.21164147  1  -0.086746  0  -0.090092  -0.124471  0  3.990813  0
C  C39  1  0.50315736  0.42245394  0.67288151  1  -0.02957  0  0.000477  -0.026687  0  3.932195  0
C  C40  1  0.46601525  0.34758583  0.81236425  1  0.057669  0  -0.000961  0.075631  0  4.001198  0
C  C41  1  0.46795221  0.30924881  0.88501166  1  -0.058061  0  -0.011371  0.056329  0  4.01788  0
C  C42  1  0.49028820  0.23806177  0.02463414  1  -0.053889  0  -0.007221  0.066063  0  4.00052  0
C  C43  1  0.50186580  0.20144010  0.09732254  1  -0.107384  0  -0.007486  0.081618  0  4.031473  0
C  C44  1  0.50296149  0.13240469  0.13230506  1  0.056768  0  -0.089255  -0.179353  0  3.937215  0
C  C45  1  0.49107387  0.70503135  0.44141457  1  -0.005105  0  -0.073621  -0.07866  0  3.941171  0
C  C46  1  0.47325629  0.77355163  0.40972165  1  -0.125831  0  -0.07801  -0.114287  0  3.962321  0
C  C47  1  0.63220832  0.91772335  0.33232230  1  -0.0387  0  -0.090771  -0.129068  0  4.000792  0
C  C48  1  0.64180658  0.98617081  0.29854509  1  -0.046103  0  -0.089754  -0.124092  0  3.993213  0
C  C49  1  0.56841896  0.33628613  0.45253210  1  -0.12865  0  -0.016777  -0.124798  0  3.970031  0
C  C50  1  0.54902242  0.30458053  0.41589030  1  -0.051277  0  -0.076613  -0.130224  0  3.953015  0
C  C51  1  0.35689094  0.24660382  0.33501562  1  0.000408  0  -0.08812  -0.12247  0  3.988544  0
C  C52  1  0.35693646  0.21276749  0.30026857  1  -0.063973  0  -0.089617  -0.123232  0  3.989742  0
C  C53  1  0.51041037  0.67228804  0.40495346  1  -0.016684  0  -0.000535  -0.029541  0  3.934101  0
C  C54  1  0.47795161  0.81184290  0.34053210  1  0.040022  0  -0.001078  0.075857  0  4.000599  0
C  C55  1  0.47882401  0.88447625  0.30610938  1  -0.047292  0  -0.011164  0.057241  0  4.014184  0
C  C56  1  0.49698042  0.02419738  0.23746643  1  -0.003292  0  -0.007727  0.064834  0  3.999487  0
C  C57  1  0.50554674  0.09690839  0.20139041  1  -0.049968  0  -0.007663  0.08023  0  4.031969  0
C  C58  1  0.51070925  0.13201709  0.23537733  1  -0.091426  0  -0.089105  -0.17809  0  3.934924  0
C  C59  1  0.53326853  0.44199173  0.35319877  1  0.027051  0  -0.073378  -0.079651  0  3.937558  0
C  C60  1  0.51122146  0.41033691  0.31665555  1  -0.059106  0  -0.07675  -0.112569  0  3.959388  0
C  C61  1  0.66156745  0.33170064  0.24698226  1  -0.069376  0  -0.090252  -0.125668  0  4.001558  0
C  C62  1  0.66315647  0.29753324  0.21249870  1  -0.031276  0  -0.090764  -0.125862  0  3.99271  0
C  C63  1  0.49246480  0.45342188  0.71118232  1  -0.154731  0  -0.016194  -0.12475  0  3.968067  0
C  C64  1  0.47572165  0.41659879  0.77983762  1  -0.039723  0  -0.07703  -0.129058  0  3.950801  0
C  C65  1  0.31116338  0.33346573  0.92312572  1  -0.155244  0  -0.087846  -0.12107  0  3.989169  0
C  C66  1  0.32175475  0.29849913  0.99153497  1  0.111651  0  -0.089951  -0.125026  0  3.993019  0
C  C67  1  0.56012367  0.40540632  0.42183090  1  0.026768  0  0.000475  -0.026804  0  3.931731  0
C  C68  1  0.51870297  0.34116819  0.34720858  1  0.037264  0  -0.001078  0.077276  0  4.000046  0
C  C69  1  0.50976557  0.30668125  0.30908373  1  -0.029263  0  -0.011094  0.05383  0  4.020535  0
C  C70  1  0.51123274  0.23734898  0.23842648  1  -0.003355  0  -0.007751  0.063989  0  4.000038  0
C  C71  1  0.51126890  0.20108717  0.20180734  1  0.082972  0  -0.007191  0.081556  0  4.030142  0
C  C72  1  0.50696118  0.23510253  0.13274408  1  -0.080684  0  -0.089653  -0.180376  0  3.938599  0
S  S73  1  0.65503215  0.28419967  0.53767267  1  3.132592  0  0.556495  1.189188  0  5.969752  0
S  S74  1  0.55691826  0.53945024  0.67686819  1  3.122321  0  0.556164  1.189197  0  5.971394  0
S  S75  1  0.60594333  0.67548868  0.28393006  1  3.126504  0  0.556561  1.187039  0  5.973137  0
O  O76  1  0.31605032  0.56764171  0.43541012  1  -1.255077  0  -0.238805  -0.603466  0  2.360185  0
O  O77  1  0.30279607  0.49693264  0.56779041  1  -1.257143  0  -0.238263  -0.603023  0  2.363013  0
O  O78  1  0.34039458  0.43553211  0.49758323  1  -1.255831  0  -0.238689  -0.605935  0  2.367993  0
O  O79  1  0.77232342  0.57387100  0.47871208  1  -1.251507  0  -0.228626  -0.591632  0  2.383927  0
O  O80  1  0.81032217  0.47735330  0.44694947  1  -1.243437  0  -0.22641  -0.585715  0  2.372398  0
O  O81  1  0.78337885  0.44671634  0.57503853  1  -1.243052  0  -0.227768  -0.588088  0  2.373066  0
O  O82  1  0.37484678  0.27302337  0.58003701  1  -1.31312  0  -0.315985  -0.546545  0  2.28008  0
O  O83  1  0.81878016  0.22607618  0.54454832  1  -1.284629  0  -0.309371  -0.521805  0  2.109854  0
O  O84  1  0.86064973  0.32826668  0.55138532  1  -1.291297  0  -0.337017  -0.534105  0  2.31934  0
O  O85  1  0.27510968  0.57974267  0.64696741  1  -1.315093  0  -0.315194  -0.54799  0  2.297148  0
O  O86  1  0.69340947  0.54825186  0.72672571  1  -1.282095  0  -0.308114  -0.519372  0  2.113727  0
O  O87  1  0.78303702  0.55408662  0.61780031  1  -1.277595  0  -0.337928  -0.534002  0  2.314279  0
O  O88  1  0.33538704  0.64622563  0.27374766  1  -1.313962  0  -0.314822  -0.548424  0  2.307689  0
O  O89  1  0.75929411  0.72490497  0.22524417  1  -1.281871  0  -0.3077  -0.517465  0  2.116153  0
O  O90  1  0.82321877  0.61577222  0.32789643  1  -1.281779  0  -0.338787  -0.533836  0  2.310908  0
