# generated using pymatgen
data_CdH2C8(ClO2)2
_symmetry_space_group_name_H-M   'P 1'
_cell_length_a   7.10401806
_cell_length_b   7.85513877
_cell_length_c   16.77573896
_cell_angle_alpha   96.70875050
_cell_angle_beta   90.00024119
_cell_angle_gamma   90.00013220
_symmetry_Int_Tables_number   1
_chemical_formula_structural   CdH2C8(ClO2)2
_chemical_formula_sum   'Cd4 H8 C32 Cl8 O16'
_cell_volume   929.72745930
_cell_formula_units_Z   4
loop_
 _symmetry_equiv_pos_site_id
 _symmetry_equiv_pos_as_xyz
  1  'x, y, z'
loop_
 _atom_site_type_symbol
 _atom_site_label
 _atom_site_symmetry_multiplicity
 _atom_site_fract_x
 _atom_site_fract_y
 _atom_site_fract_z
 _atom_site_occupancy
 _atom_site_hle17_bader_spin_density
 _atom_site_hle17_ddec_charge
 _atom_site_hle17_ddec_spin_density
 _atom_site_hle17_ddec_sum_bond_order
 _atom_site_hle17_magmom
 _atom_site_hse06_10hf_bader_spin_density
 _atom_site_hse06_10hf_ddec_charge
 _atom_site_hse06_10hf_ddec_spin_density
 _atom_site_hse06_10hf_ddec_sum_bond_order
 _atom_site_hse06_10hf_magmom
 _atom_site_hse06_bader_spin_density
 _atom_site_hse06_ddec_charge
 _atom_site_hse06_ddec_spin_density
 _atom_site_hse06_ddec_sum_bond_order
 _atom_site_hse06_magmom
 _atom_site_pbe_bader_spin_density
 _atom_site_pbe_cm5_charge
 _atom_site_pbe_ddec_charge
 _atom_site_pbe_ddec_spin_density
 _atom_site_pbe_ddec_sum_bond_order
 _atom_site_pbe_magmom
Cd  Cd0  1  0.88465748  0.79901174  0.43837429  1  0  1.297484  0  1.538712  0  0  1.125282  0  1.979122  0  0  1.187626  0  1.918062  0  0  0.799275  1.080131  0  2.021393  0
Cd  Cd1  1  0.38465925  0.70098341  0.56162764  1  0  1.297487  0  1.538762  0  0  1.125267  0  1.979195  0  0  1.187612  0  1.918135  0  0  0.799275  1.080115  0  2.021466  0
Cd  Cd2  1  0.11534062  0.20098582  0.56162600  1  0  1.297453  0  1.538741  0  0  1.125234  0  1.979182  0  0  1.18758  0  1.918121  0  0  0.799272  1.080082  0  2.021455  0
Cd  Cd3  1  0.61534026  0.29901545  0.43837154  1  0  1.297496  0  1.538772  0  0  1.125282  0  1.979202  0  0  1.187627  0  1.91814  0  0  0.799284  1.080131  0  2.021471  0
H  H4  1  0.52251486  0.55638393  0.28110020  1  0  0.133598  0  0.954819  0  0  0.13879  0  1.020549  0  0  0.142727  0  1.018214  0  0  0.109191  0.135952  0  1.022314  0
H  H5  1  0.02251459  0.94361022  0.71890401  1  0  0.133594  0  0.954778  0  0  0.138766  0  1.020513  0  0  0.142701  0  1.018182  0  0  0.109196  0.135929  0  1.022274  0
H  H6  1  0.47748747  0.44361873  0.71890158  1  0  0.133605  0  0.954786  0  0  0.138794  0  1.020514  0  0  0.142731  0  1.018179  0  0  0.109191  0.135958  0  1.022279  0
H  H7  1  0.97748633  0.05638606  0.28109561  1  0  0.133623  0  0.9548  0  0  0.138804  0  1.020534  0  0  0.142741  0  1.018202  0  0  0.10921  0.135968  0  1.022299  0
H  H8  1  0.89096760  0.35749975  0.18854831  1  0  0.11818  0  0.961396  0  0  0.121646  0  1.033083  0  0  0.125771  0  1.029845  0  0  0.100796  0.118623  0  1.035569  0
H  H9  1  0.39096611  0.14249967  0.81144902  1  0  0.118237  0  0.961355  0  0  0.121711  0  1.033029  0  0  0.125836  0  1.029792  0  0  0.100832  0.118692  0  1.035514  0
H  H10  1  0.10903473  0.64250296  0.81144990  1  0  0.118252  0  0.961324  0  0  0.121724  0  1.033004  0  0  0.12585  0  1.029767  0  0  0.100842  0.118707  0  1.035492  0
H  H11  1  0.60903481  0.85749916  0.18855135  1  0  0.118203  0  0.961349  0  0  0.121688  0  1.03302  0  0  0.125813  0  1.029784  0  0  0.100823  0.118668  0  1.035505  0
C  C12  1  0.89486767  0.42348655  0.34440103  1  0  0.65002  0  3.880942  0  0  0.598918  0  4.170765  0  0  0.634324  0  4.164794  0  0  0.203201  0.574784  0  4.173962  0
C  C13  1  0.39486867  0.07650903  0.65559727  1  0  0.649985  0  3.881071  0  0  0.598834  0  4.170962  0  0  0.634241  0  4.164991  0  0  0.203143  0.574698  0  4.174157  0
C  C14  1  0.10513325  0.57650847  0.65559733  1  0  0.649889  0  3.881107  0  0  0.598744  0  4.170996  0  0  0.63415  0  4.165028  0  0  0.203106  0.574609  0  4.174191  0
C  C15  1  0.60512944  0.92348981  0.34440310  1  0  0.649929  0  3.881054  0  0  0.598791  0  4.170922  0  0  0.634198  0  4.164952  0  0  0.203141  0.574658  0  4.174116  0
C  C16  1  0.05457538  0.46122776  0.29032325  1  0  -0.056432  0  3.684138  0  0  -0.043405  0  3.923289  0  0  -0.048825  0  3.94373  0  0  -0.011792  -0.039932  0  3.909643  0
C  C17  1  0.55457147  0.03877073  0.70967701  1  0  -0.056373  0  3.684059  0  0  -0.043306  0  3.923215  0  0  -0.048726  0  3.943655  0  0  -0.011767  -0.03983  0  3.909569  0
C  C18  1  0.94542695  0.53877365  0.70967668  1  0  -0.056389  0  3.684062  0  0  -0.043335  0  3.923214  0  0  -0.048754  0  3.943654  0  0  -0.011767  -0.039858  0  3.909569  0
C  C19  1  0.44542382  0.96122810  0.29032336  1  0  -0.056327  0  3.684101  0  0  -0.043274  0  3.923247  0  0  -0.048695  0  3.943687  0  0  -0.01178  -0.039811  0  3.90962  0
C  C20  1  0.17362133  0.40851718  0.15285862  1  0  0.086384  0  3.792994  0  0  0.092007  0  4.0618  0  0  0.094138  0  4.082595  0  0  0.009986  0.090375  0  4.047838  0
C  C21  1  0.67362035  0.09148163  0.84714186  1  0  0.08638  0  3.793127  0  0  0.09199  0  4.061936  0  0  0.094123  0  4.082731  0  0  0.009949  0.090357  0  4.047979  0
C  C22  1  0.82638100  0.59148808  0.84714152  1  0  0.086365  0  3.793148  0  0  0.091973  0  4.061991  0  0  0.094106  0  4.082786  0  0  0.009996  0.090339  0  4.048034  0
C  C23  1  0.32637917  0.90851723  0.15285731  1  0  0.086298  0  3.793147  0  0  0.091928  0  4.061948  0  0  0.09406  0  4.082745  0  0  0.009924  0.090297  0  4.047985  0
C  C24  1  0.38263049  0.51453094  0.26091306  1  0  -0.121776  0  3.706741  0  0  -0.154404  0  3.962281  0  0  -0.156765  0  3.982738  0  0  -0.087857  -0.152812  0  3.94867  0
C  C25  1  0.88262517  0.98546419  0.73908946  1  0  -0.121696  0  3.706705  0  0  -0.154224  0  3.962132  0  0  -0.156584  0  3.98259  0  0  -0.087797  -0.152629  0  3.948518  0
C  C26  1  0.61737466  0.48547044  0.73908865  1  0  -0.121777  0  3.706838  0  0  -0.154366  0  3.962345  0  0  -0.156729  0  3.982805  0  0  -0.087821  -0.152773  0  3.948736  0
C  C27  1  0.11737434  0.01453594  0.26090979  1  0  -0.121753  0  3.706785  0  0  -0.154323  0  3.962226  0  0  -0.156688  0  3.982684  0  0  -0.087808  -0.152732  0  3.948615  0
C  C28  1  0.28978383  0.59911712  0.39932080  1  0  0.686178  0  3.836529  0  0  0.631474  0  4.126394  0  0  0.668472  0  4.118041  0  0  0.217052  0.606144  0  4.131303  0
C  C29  1  0.78978395  0.90088291  0.60068125  1  0  0.686238  0  3.836421  0  0  0.631587  0  4.126211  0  0  0.668577  0  4.117868  0  0  0.217034  0.606255  0  4.131126  0
C  C30  1  0.71021568  0.40088300  0.60067965  1  0  0.686136  0  3.836534  0  0  0.631459  0  4.126365  0  0  0.668456  0  4.118012  0  0  0.217037  0.60613  0  4.131275  0
C  C31  1  0.21021416  0.09911722  0.39931860  1  0  0.686209  0  3.836413  0  0  0.631513  0  4.126263  0  0  0.668505  0  4.117919  0  0  0.217029  0.606184  0  4.131173  0
C  C32  1  0.02833763  0.40666337  0.20853945  1  0  -0.106356  0  3.708075  0  0  -0.140366  0  3.963512  0  0  -0.141114  0  3.982169  0  0  -0.086261  -0.139732  0  3.950985  0
C  C33  1  0.52833468  0.09333379  0.79146008  1  0  -0.106446  0  3.708064  0  0  -0.140465  0  3.9635  0  0  -0.141214  0  3.982156  0  0  -0.08628  -0.139834  0  3.950977  0
C  C34  1  0.97166470  0.59333804  0.79146047  1  0  -0.106454  0  3.708059  0  0  -0.140475  0  3.963511  0  0  -0.141224  0  3.982164  0  0  -0.086313  -0.139849  0  3.950993  0
C  C35  1  0.47166342  0.90666376  0.20854081  1  0  -0.106362  0  3.70803  0  0  -0.140411  0  3.963483  0  0  -0.14116  0  3.982138  0  0  -0.086245  -0.139776  0  3.950961  0
C  C36  1  0.23426404  0.52355416  0.31641080  1  0  -0.057311  0  3.685854  0  0  -0.04474  0  3.926745  0  0  -0.04964  0  3.947351  0  0  -0.009879  -0.041531  0  3.912975  0
C  C37  1  0.73426518  0.97644188  0.68359032  1  0  -0.057331  0  3.685816  0  0  -0.044837  0  3.926776  0  0  -0.049732  0  3.947378  0  0  -0.009909  -0.041629  0  3.913012  0
C  C38  1  0.76573548  0.47644596  0.68358904  1  0  -0.057273  0  3.6858  0  0  -0.044735  0  3.926712  0  0  -0.049631  0  3.947312  0  0  -0.009883  -0.041526  0  3.912944  0
C  C39  1  0.26573574  0.02355954  0.31640901  1  0  -0.057423  0  3.685941  0  0  -0.044861  0  3.926825  0  0  -0.049753  0  3.947424  0  0  -0.009935  -0.041651  0  3.913064  0
C  C40  1  0.35509348  0.45719335  0.18009380  1  0  0.094141  0  3.782333  0  0  0.099657  0  4.048373  0  0  0.102312  0  4.069281  0  0  0.012818  0.09771  0  4.03436  0
C  C41  1  0.85508647  0.04280462  0.81990874  1  0  0.093974  0  3.782452  0  0  0.099512  0  4.048458  0  0  0.102168  0  4.069363  0  0  0.012763  0.097567  0  4.034447  0
C  C42  1  0.64491167  0.54280805  0.81990672  1  0  0.094059  0  3.782599  0  0  0.099557  0  4.048667  0  0  0.102212  0  4.069575  0  0  0.012737  0.097612  0  4.034655  0
C  C43  1  0.14491305  0.95719423  0.18009103  1  0  0.094109  0  3.782454  0  0  0.099646  0  4.048446  0  0  0.102302  0  4.069351  0  0  0.012813  0.097701  0  4.034433  0
Cl  Cl44  1  0.13024248  0.34461888  0.05328996  1  0  -0.075597  0  1.458038  0  0  -0.072576  0  1.704281  0  0  -0.075254  0  1.699066  0  0  -0.003651  -0.07058  0  1.7079  0
Cl  Cl45  1  0.63023703  0.15538367  0.94671007  1  0  -0.075593  0  1.458046  0  0  -0.072572  0  1.704291  0  0  -0.07525  0  1.699075  0  0  -0.003647  -0.070574  0  1.707911  0
Cl  Cl46  1  0.86976125  0.65538510  0.94670952  1  0  -0.075571  0  1.458076  0  0  -0.072539  0  1.704326  0  0  -0.075217  0  1.699109  0  0  -0.003633  -0.07054  0  1.707946  0
Cl  Cl47  1  0.36976108  0.84461389  0.05328963  1  0  -0.075581  0  1.458114  0  0  -0.072567  0  1.70436  0  0  -0.075245  0  1.699144  0  0  -0.003645  -0.070571  0  1.707978  0
Cl  Cl48  1  0.54386378  0.44660402  0.11566781  1  0  -0.04554  0  1.416598  0  0  -0.031788  0  1.654888  0  0  -0.034745  0  1.648968  0  0  0.020183  -0.029468  0  1.659013  0
Cl  Cl49  1  0.04385717  0.05339438  0.88433660  1  0  -0.045476  0  1.416582  0  0  -0.031752  0  1.654873  0  0  -0.034708  0  1.648953  0  0  0.020187  -0.02943  0  1.658999  0
Cl  Cl50  1  0.45614137  0.55339994  0.88433286  1  0  -0.045507  0  1.416629  0  0  -0.03175  0  1.654921  0  0  -0.034706  0  1.649001  0  0  0.020201  -0.029428  0  1.659048  0
Cl  Cl51  1  0.95614375  0.94660574  0.11566385  1  0  -0.045533  0  1.416618  0  0  -0.031805  0  1.654909  0  0  -0.034761  0  1.648988  0  0  0.020159  -0.029485  0  1.659035  0
O  O52  1  0.87414323  0.50368858  0.41490261  1  0  -0.664719  0  2.062341  0  0  -0.59232  0  2.32368  0  0  -0.624239  0  2.311333  0  0  -0.327391  -0.569703  0  2.331299  0
O  O53  1  0.37414175  0.99630531  0.58509565  1  0  -0.664659  0  2.062454  0  0  -0.59226  0  2.323832  0  0  -0.624181  0  2.311487  0  0  -0.327352  -0.569641  0  2.331452  0
O  O54  1  0.12585488  0.49630899  0.58509650  1  0  -0.664567  0  2.062532  0  0  -0.592147  0  2.323874  0  0  -0.624067  0  2.311532  0  0  -0.327299  -0.569529  0  2.33149  0
O  O55  1  0.62585495  0.00369481  0.41490479  1  0  -0.664661  0  2.062464  0  0  -0.592269  0  2.323835  0  0  -0.624191  0  2.311491  0  0  -0.327369  -0.569651  0  2.331453  0
O  O56  1  0.44864754  0.55807297  0.42674123  1  0  -0.661777  0  2.080862  0  0  -0.589049  0  2.345201  0  0  -0.621851  0  2.333691  0  0  -0.316422  -0.565808  0  2.352305  0
O  O57  1  0.94864748  0.94192489  0.57326216  1  0  -0.66178  0  2.080804  0  0  -0.589094  0  2.345155  0  0  -0.621893  0  2.333645  0  0  -0.316403  -0.565854  0  2.352264  0
O  O58  1  0.55135198  0.44192586  0.57325974  1  0  -0.661768  0  2.08083  0  0  -0.589039  0  2.345143  0  0  -0.621841  0  2.333634  0  0  -0.316408  -0.565799  0  2.352247  0
O  O59  1  0.05135063  0.05807139  0.42673746  1  0  -0.661719  0  2.08065  0  0  -0.589043  0  2.345058  0  0  -0.621843  0  2.33355  0  0  -0.316383  -0.565804  0  2.352163  0
O  O60  1  0.19142295  0.71297103  0.44099063  1  0  -0.660658  0  2.10142  0  0  -0.586022  0  2.370961  0  0  -0.620005  0  2.35838  0  0  -0.316518  -0.56201  0  2.378762  0
O  O61  1  0.69142658  0.78702490  0.55901041  1  0  -0.660664  0  2.101355  0  0  -0.586034  0  2.370869  0  0  -0.620017  0  2.358293  0  0  -0.316491  -0.562024  0  2.37868  0
O  O62  1  0.80857375  0.28702780  0.55900974  1  0  -0.660622  0  2.101379  0  0  -0.586004  0  2.37093  0  0  -0.619989  0  2.358352  0  0  -0.316523  -0.56199  0  2.378725  0
O  O63  1  0.30857293  0.21297393  0.44098996  1  0  -0.660634  0  2.101364  0  0  -0.585996  0  2.370908  0  0  -0.619979  0  2.358332  0  0  -0.316495  -0.561983  0  2.37871  0
O  O64  1  0.78447775  0.30134157  0.31890888  1  0  -0.615867  0  1.950401  0  0  -0.553143  0  2.188418  0  0  -0.582974  0  2.179874  0  0  -0.312753  -0.532179  0  2.193564  0
O  O65  1  0.28447930  0.19865502  0.68108750  1  0  -0.615864  0  1.950302  0  0  -0.553109  0  2.188323  0  0  -0.582938  0  2.179777  0  0  -0.312726  -0.53216  0  2.193505  0
O  O66  1  0.21552177  0.69865858  0.68108918  1  0  -0.615855  0  1.950258  0  0  -0.553117  0  2.188291  0  0  -0.582949  0  2.179748  0  0  -0.31274  -0.532158  0  2.19345  0
O  O67  1  0.71551880  0.80134381  0.31891347  1  0  -0.615817  0  1.950347  0  0  -0.553055  0  2.188341  0  0  -0.582884  0  2.179797  0  0  -0.312702  -0.532101  0  2.193511  0
