# generated using pymatgen
data_ZnH22C23(NO)4
_symmetry_space_group_name_H-M   'P 1'
_cell_length_a   9.42545468
_cell_length_b   9.51367059
_cell_length_c   10.80212432
_cell_angle_alpha   94.90667173
_cell_angle_beta   89.99993293
_cell_angle_gamma   90.00000507
_symmetry_Int_Tables_number   1
_chemical_formula_structural   ZnH22C23(NO)4
_chemical_formula_sum   'Zn2 H44 C46 N8 O8'
_cell_volume   965.08402566
_cell_formula_units_Z   2
loop_
 _symmetry_equiv_pos_site_id
 _symmetry_equiv_pos_as_xyz
  1  'x, y, z'
loop_
 _atom_site_type_symbol
 _atom_site_label
 _atom_site_symmetry_multiplicity
 _atom_site_fract_x
 _atom_site_fract_y
 _atom_site_fract_z
 _atom_site_occupancy
 _atom_site_hle17_bader_spin_density
 _atom_site_hle17_ddec_charge
 _atom_site_hle17_ddec_spin_density
 _atom_site_hle17_ddec_sum_bond_order
 _atom_site_hle17_magmom
 _atom_site_hse06_10hf_bader_spin_density
 _atom_site_hse06_10hf_ddec_charge
 _atom_site_hse06_10hf_ddec_spin_density
 _atom_site_hse06_10hf_ddec_sum_bond_order
 _atom_site_hse06_10hf_magmom
 _atom_site_hse06_bader_spin_density
 _atom_site_hse06_ddec_charge
 _atom_site_hse06_ddec_spin_density
 _atom_site_hse06_ddec_sum_bond_order
 _atom_site_hse06_magmom
 _atom_site_pbe_bader_spin_density
 _atom_site_pbe_cm5_charge
 _atom_site_pbe_ddec_charge
 _atom_site_pbe_ddec_spin_density
 _atom_site_pbe_ddec_sum_bond_order
 _atom_site_pbe_magmom
Zn  Zn0  1  0.72279056  0.44137931  0.08786227  1  0  0.90843  0  1.957014  0  0  0.714595  0  2.399142  0  0  0.760481  0  2.355303  0  0  0.687223  0.683422  0  2.428535  0
Zn  Zn1  1  0.22279079  0.55862070  0.91213678  1  0  0.908452  0  1.956936  0  0  0.714631  0  2.399058  0  0  0.760522  0  2.355221  0  0  0.687236  0.683457  0  2.428452  0
H  H2  1  0.64038154  0.08712469  0.45475772  1  0  0.383592  0  0.916266  0  0  0.355298  0  0.994  0  0  0.367146  0  0.980508  0  0  0.288829  0.347548  0  1.002228  0
H  H3  1  0.14038229  0.91287321  0.54524217  1  0  0.383607  0  0.916222  0  0  0.355323  0  0.993951  0  0  0.367171  0  0.980477  0  0  0.288843  0.347571  0  1.002177  0
H  H4  1  0.08359266  0.48044811  0.21984092  1  0  0.10688  0  0.946882  0  0  0.121338  0  1.010033  0  0  0.123445  0  1.008029  0  0  0.11665  0.119621  0  1.01178  0
H  H5  1  0.58359257  0.51955191  0.78015826  1  0  0.106877  0  0.94688  0  0  0.121331  0  1.01004  0  0  0.123438  0  1.008035  0  0  0.116643  0.119614  0  1.011786  0
H  H6  1  0.00716972  0.46870835  0.36779570  1  0  0.074564  0  0.973037  0  0  0.089235  0  1.040103  0  0  0.089677  0  1.040623  0  0  0.10353  0.088692  0  1.039706  0
H  H7  1  0.50716983  0.53129166  0.63220356  1  0  0.074565  0  0.973026  0  0  0.089249  0  1.040086  0  0  0.089693  0  1.040604  0  0  0.103539  0.088713  0  1.039681  0
H  H8  1  0.05009709  0.73072408  0.39298372  1  0  0.118814  0  0.952587  0  0  0.126527  0  1.016118  0  0  0.130227  0  1.014893  0  0  0.108941  0.124111  0  1.016543  0
H  H9  1  0.55009827  0.26927594  0.60701457  1  0  0.118805  0  0.952684  0  0  0.126512  0  1.016222  0  0  0.130211  0  1.014999  0  0  0.108939  0.124098  0  1.016642  0
H  H10  1  0.94845909  0.96536472  0.35885914  1  0  0.092596  0  0.964749  0  0  0.100869  0  1.032157  0  0  0.10372  0  1.029672  0  0  0.106116  0.099357  0  1.032376  0
H  H11  1  0.44846070  0.03463634  0.64113975  1  0  0.092582  0  0.964778  0  0  0.100849  0  1.032193  0  0  0.1037  0  1.029707  0  0  0.106121  0.099337  0  1.03241  0
H  H12  1  0.74696016  0.97853383  0.20542622  1  0  0.102124  0  0.95257  0  0  0.113571  0  1.010539  0  0  0.116114  0  1.010916  0  0  0.105282  0.111705  0  1.010343  0
H  H13  1  0.24696050  0.02146618  0.79457187  1  0  0.102112  0  0.952468  0  0  0.113585  0  1.010409  0  0  0.116123  0  1.010789  0  0  0.105264  0.111719  0  1.010214  0
H  H14  1  0.65885731  0.75315208  0.09553995  1  0  0.072099  0  0.959734  0  0  0.079988  0  1.027915  0  0  0.082032  0  1.026702  0  0  0.11302  0.078767  0  1.028357  0
H  H15  1  0.15885752  0.24684687  0.90445908  1  0  0.07211  0  0.959749  0  0  0.079991  0  1.027931  0  0  0.082035  0  1.026716  0  0  0.113019  0.07877  0  1.028374  0
H  H16  1  0.04377920  0.17995019  0.18764230  1  0  0.067424  0  0.933036  0  0  0.082557  0  0.999133  0  0  0.08324  0  0.998873  0  0  0.099178  0.081915  0  0.999635  0
H  H17  1  0.54377910  0.82005088  0.81235793  1  0  0.067409  0  0.933032  0  0  0.082538  0  0.999136  0  0  0.083223  0  0.998874  0  0  0.09916  0.081897  0  0.999637  0
H  H18  1  0.06706834  0.32059134  0.09167402  1  0  0.110143  0  0.951171  0  0  0.122705  0  1.017403  0  0  0.124815  0  1.015299  0  0  0.118675  0.121001  0  1.019282  0
H  H19  1  0.56706703  0.67940867  0.90832611  1  0  0.110056  0  0.951301  0  0  0.122662  0  1.017483  0  0  0.124768  0  1.015384  0  0  0.118629  0.120958  0  1.019361  0
H  H20  1  0.05480942  0.01349284  0.99700838  1  0  0.097784  0  0.981936  0  0  0.10866  0  1.042133  0  0  0.110914  0  1.043431  0  0  0.101284  0.106858  0  1.041926  0
H  H21  1  0.55480935  0.98650611  0.00299168  1  0  0.0978  0  0.981941  0  0  0.108672  0  1.042139  0  0  0.110927  0  1.043436  0  0  0.101296  0.10687  0  1.041932  0
H  H22  1  0.92094605  0.90105865  0.81491234  1  0  0.099555  0  0.95959  0  0  0.109583  0  1.018782  0  0  0.112597  0  1.016218  0  0  0.109484  0.10738  0  1.020602  0
H  H23  1  0.42094615  0.09894135  0.18509020  1  0  0.099541  0  0.95959  0  0  0.109567  0  1.018789  0  0  0.112579  0  1.016229  0  0  0.10949  0.107363  0  1.020607  0
H  H24  1  0.68757799  0.00792134  0.75750295  1  0  0.109292  0  0.954729  0  0  0.117825  0  1.017757  0  0  0.12101  0  1.016807  0  0  0.109289  0.115364  0  1.018894  0
H  H25  1  0.18757704  0.99207866  0.24249798  1  0  0.109256  0  0.954717  0  0  0.117791  0  1.017752  0  0  0.120978  0  1.0168  0  0  0.109276  0.11533  0  1.018886  0
H  H26  1  0.60338782  0.22519887  0.88433439  1  0  0.076927  0  0.955699  0  0  0.084762  0  1.021084  0  0  0.08639  0  1.021001  0  0  0.11427  0.083661  0  1.020985  0
H  H27  1  0.10338701  0.77480219  0.11566671  1  0  0.076825  0  0.95569  0  0  0.084688  0  1.021043  0  0  0.086314  0  1.020955  0  0  0.114245  0.083593  0  1.020941  0
H  H28  1  0.85335592  0.31940873  0.40517351  1  0  0.09157  0  0.959052  0  0  0.107414  0  1.020503  0  0  0.108314  0  1.02187  0  0  0.109108  0.106998  0  1.019788  0
H  H29  1  0.35335553  0.68059127  0.59482725  1  0  0.091577  0  0.959038  0  0  0.107419  0  1.020491  0  0  0.108318  0  1.021859  0  0  0.109116  0.107001  0  1.019778  0
H  H30  1  0.85132956  0.16743512  0.30265940  1  0  0.080703  0  0.95201  0  0  0.095558  0  1.019935  0  0  0.097127  0  1.01906  0  0  0.106526  0.09574  0  1.018153  0
H  H31  1  0.35132904  0.83256594  0.69734052  1  0  0.080679  0  0.952036  0  0  0.095538  0  1.019956  0  0  0.097107  0  1.019081  0  0  0.106508  0.095721  0  1.018174  0
H  H32  1  0.39311299  0.29758451  0.22542071  1  0  0.04948  0  0.934537  0  0  0.062209  0  0.996381  0  0  0.063746  0  0.994599  0  0  0.103354  0.060569  0  0.998686  0
H  H33  1  0.89311293  0.70241444  0.77457807  1  0  0.049485  0  0.934551  0  0  0.062189  0  0.996422  0  0  0.063726  0  0.994641  0  0  0.103362  0.060552  0  0.998725  0
H  H34  1  0.28661833  0.50354641  0.33553458  1  0  0.078042  0  0.954728  0  0  0.093655  0  1.02256  0  0  0.09482  0  1.022166  0  0  0.09241  0.092953  0  1.022692  0
H  H35  1  0.78661945  0.49645360  0.66446717  1  0  0.078072  0  0.954703  0  0  0.093663  0  1.022534  0  0  0.094828  0  1.02214  0  0  0.09241  0.09296  0  1.022665  0
H  H36  1  0.41170401  0.41455442  0.42328558  1  0  0.083849  0  0.952783  0  0  0.097806  0  1.021243  0  0  0.099367  0  1.020486  0  0  0.092571  0.096563  0  1.021919  0
H  H37  1  0.91170526  0.58544348  0.57671311  1  0  0.083873  0  0.952792  0  0  0.09782  0  1.021229  0  0  0.099381  0  1.020472  0  0  0.092573  0.096577  0  1.021905  0
H  H38  1  0.65500790  0.52888527  0.46983047  1  0  0.083853  0  0.961971  0  0  0.097675  0  1.022092  0  0  0.099926  0  1.020937  0  0  0.096243  0.096408  0  1.022125  0
H  H39  1  0.15500545  0.47111368  0.53016763  1  0  0.083831  0  0.962012  0  0  0.097636  0  1.022155  0  0  0.0999  0  1.020982  0  0  0.096218  0.096369  0  1.022184  0
H  H40  1  0.76656004  0.75785564  0.54239071  1  0  0.105089  0  0.959517  0  0  0.117251  0  1.01912  0  0  0.120651  0  1.017499  0  0  0.098395  0.11452  0  1.021049  0
H  H41  1  0.26655979  0.24214436  0.45760829  1  0  0.105099  0  0.959512  0  0  0.117252  0  1.019121  0  0  0.120654  0  1.017498  0  0  0.098405  0.114522  0  1.021048  0
H  H42  1  0.42466259  0.97844930  0.38155305  1  0  0.109218  0  0.969764  0  0  0.119077  0  1.03342  0  0  0.122671  0  1.031087  0  0  0.099067  0.116415  0  1.03528  0
H  H43  1  0.92466479  0.02154965  0.61844848  1  0  0.109224  0  0.969752  0  0  0.119051  0  1.033459  0  0  0.122645  0  1.031127  0  0  0.09906  0.116391  0  1.035321  0
H  H44  1  0.31219378  0.75005000  0.31073716  1  0  0.08  0  0.978039  0  0  0.092194  0  1.041153  0  0  0.094305  0  1.041074  0  0  0.091911  0.091139  0  1.040366  0
H  H45  1  0.81219485  0.24994684  0.68926432  1  0  0.079961  0  0.978061  0  0  0.09216  0  1.041163  0  0  0.094269  0  1.041087  0  0  0.091911  0.091107  0  1.040375  0
C  C46  1  0.98141881  0.47761352  0.26937837  1  0  -0.09422  0  3.641095  0  0  -0.156326  0  3.886371  0  0  -0.15367  0  3.89563  0  0  -0.061622  -0.15763  0  3.879754  0
C  C47  1  0.48141822  0.52238649  0.73062134  1  0  -0.094199  0  3.641074  0  0  -0.15633  0  3.886385  0  0  -0.153675  0  3.895645  0  0  -0.061632  -0.157636  0  3.879761  0
C  C48  1  0.91241844  0.61921703  0.25727858  1  0  0.257229  0  3.685283  0  0  0.254023  0  3.93274  0  0  0.262561  0  3.952272  0  0  0.129073  0.248113  0  3.918901  0
C  C49  1  0.41241782  0.38078298  0.74272119  1  0  0.257162  0  3.685362  0  0  0.25396  0  3.932811  0  0  0.262495  0  3.952345  0  0  0.129055  0.24805  0  3.918973  0
C  C50  1  0.96619511  0.73994103  0.32453907  1  0  -0.167078  0  3.682983  0  0  -0.183611  0  3.934659  0  0  -0.192031  0  3.954995  0  0  -0.082046  -0.177692  0  3.919961  0
C  C51  1  0.46619670  0.26006003  0.67545980  1  0  -0.167066  0  3.682879  0  0  -0.183595  0  3.934548  0  0  -0.192013  0  3.954886  0  0  -0.082044  -0.177673  0  3.919848  0
C  C52  1  0.90906473  0.87114126  0.30537954  1  0  0.005389  0  3.72417  0  0  -0.018017  0  3.982409  0  0  -0.012885  0  3.998958  0  0  -0.066655  -0.020892  0  3.969253  0
C  C53  1  0.40906416  0.12885768  0.69462108  1  0  0.005456  0  3.724076  0  0  -0.01794  0  3.982307  0  0  -0.012809  0  3.998853  0  0  -0.06663  -0.020815  0  3.969149  0
C  C54  1  0.79789350  0.87877519  0.22073950  1  0  -0.135743  0  3.763944  0  0  -0.151096  0  4.02224  0  0  -0.158991  0  4.044991  0  0  -0.090304  -0.146073  0  4.006307  0
C  C55  1  0.29789493  0.12122587  0.77925955  1  0  -0.135761  0  3.76394  0  0  -0.151139  0  4.022243  0  0  -0.159029  0  4.044993  0  0  -0.090288  -0.146115  0  4.00631  0
C  C56  1  0.74821423  0.75434597  0.15957628  1  0  0.138689  0  3.706311  0  0  0.107111  0  3.958622  0  0  0.114288  0  3.976984  0  0  0.04883  0.102481  0  3.945861  0
C  C57  1  0.24821347  0.24565404  0.84042274  1  0  0.138675  0  3.706211  0  0  0.1071  0  3.958543  0  0  0.11428  0  3.9769  0  0  0.048816  0.10247  0  3.945784  0
C  C58  1  0.98651466  0.25769054  0.13576038  1  0  -0.098315  0  3.686025  0  0  -0.163322  0  3.941634  0  0  -0.16034  0  3.950124  0  0  -0.06201  -0.165749  0  3.936846  0
C  C59  1  0.48651498  0.74231052  0.86423940  1  0  -0.098211  0  3.686027  0  0  -0.163226  0  3.941612  0  0  -0.160242  0  3.950098  0  0  -0.061921  -0.165661  0  3.936814  0
C  C60  1  0.90158620  0.18009177  0.03292650  1  0  0.24896  0  3.705923  0  0  0.246699  0  3.954017  0  0  0.254892  0  3.973776  0  0  0.126118  0.241307  0  3.940931  0
C  C61  1  0.40158532  0.81990824  0.96707421  1  0  0.248979  0  3.705916  0  0  0.246704  0  3.954064  0  0  0.254895  0  3.973823  0  0  0.126109  0.241337  0  3.940942  0
C  C62  1  0.95424828  0.05716610  0.96875008  1  0  -0.169391  0  3.719733  0  0  -0.184342  0  3.965399  0  0  -0.192841  0  3.987978  0  0  -0.08719  -0.179136  0  3.950653  0
C  C63  1  0.45424760  0.94283390  0.03125150  1  0  -0.169456  0  3.719746  0  0  -0.1844  0  3.965422  0  0  -0.192899  0  3.988002  0  0  -0.087215  -0.179204  0  3.950669  0
C  C64  1  0.87836027  0.99361222  0.86880930  1  0  0.0106  0  3.714771  0  0  -0.009488  0  3.964449  0  0  -0.005227  0  3.982104  0  0  -0.062082  -0.01176  0  3.951654  0
C  C65  1  0.37835938  0.00638673  0.13119228  1  0  0.010627  0  3.714813  0  0  -0.00945  0  3.964489  0  0  -0.00519  0  3.982145  0  0  -0.062084  -0.011721  0  3.951692  0
C  C66  1  0.74886835  0.05219937  0.83703978  1  0  -0.132503  0  3.744557  0  0  -0.146377  0  4.000962  0  0  -0.153627  0  4.02116  0  0  -0.083689  -0.141909  0  3.987465  0
C  C67  1  0.24886856  0.94780064  0.16296201  1  0  -0.132403  0  3.744527  0  0  -0.146289  0  4.000946  0  0  -0.153537  0  4.021142  0  0  -0.08365  -0.141819  0  3.987447  0
C  C68  1  0.70274428  0.17388950  0.90577685  1  0  0.129231  0  3.707797  0  0  0.098294  0  3.96283  0  0  0.106002  0  3.978973  0  0  0.047801  0.093364  0  3.951575  0
C  C69  1  0.20274669  0.82611051  0.09422221  1  0  0.129219  0  3.707829  0  0  0.098279  0  3.962907  0  0  0.105991  0  3.979045  0  0  0.047784  0.093341  0  3.951662  0
C  C70  1  0.82143180  0.27953374  0.31048075  1  0  -0.137333  0  3.619361  0  0  -0.194625  0  3.866732  0  0  -0.194418  0  3.87496  0  0  -0.069005  -0.195521  0  3.860971  0
C  C71  1  0.32143234  0.72046733  0.68951919  1  0  -0.137325  0  3.619345  0  0  -0.19462  0  3.86673  0  0  -0.194413  0  3.874958  0  0  -0.068997  -0.195519  0  3.860972  0
C  C72  1  0.65927304  0.28765203  0.30656855  1  0  0.532335  0  3.880749  0  0  0.489499  0  4.178448  0  0  0.516778  0  4.181194  0  0  0.206644  0.471312  0  4.176435  0
C  C73  1  0.15927358  0.71234903  0.69342972  1  0  0.532344  0  3.88074  0  0  0.489493  0  4.178449  0  0  0.516774  0  4.181197  0  0  0.206657  0.471307  0  4.176437  0
C  C74  1  0.45349735  0.39746709  0.22873823  1  0  0.054761  0  3.684381  0  0  0.039616  0  3.923454  0  0  0.040375  0  3.936712  0  0  0.004011  0.039175  0  3.914471  0
C  C75  1  0.95349728  0.60253291  0.77126057  1  0  0.054785  0  3.684467  0  0  0.039625  0  3.923541  0  0  0.040392  0  3.936795  0  0  0.004023  0.039183  0  3.914558  0
C  C76  1  0.41266970  0.46492452  0.10918297  1  0  0.640501  0  3.811699  0  0  0.58814  0  4.114161  0  0  0.620941  0  4.108141  0  0  0.208406  0.566052  0  4.117223  0
C  C77  1  0.91267052  0.53507548  0.89081681  1  0  0.640534  0  3.811684  0  0  0.588154  0  4.114174  0  0  0.620953  0  4.108155  0  0  0.208406  0.566064  0  4.117237  0
C  C78  1  0.40042397  0.48437329  0.34785078  1  0  -0.183311  0  3.683567  0  0  -0.234897  0  3.936851  0  0  -0.235328  0  3.948211  0  0  -0.160956  -0.234451  0  3.928689  0
C  C79  1  0.90042511  0.51562461  0.65214884  1  0  -0.183399  0  3.683618  0  0  -0.234893  0  3.936791  0  0  -0.235327  0  3.948152  0  0  -0.160962  -0.234456  0  3.92865  0
C  C80  1  0.47499542  0.62185367  0.38353949  1  0  0.063444  0  3.763778  0  0  0.080359  0  4.009931  0  0  0.078952  0  4.033475  0  0  -0.034033  0.081403  0  3.993646  0
C  C81  1  0.97499448  0.37814316  0.61646182  1  0  0.063449  0  3.763844  0  0  0.080341  0  4.009983  0  0  0.078932  0  4.033532  0  0  -0.03403  0.081386  0  3.993698  0
C  C82  1  0.60356955  0.62715779  0.44977646  1  0  -0.106977  0  3.786799  0  0  -0.127584  0  4.040795  0  0  -0.127165  0  4.061393  0  0  -0.103085  -0.127131  0  4.025461  0
C  C83  1  0.10356919  0.37284116  0.55022355  1  0  -0.106938  0  3.786696  0  0  -0.127525  0  4.04068  0  0  -0.127115  0  4.061274  0  0  -0.103068  -0.12707  0  4.025345  0
C  C84  1  0.66666144  0.75486641  0.49132630  1  0  -0.202925  0  3.76354  0  0  -0.219705  0  4.012949  0  0  -0.225912  0  4.034213  0  0  -0.116425  -0.215727  0  3.99867  0
C  C85  1  0.16666007  0.24513043  0.50867348  1  0  -0.203007  0  3.763468  0  0  -0.219772  0  4.012889  0  0  -0.225979  0  4.034153  0  0  -0.116427  -0.215792  0  3.998608  0
C  C86  1  0.60466552  0.88297792  0.46419737  1  0  0.316583  0  3.875787  0  0  0.311637  0  4.132235  0  0  0.322714  0  4.14929  0  0  0.067571  0.304558  0  4.12022  0
C  C87  1  0.10466728  0.11702103  0.53580263  1  0  0.316767  0  3.875595  0  0  0.311793  0  4.132067  0  0  0.322872  0  4.149118  0  0  0.067621  0.304714  0  4.120055  0
C  C88  1  0.47627494  0.87961006  0.39852349  1  0  -0.216649  0  3.784391  0  0  -0.236945  0  4.039288  0  0  -0.242659  0  4.059631  0  0  -0.119531  -0.233057  0  4.025178  0
C  C89  1  0.97627717  0.12038677  0.60147967  1  0  -0.216695  0  3.784332  0  0  -0.236972  0  4.039261  0  0  -0.242684  0  4.059603  0  0  -0.11955  -0.233087  0  4.025156  0
C  C90  1  0.41349815  0.75066477  0.35954041  1  0  -0.099575  0  3.77479  0  0  -0.118065  0  4.022548  0  0  -0.118153  0  4.04339  0  0  -0.102029  -0.118042  0  4.007771  0
C  C91  1  0.91349928  0.24933417  0.64046205  1  0  -0.099535  0  3.774819  0  0  -0.118014  0  4.022562  0  0  -0.118101  0  4.043401  0  0  -0.102031  -0.11799  0  4.007787  0
N  N92  1  0.90107258  0.35396783  0.21792516  1  0  -0.163697  0  3.261368  0  0  -0.071502  0  3.498112  0  0  -0.086438  0  3.51684  0  0  -0.323455  -0.062168  0  3.485575  0
N  N93  1  0.40107193  0.64603217  0.78207463  1  0  -0.163707  0  3.261342  0  0  -0.071506  0  3.498054  0  0  -0.086444  0  3.516779  0  0  -0.32346  -0.062175  0  3.485523  0
N  N94  1  0.80517380  0.62794883  0.17672650  1  0  -0.344316  0  3.298181  0  0  -0.267679  0  3.558399  0  0  -0.285888  0  3.574262  0  0  -0.323205  -0.255567  0  3.547318  0
N  N95  1  0.30517519  0.37205223  0.82327254  1  0  -0.344298  0  3.29814  0  0  -0.267652  0  3.558345  0  0  -0.285861  0  3.574207  0  0  -0.323193  -0.255539  0  3.547264  0
N  N96  1  0.77799749  0.23698927  0.00062737  1  0  -0.339696  0  3.250142  0  0  -0.26817  0  3.50968  0  0  -0.285523  0  3.524764  0  0  -0.31878  -0.256401  0  3.499498  0
N  N97  1  0.27799762  0.76301074  0.99937347  1  0  -0.339631  0  3.250243  0  0  -0.268154  0  3.50986  0  0  -0.285506  0  3.524944  0  0  -0.318771  -0.256393  0  3.499674  0
N  N98  1  0.60440041  0.37262876  0.22986043  1  0  -0.56682  0  3.28606  0  0  -0.495718  0  3.577107  0  0  -0.52351  0  3.591482  0  0  -0.409164  -0.477052  0  3.566727  0
N  N99  1  0.10439978  0.62737019  0.77013958  1  0  -0.566848  0  3.286098  0  0  -0.49572  0  3.577134  0  0  -0.523515  0  3.591513  0  0  -0.409164  -0.477048  0  3.566748  0
O  O100  1  0.59013892  0.21511638  0.38128700  1  0  -0.637018  0  1.955236  0  0  -0.58248  0  2.189762  0  0  -0.606288  0  2.181984  0  0  -0.337035  -0.566552  0  2.194471  0
O  O101  1  0.09013957  0.78488469  0.61871226  1  0  -0.637024  0  1.955266  0  0  -0.582507  0  2.189818  0  0  -0.60631  0  2.182036  0  0  -0.337068  -0.566574  0  2.194526  0
O  O102  1  0.51011544  0.49568387  0.03441676  1  0  -0.605659  0  2.014818  0  0  -0.531981  0  2.265264  0  0  -0.557829  0  2.254337  0  0  -0.310852  -0.514427  0  2.272178  0
O  O103  1  0.01011348  0.50431614  0.96558157  1  0  -0.605658  0  2.014856  0  0  -0.531963  0  2.265295  0  0  -0.557821  0  2.254377  0  0  -0.310813  -0.514408  0  2.27221  0
O  O104  1  0.28075353  0.48323368  0.09044627  1  0  -0.621483  0  2.026545  0  0  -0.558805  0  2.286638  0  0  -0.58635  0  2.277115  0  0  -0.318717  -0.540131  0  2.292487  0
O  O105  1  0.78075114  0.51676843  0.90955380  1  0  -0.621518  0  2.026493  0  0  -0.558821  0  2.28658  0  0  -0.586364  0  2.277056  0  0  -0.318757  -0.540146  0  2.292432  0
O  O106  1  0.67177415  0.00513914  0.50374772  1  0  -0.557043  0  2.124633  0  0  -0.505005  0  2.348512  0  0  -0.525177  0  2.34002  0  0  -0.367943  -0.491423  0  2.353283  0
O  O107  1  0.17177604  0.99486087  0.49625230  1  0  -0.557116  0  2.124482  0  0  -0.505068  0  2.348317  0  0  -0.525251  0  2.339852  0  0  -0.367976  -0.491482  0  2.353087  0
