# generated using pymatgen
data_SmH6C7(NO4)2
_symmetry_space_group_name_H-M   'P 1'
_cell_length_a   6.21573559
_cell_length_b   7.20529087
_cell_length_c   13.33514747
_cell_angle_alpha   79.74906215
_cell_angle_beta   79.99599205
_cell_angle_gamma   57.99739747
_symmetry_Int_Tables_number   1
_chemical_formula_structural   SmH6C7(NO4)2
_chemical_formula_sum   'Sm2 H12 C14 N4 O16'
_cell_volume   496.11993596
_cell_formula_units_Z   2
loop_
 _symmetry_equiv_pos_site_id
 _symmetry_equiv_pos_as_xyz
  1  'x, y, z'
loop_
 _atom_site_type_symbol
 _atom_site_label
 _atom_site_symmetry_multiplicity
 _atom_site_fract_x
 _atom_site_fract_y
 _atom_site_fract_z
 _atom_site_occupancy
 _atom_site_pbe_bader_charge
 _atom_site_pbe_bader_spin_density
 _atom_site_pbe_cm5_charge
 _atom_site_pbe_ddec_charge
 _atom_site_pbe_ddec_spin_density
 _atom_site_pbe_ddec_sum_bond_order
 _atom_site_pbe_magmom
Sm  Sm0  1  0.81500493  0.61708134  0.22599658  1  2.204587  0  1.469794  1.986648  0  2.138972  0
Sm  Sm1  1  0.18500970  0.38292058  0.77400346  1  2.20452  0  1.469775  1.986602  0  2.139015  0
H  H2  1  0.34631058  0.03500478  0.03257778  1  0.139262  0  0.134806  0.106136  0  1.032789  0
H  H3  1  0.77153426  0.17848374  0.61071938  1  0.165364  0  0.130813  0.106158  0  1.014962  0
H  H4  1  0.70657601  0.93008121  0.38546221  1  0.676002  0  0.301096  0.402852  0  0.931999  0
H  H5  1  0.45931553  0.06546625  0.32520830  1  0.624778  0  0.310658  0.409302  0  0.907189  0
H  H6  1  0.49682418  0.41979347  0.22466853  1  0.614677  0  0.313661  0.406908  0  0.911311  0
H  H7  1  0.71084786  0.19408952  0.26752632  1  0.656857  0  0.304157  0.410931  0  0.90449  0
H  H8  1  0.65372656  0.96498225  0.96741318  1  0.138134  0  0.134776  0.106197  0  1.032827  0
H  H9  1  0.22841069  0.82153007  0.38928034  1  0.165399  0  0.130785  0.106192  0  1.014796  0
H  H10  1  0.29340273  0.06991578  0.61455220  1  0.676123  0  0.301074  0.402901  0  0.931953  0
H  H11  1  0.54067965  0.93452110  0.67480116  1  0.625068  0  0.310687  0.409343  0  0.907123  0
H  H12  1  0.50321251  0.58018339  0.77529912  1  0.614559  0  0.313575  0.406928  0  0.911345  0
H  H13  1  0.28915020  0.80590900  0.73247868  1  0.656982  0  0.304183  0.411053  0  0.904335  0
C  C14  1  0.20776862  0.81603256  0.19099142  1  1.615587  0  0.241117  0.60585  0  4.162701  0
C  C15  1  0.08907561  0.92119298  0.09195657  1  0.514802  0  0.142032  0.09477  0  3.911102  0
C  C16  1  0.19279022  0.01936226  0.01576448  1  0.559959  0  0.083335  0.090741  0  3.858539  0
C  C17  1  0.03347727  0.26602912  0.43623254  1  1.607773  0  0.220242  0.562024  0  4.236633  0
C  C18  1  0.75168442  0.39058334  0.47093075  1  0.506322  0  0.131328  0.08062  0  3.928672  0
C  C19  1  0.65006527  0.32194451  0.56134595  1  0.544959  0  0.078144  0.097655  0  3.875932  0
C  C20  1  0.14001739  0.44106191  0.01319049  1  1.593601  0  0.201533  0.474029  0  4.285067  0
C  C21  1  0.79224971  0.18397227  0.80900402  1  1.615944  0  0.241159  0.605944  0  4.16276  0
C  C22  1  0.91093959  0.07881497  0.90803781  1  0.514045  0  0.141846  0.094437  0  3.911296  0
C  C23  1  0.80722438  0.98064369  0.98422878  1  0.561563  0  0.083491  0.090921  0  3.858541  0
C  C24  1  0.96646901  0.73397820  0.56377201  1  1.607123  0  0.220145  0.561815  0  4.236502  0
C  C25  1  0.24826204  0.60941442  0.52906555  1  0.50508  0  0.131407  0.080449  0  3.929161  0
C  C26  1  0.34987337  0.67806603  0.43864799  1  0.546057  0  0.078286  0.097874  0  3.875819  0
C  C27  1  0.86007297  0.55891197  0.98681602  1  1.570883  0  0.20151  0.474092  0  4.285855  0
N  N28  1  0.89553176  0.90046510  0.07633778  1  -1.196208  0  -0.317209  -0.288612  0  3.41475  0
N  N29  1  0.60017719  0.56795768  0.40972532  1  -1.211166  0  -0.350949  -0.31712  0  3.4992  0
N  N30  1  0.10448311  0.09954341  0.92365806  1  -1.196056  0  -0.317161  -0.288448  0  3.414721  0
N  N31  1  0.39975707  0.43204512  0.59026879  1  -1.211013  0  -0.3509  -0.316947  0  3.499206  0
O  O32  1  0.15031463  0.68067449  0.24459308  1  -1.176142  0  -0.370481  -0.628768  0  2.328238  0
O  O33  1  0.36569144  0.85899358  0.21302516  1  -1.185001  0  -0.378492  -0.613668  0  2.295281  0
O  O34  1  0.09679627  0.31065269  0.34199603  1  -1.18033  0  -0.378116  -0.625745  0  2.233021  0
O  O35  1  0.18586565  0.12646164  0.49879255  1  -1.186645  0  -0.302263  -0.535494  0  2.201432  0
O  O36  1  0.17614901  0.41224397  0.10671157  1  -1.169525  0  -0.376578  -0.580551  0  2.277198  0
O  O37  1  0.30999330  0.37902279  0.93872098  1  -1.171781  0  -0.367313  -0.587946  0  2.368517  0
O  O38  1  0.64711151  0.96846462  0.31560990  1  -1.272644  0  -0.595845  -0.827084  0  2.08086  0
O  O39  1  0.67968885  0.33899157  0.23372931  1  -1.263414  0  -0.625518  -0.829768  0  2.037664  0
O  O40  1  0.84966176  0.31936839  0.75540820  1  -1.176497  0  -0.370527  -0.628845  0  2.328146  0
O  O41  1  0.63434915  0.14099310  0.78696559  1  -1.184939  0  -0.378372  -0.613613  0  2.295437  0
O  O42  1  0.90317340  0.68936307  0.65801432  1  -1.180474  0  -0.378017  -0.62554  0  2.232838  0
O  O43  1  0.81404452  0.87354505  0.50122031  1  -1.186191  0  -0.302341  -0.535476  0  2.201159  0
O  O44  1  0.82393140  0.58775675  0.89329486  1  -1.169248  0  -0.376482  -0.580497  0  2.277515  0
O  O45  1  0.69009222  0.62094773  0.06128422  1  -1.172337  0  -0.367498  -0.588109  0  2.369142  0
O  O46  1  0.35287889  0.03153219  0.68440210  1  -1.272958  0  -0.595834  -0.827146  0  2.080767  0
O  O47  1  0.32033768  0.66098992  0.76626649  1  -1.263441  0  -0.625521  -0.829993  0  2.037588  0
