# generated using pymatgen
data_Zn5H12C36N18(Cl2O3)2
_symmetry_space_group_name_H-M   'P 1'
_cell_length_a   22.09088639
_cell_length_b   22.09087861
_cell_length_c   22.09084912
_cell_angle_alpha   59.99997044
_cell_angle_beta   60.00000093
_cell_angle_gamma   59.99989167
_symmetry_Int_Tables_number   1
_chemical_formula_structural   Zn5H12C36N18(Cl2O3)2
_chemical_formula_sum   'Zn10 H24 C72 N36 Cl8 O12'
_cell_volume   7622.95039317
_cell_formula_units_Z   2
loop_
 _symmetry_equiv_pos_site_id
 _symmetry_equiv_pos_as_xyz
  1  'x, y, z'
loop_
 _atom_site_type_symbol
 _atom_site_label
 _atom_site_symmetry_multiplicity
 _atom_site_fract_x
 _atom_site_fract_y
 _atom_site_fract_z
 _atom_site_occupancy
 _atom_site_pbe_bader_charge
 _atom_site_pbe_bader_spin_density
 _atom_site_pbe_cm5_charge
 _atom_site_pbe_ddec_charge
 _atom_site_pbe_ddec_spin_density
 _atom_site_pbe_ddec_sum_bond_order
 _atom_site_pbe_magmom
Zn  Zn0  1  0.55114092  0.81628719  0.81628619  1  1.15463  0  0.642381  0.61067  0  2.673994  0
Zn  Zn1  1  0.81628650  0.81628775  0.81628745  1  1.161043  0  0.64238  0.610604  0  2.674143  0
Zn  Zn2  1  0.81628586  0.81628628  0.55114123  1  1.15415  0  0.642402  0.610671  0  2.674011  0
Zn  Zn3  1  0.81628661  0.55114084  0.81628681  1  1.154609  0  0.642374  0.610586  0  2.67413  0
Zn  Zn4  1  0.18371401  0.18371409  0.18371344  1  1.161011  0  0.642374  0.610611  0  2.674107  0
Zn  Zn5  1  0.44885860  0.18371365  0.18371449  1  1.15434  0  0.642373  0.610646  0  2.674013  0
Zn  Zn6  1  0.18371320  0.18371411  0.44885978  1  1.154121  0  0.642357  0.610579  0  2.674115  0
Zn  Zn7  1  0.18371381  0.44885910  0.18371386  1  1.154611  0  0.642371  0.610611  0  2.674065  0
Zn  Zn8  1  0.75000021  0.75000053  0.75000113  1  1.268464  0  0.698969  0.445833  0  2.619904  0
Zn  Zn9  1  0.24999920  0.24999930  0.24999898  1  1.268418  0  0.698975  0.445859  0  2.619995  0
H  H10  1  0.45994842  0.68980847  0.92512984  1  0.127581  0  0.118914  0.156364  0  0.990247  0
H  H11  1  0.92511357  0.92512942  0.68980987  1  0.120903  0  0.11891  0.156337  0  0.990221  0
H  H12  1  0.92512764  0.92511548  0.45994976  1  0.130879  0  0.118908  0.156384  0  0.990363  0
H  H13  1  0.68980808  0.45995012  0.92511575  1  0.130506  0  0.118897  0.156344  0  0.990424  0
H  H14  1  0.68980817  0.92512960  0.45994835  1  0.127594  0  0.118911  0.156331  0  0.990276  0
H  H15  1  0.92512927  0.68980948  0.92511384  1  0.12088  0  0.118903  0.156366  0  0.990315  0
H  H16  1  0.92511606  0.45994986  0.92512698  1  0.130891  0  0.118893  0.156356  0  0.990358  0
H  H17  1  0.45994994  0.92511575  0.68980855  1  0.13052  0  0.118884  0.156342  0  0.990379  0
H  H18  1  0.92513054  0.45994811  0.68980828  1  0.127583  0  0.118923  0.156343  0  0.990285  0
H  H19  1  0.68980928  0.92511428  0.92512961  1  0.12089  0  0.118924  0.156362  0  0.990273  0
H  H20  1  0.45994981  0.92512732  0.92511582  1  0.130886  0  0.118899  0.15636  0  0.990361  0
H  H21  1  0.92511609  0.68980821  0.45994960  1  0.130504  0  0.118885  0.156338  0  0.990436  0
H  H22  1  0.07488401  0.31019244  0.07487309  1  0.120609  0  0.118897  0.156334  0  0.990413  0
H  H23  1  0.54004994  0.07487368  0.31019208  1  0.127702  0  0.118887  0.156339  0  0.990432  0
H  H24  1  0.31019152  0.07488590  0.54005190  1  0.130533  0  0.118911  0.156338  0  0.990248  0
H  H25  1  0.07487102  0.54005122  0.07488643  1  0.130948  0  0.118905  0.156327  0  0.990244  0
H  H26  1  0.07488512  0.07487144  0.54005214  1  0.130912  0  0.11891  0.156352  0  0.990286  0
H  H27  1  0.54005221  0.31019167  0.07488594  1  0.130521  0  0.118907  0.156319  0  0.990298  0
H  H28  1  0.31019185  0.54005023  0.07487391  1  0.127704  0  0.118875  0.15632  0  0.99043  0
H  H29  1  0.07487267  0.07488350  0.31019256  1  0.120596  0  0.118908  0.156331  0  0.990399  0
H  H30  1  0.07488634  0.54005198  0.31019129  1  0.130549  0  0.118897  0.156345  0  0.990281  0
H  H31  1  0.54005207  0.07488584  0.07487182  1  0.13092  0  0.118906  0.156349  0  0.990189  0
H  H32  1  0.31019267  0.07487269  0.07488416  1  0.120587  0  0.118896  0.156325  0  0.990423  0
H  H33  1  0.07487389  0.31019216  0.54004999  1  0.127712  0  0.118901  0.156365  0  0.990374  0
C  C34  1  0.58147868  0.64557509  0.88647817  1  0.466989  0  0.095879  0.135936  0  4.081307  0
C  C35  1  0.88646988  0.88647937  0.64557481  1  0.446188  0  0.095811  0.135934  0  4.081292  0
C  C36  1  0.88647313  0.88647178  0.58148132  1  0.322163  0  0.095778  0.135686  0  4.08103  0
C  C37  1  0.64557479  0.58147964  0.88647306  1  0.347585  0  0.095848  0.13575  0  4.081167  0
C  C38  1  0.64557467  0.88647753  0.58147824  1  0.466976  0  0.095853  0.135824  0  4.081089  0
C  C39  1  0.88647846  0.64557535  0.88646945  1  0.446281  0  0.095829  0.135857  0  4.08126  0
C  C40  1  0.88647182  0.58148150  0.88647217  1  0.322243  0  0.095814  0.13579  0  4.081106  0
C  C41  1  0.58147935  0.88647207  0.64557523  1  0.347915  0  0.095826  0.135763  0  4.081146  0
C  C42  1  0.88647800  0.58147779  0.64557526  1  0.46702  0  0.095844  0.135814  0  4.081101  0
C  C43  1  0.64557557  0.88647021  0.88647862  1  0.446246  0  0.095835  0.135909  0  4.081218  0
C  C44  1  0.58148067  0.88647333  0.88647153  1  0.322189  0  0.09577  0.135707  0  4.080955  0
C  C45  1  0.88647295  0.64557445  0.58147913  1  0.34788  0  0.095759  0.135735  0  4.081127  0
C  C46  1  0.11352814  0.35442443  0.11352796  1  0.368471  0  0.095857  0.135831  0  4.08093  0
C  C47  1  0.41851996  0.11352675  0.35442433  1  0.386596  0  0.095842  0.135726  0  4.081132  0
C  C48  1  0.35442494  0.11352974  0.41852256  1  0.428509  0  0.095784  0.135801  0  4.081142  0
C  C49  1  0.11352194  0.41852263  0.11353040  1  0.399953  0  0.095801  0.135806  0  4.081289  0
C  C50  1  0.11352908  0.11352271  0.41852301  1  0.400095  0  0.095862  0.13595  0  4.081213  0
C  C51  1  0.41852190  0.35442500  0.11353050  1  0.428535  0  0.095883  0.135899  0  4.081049  0
C  C52  1  0.35442578  0.41852044  0.11352620  1  0.386561  0  0.095786  0.135751  0  4.081036  0
C  C53  1  0.11352636  0.11352815  0.35442521  1  0.36845  0  0.095815  0.135731  0  4.081011  0
C  C54  1  0.11353084  0.41852241  0.35442505  1  0.428468  0  0.09586  0.135891  0  4.081187  0
C  C55  1  0.41852251  0.11353027  0.11352216  1  0.399955  0  0.095793  0.135843  0  4.081144  0
C  C56  1  0.35442425  0.11352732  0.11352839  1  0.368438  0  0.095839  0.135737  0  4.080901  0
C  C57  1  0.11352654  0.35442546  0.41852028  1  0.386604  0  0.095831  0.13576  0  4.081089  0
C  C58  1  0.50974194  0.64095480  0.92465736  1  0.092617  0  -0.093444  -0.251262  0  3.956622  0
C  C59  1  0.92464483  0.92465707  0.64095584  1  0.121256  0  -0.093426  -0.251211  0  3.956649  0
C  C60  1  0.92465511  0.92464838  0.50973812  1  0.146531  0  -0.093405  -0.251222  0  3.95627  0
C  C61  1  0.64096086  0.50973832  0.92464769  1  0.088519  0  -0.093382  -0.251093  0  3.956225  0
C  C62  1  0.64095443  0.92465786  0.50974126  1  0.092574  0  -0.093361  -0.25107  0  3.956542  0
C  C63  1  0.92465706  0.64095794  0.92464476  1  0.12124  0  -0.093463  -0.251311  0  3.956605  0
C  C64  1  0.92464807  0.50973890  0.92465460  1  0.146419  0  -0.093399  -0.251222  0  3.956388  0
C  C65  1  0.50973850  0.92464823  0.64095979  1  0.088544  0  -0.09335  -0.251074  0  3.956296  0
C  C66  1  0.92465865  0.50974142  0.64095418  1  0.092591  0  -0.093414  -0.251155  0  3.956591  0
C  C67  1  0.64095651  0.92464534  0.92465683  1  0.121254  0  -0.093401  -0.251205  0  3.956575  0
C  C68  1  0.50973820  0.92465509  0.92464888  1  0.146525  0  -0.093386  -0.251168  0  3.956366  0
C  C69  1  0.92464845  0.64096031  0.50973811  1  0.088529  0  -0.093365  -0.251135  0  3.95642  0
C  C70  1  0.07535104  0.35904062  0.07534573  1  0.121501  0  -0.093395  -0.251152  0  3.956324  0
C  C71  1  0.49026208  0.07534643  0.35903989  1  0.091984  0  -0.093382  -0.251103  0  3.956316  0
C  C72  1  0.35904481  0.07535356  0.49025908  1  0.088156  0  -0.093349  -0.25107  0  3.956499  0
C  C73  1  0.07534337  0.49025839  0.07535437  1  0.146255  0  -0.093401  -0.25113  0  3.956714  0
C  C74  1  0.07535455  0.07534360  0.49025849  1  0.14624  0  -0.093442  -0.251273  0  3.956617  0
C  C75  1  0.49026021  0.35904505  0.07535276  1  0.088565  0  -0.093398  -0.251123  0  3.956505  0
C  C76  1  0.35904052  0.49026166  0.07534643  1  0.092008  0  -0.093386  -0.251173  0  3.956282  0
C  C77  1  0.07534584  0.07535122  0.35904179  1  0.121538  0  -0.093386  -0.251093  0  3.956432  0
C  C78  1  0.07535434  0.49025841  0.35904567  1  0.088206  0  -0.093436  -0.251233  0  3.956727  0
C  C79  1  0.49025790  0.07535500  0.07534374  1  0.146277  0  -0.093399  -0.251167  0  3.956582  0
C  C80  1  0.35904134  0.07534569  0.07535144  1  0.121545  0  -0.093347  -0.251044  0  3.956367  0
C  C81  1  0.07534670  0.35903978  0.49026158  1  0.091988  0  -0.093402  -0.251172  0  3.956297  0
C  C82  1  0.50557645  0.57027122  0.96207812  1  0.460203  0  0.083514  0.158801  0  4.053147  0
C  C83  1  0.96207454  0.96207777  0.57027285  1  0.416167  0  0.083487  0.158771  0  4.053178  0
C  C84  1  0.96207787  0.96207659  0.50557575  1  0.438269  0  0.083585  0.15887  0  4.0529  0
C  C85  1  0.57026962  0.50557596  0.96207633  1  0.421692  0  0.083532  0.158836  0  4.052873  0
C  C86  1  0.57027161  0.96207863  0.50557664  1  0.46012  0  0.083505  0.158887  0  4.053123  0
C  C87  1  0.96207908  0.57027181  0.96207587  1  0.416227  0  0.08351  0.158827  0  4.053086  0
C  C88  1  0.96207710  0.50557424  0.96207778  1  0.437596  0  0.083521  0.158824  0  4.053092  0
C  C89  1  0.50557615  0.96207690  0.57027004  1  0.425522  0  0.083524  0.15882  0  4.052874  0
C  C90  1  0.96207837  0.50557562  0.57027237  1  0.459416  0  0.08353  0.158879  0  4.053087  0
C  C91  1  0.57027163  0.96207580  0.96207937  1  0.416177  0  0.083499  0.158848  0  4.053129  0
C  C92  1  0.50557572  0.96207726  0.96207674  1  0.438283  0  0.083529  0.158774  0  4.053014  0
C  C93  1  0.96207756  0.57027042  0.50557498  1  0.426193  0  0.083562  0.158868  0  4.052938  0
C  C94  1  0.03792238  0.42973006  0.03792238  1  0.416041  0  0.083516  0.158781  0  4.053131  0
C  C95  1  0.49442506  0.03792292  0.42972940  1  0.444562  0  0.083517  0.158837  0  4.052965  0
C  C96  1  0.42972836  0.03792628  0.49442394  1  0.433487  0  0.083534  0.158872  0  4.053068  0
C  C97  1  0.03792219  0.49442457  0.03792569  1  0.438488  0  0.0835  0.158768  0  4.053132  0
C  C98  1  0.03792466  0.03792092  0.49442634  1  0.437645  0  0.083533  0.158851  0  4.053055  0
C  C99  1  0.49442430  0.42972814  0.03792556  1  0.501987  0  0.083517  0.158833  0  4.053144  0
C  C100  1  0.42973102  0.49442600  0.03792154  1  0.375554  0  0.083542  0.15886  0  4.053052  0
C  C101  1  0.03792329  0.03792319  0.42972938  1  0.41598  0  0.08357  0.158805  0  4.052938  0
C  C102  1  0.03792710  0.49442394  0.42972750  1  0.50223  0  0.083505  0.158825  0  4.053206  0
C  C103  1  0.49442502  0.03792481  0.03792203  1  0.438439  0  0.08352  0.1588  0  4.053094  0
C  C104  1  0.42972982  0.03792154  0.03792287  1  0.416099  0  0.08356  0.158808  0  4.053013  0
C  C105  1  0.03792346  0.42973011  0.49442394  1  0.375742  0  0.083545  0.158885  0  4.052903  0
N  N106  1  0.60559283  0.70507135  0.84467312  1  -0.655641  0  -0.237021  -0.197438  0  3.495043  0
N  N107  1  0.84466303  0.84467338  0.70507249  1  -0.686122  0  -0.237031  -0.197486  0  3.49498  0
N  N108  1  0.84467050  0.84466549  0.60559247  1  -0.724798  0  -0.236973  -0.197404  0  3.494994  0
N  N109  1  0.70507260  0.60559270  0.84466590  1  -0.662055  0  -0.237002  -0.197404  0  3.495017  0
N  N110  1  0.70507349  0.84467105  0.60559246  1  -0.655649  0  -0.237002  -0.197409  0  3.495007  0
N  N111  1  0.84467147  0.70507368  0.84466337  1  -0.686247  0  -0.236973  -0.197387  0  3.494947  0
N  N112  1  0.84466471  0.60559311  0.84467037  1  -0.724823  0  -0.237017  -0.197415  0  3.4951  0
N  N113  1  0.60559218  0.84466436  0.70507339  1  -0.660191  0  -0.237029  -0.197436  0  3.494972  0
N  N114  1  0.84467151  0.60559180  0.70507379  1  -0.655676  0  -0.237007  -0.197402  0  3.49497  0
N  N115  1  0.70507394  0.84466328  0.84467186  1  -0.686143  0  -0.237016  -0.197446  0  3.495013  0
N  N116  1  0.60559344  0.84467011  0.84466523  1  -0.724798  0  -0.237009  -0.197418  0  3.495074  0
N  N117  1  0.84466440  0.70507302  0.60559291  1  -0.660164  0  -0.236996  -0.197407  0  3.494928  0
N  N118  1  0.15533544  0.29492641  0.15533121  1  -0.686498  0  -0.237014  -0.197407  0  3.495074  0
N  N119  1  0.39440743  0.15532933  0.29492768  1  -0.65566  0  -0.237021  -0.197406  0  3.495092  0
N  N120  1  0.29492684  0.15533603  0.39440781  1  -0.660094  0  -0.237005  -0.197427  0  3.494993  0
N  N121  1  0.15532888  0.39440633  0.15533762  1  -0.72473  0  -0.236955  -0.197316  0  3.494972  0
N  N122  1  0.15533543  0.15532909  0.39440750  1  -0.724652  0  -0.237016  -0.197431  0  3.494956  0
N  N123  1  0.39440840  0.29492667  0.15533641  1  -0.660095  0  -0.237022  -0.197468  0  3.495036  0
N  N124  1  0.29492754  0.39440696  0.15532978  1  -0.655586  0  -0.236997  -0.197417  0  3.494991  0
N  N125  1  0.15533021  0.15533567  0.29492680  1  -0.686301  0  -0.23703  -0.197443  0  3.495013  0
N  N126  1  0.15533740  0.39440758  0.29492615  1  -0.660106  0  -0.236967  -0.197362  0  3.494923  0
N  N127  1  0.39440721  0.15533729  0.15532831  1  -0.724684  0  -0.236975  -0.197361  0  3.494907  0
N  N128  1  0.29492598  0.15533072  0.15533579  1  -0.686432  0  -0.237026  -0.197416  0  3.495072  0
N  N129  1  0.15532966  0.29492780  0.39440658  1  -0.655601  0  -0.237007  -0.197388  0  3.495002  0
N  N130  1  0.67955811  0.67955926  0.82044269  1  -0.29768  0  -0.107924  -0.012647  0  3.454938  0
N  N131  1  0.82044040  0.82044260  0.67955902  1  -0.21422  0  -0.107921  -0.012617  0  3.454866  0
N  N132  1  0.67956026  0.82044066  0.67955898  1  -0.299884  0  -0.107949  -0.012691  0  3.454821  0
N  N133  1  0.82044112  0.67955954  0.82044098  1  -0.214203  0  -0.107943  -0.012669  0  3.454931  0
N  N134  1  0.82044113  0.67955867  0.67956008  1  -0.299898  0  -0.107934  -0.012674  0  3.454837  0
N  N135  1  0.67955965  0.82044092  0.82044163  1  -0.214231  0  -0.107956  -0.012696  0  3.454993  0
N  N136  1  0.17955930  0.32043950  0.17956003  1  -0.213936  0  -0.108014  -0.012827  0  3.45506  0
N  N137  1  0.32044024  0.17955935  0.32044098  1  -0.299917  0  -0.107927  -0.012654  0  3.454814  0
N  N138  1  0.17955855  0.17955949  0.32044042  1  -0.214129  0  -0.10793  -0.012667  0  3.454964  0
N  N139  1  0.32044160  0.32043996  0.17955884  1  -0.299953  0  -0.107918  -0.012632  0  3.454876  0
N  N140  1  0.17955911  0.32044107  0.32044041  1  -0.29995  0  -0.107955  -0.012719  0  3.454921  0
N  N141  1  0.32043941  0.17956037  0.17955904  1  -0.214056  0  -0.10798  -0.012758  0  3.454984  0
Cl  Cl142  1  0.43077338  0.85641685  0.85640522  1  -0.633156  0  -0.359294  -0.491175  0  1.058238  0
Cl  Cl143  1  0.85640650  0.85640777  0.85641472  1  -0.641494  0  -0.359295  -0.491147  0  1.05827  0
Cl  Cl144  1  0.85640594  0.85640642  0.43077254  1  -0.632663  0  -0.359309  -0.49118  0  1.058216  0
Cl  Cl145  1  0.85641447  0.43077413  0.85640624  1  -0.633155  0  -0.359285  -0.491132  0  1.058273  0
Cl  Cl146  1  0.14359345  0.14359442  0.14358527  1  -0.641432  0  -0.359279  -0.491138  0  1.058222  0
Cl  Cl147  1  0.56922802  0.14358315  0.14359441  1  -0.632862  0  -0.359315  -0.491189  0  1.058196  0
Cl  Cl148  1  0.14359381  0.14359375  0.56922634  1  -0.632649  0  -0.359294  -0.491139  0  1.058294  0
Cl  Cl149  1  0.14358449  0.56922615  0.14359387  1  -0.633149  0  -0.359307  -0.491169  0  1.05825  0
O  O150  1  0.43580570  0.56419317  0.00000142  1  -1.079724  0  -0.132952  -0.146037  0  2.56215  0
O  O151  1  0.00000070  0.99999970  0.56419337  1  -1.075317  0  -0.132937  -0.146043  0  2.562147  0
O  O152  1  0.00000031  0.99999934  0.43580494  1  -1.075179  0  -0.133017  -0.146032  0  2.561838  0
O  O153  1  0.56419485  0.43580537  0.00000061  1  -1.074391  0  -0.133028  -0.146193  0  2.562001  0
O  O154  1  0.56419457  0.00000259  0.43580476  1  -1.079076  0  -0.133002  -0.146224  0  2.561987  0
O  O155  1  0.99999897  0.56419458  0.99999996  1  -1.075326  0  -0.132916  -0.145985  0  2.562102  0
O  O156  1  0.99999932  0.43580505  0.00000068  1  -1.075233  0  -0.132913  -0.145958  0  2.562269  0
O  O157  1  0.43580518  0.00000204  0.56419543  1  -1.078839  0  -0.133011  -0.146198  0  2.561952  0
O  O158  1  0.00000250  0.43580472  0.56419437  1  -1.079018  0  -0.132999  -0.146162  0  2.561895  0
O  O159  1  0.56419439  0.99999960  0.99999949  1  -1.075341  0  -0.13295  -0.146068  0  2.562205  0
O  O160  1  0.43580532  0.99999969  0.00000064  1  -1.075922  0  -0.133004  -0.146021  0  2.561954  0
O  O161  1  0.00000193  0.56419587  0.43580473  1  -1.078865  0  -0.132975  -0.146103  0  2.562014  0
