# generated using pymatgen
data_AgP2H28C33S2NO2
_symmetry_space_group_name_H-M   'P 1'
_cell_length_a   11.22210279
_cell_length_b   12.94163972
_cell_length_c   13.12918417
_cell_angle_alpha   114.01549657
_cell_angle_beta   100.25204820
_cell_angle_gamma   105.35766570
_symmetry_Int_Tables_number   1
_chemical_formula_structural   AgP2H28C33S2NO2
_chemical_formula_sum   'Ag2 P4 H56 C66 S4 N2 O4'
_cell_volume   1588.68107576
_cell_formula_units_Z   2
loop_
 _symmetry_equiv_pos_site_id
 _symmetry_equiv_pos_as_xyz
  1  'x, y, z'
loop_
 _atom_site_type_symbol
 _atom_site_label
 _atom_site_symmetry_multiplicity
 _atom_site_fract_x
 _atom_site_fract_y
 _atom_site_fract_z
 _atom_site_occupancy
 _atom_site_hle17_bader_spin_density
 _atom_site_hle17_ddec_charge
 _atom_site_hle17_ddec_spin_density
 _atom_site_hle17_ddec_sum_bond_order
 _atom_site_hle17_magmom
 _atom_site_hse06_10hf_bader_spin_density
 _atom_site_hse06_10hf_ddec_charge
 _atom_site_hse06_10hf_ddec_spin_density
 _atom_site_hse06_10hf_ddec_sum_bond_order
 _atom_site_hse06_10hf_magmom
 _atom_site_hse06_bader_spin_density
 _atom_site_hse06_ddec_charge
 _atom_site_hse06_ddec_spin_density
 _atom_site_hse06_ddec_sum_bond_order
 _atom_site_hse06_magmom
 _atom_site_pbe_bader_spin_density
 _atom_site_pbe_cm5_charge
 _atom_site_pbe_ddec_charge
 _atom_site_pbe_ddec_spin_density
 _atom_site_pbe_ddec_sum_bond_order
 _atom_site_pbe_magmom
Ag  Ag0  1  0.62891270  0.81088798  0.07281344  1  0  0.100326  0  1.986798  0  0  -0.006807  0  2.474962  0  0  0.00374  0  2.440984  0  0  0.362639  -0.01333  0  2.497368  0
Ag  Ag1  1  0.37107733  0.18910987  0.92718171  1  0  0.100318  0  1.986875  0  0  -0.00683  0  2.475033  0  0  0.003716  0  2.441051  0  0  0.362626  -0.013354  0  2.497438  0
P  P2  1  0.69585224  0.00945949  0.08266839  1  0  0.358191  0  3.676092  0  0  0.320664  0  4.134446  0  0  0.331014  0  4.1318  0  0  -0.018409  0.313246  0  4.136227  0
P  P3  1  0.30414060  0.99054290  0.91732977  1  0  0.358116  0  3.676254  0  0  0.320589  0  4.134431  0  0  0.330933  0  4.131792  0  0  -0.018484  0.313167  0  4.136198  0
P  P4  1  0.66946500  0.62566258  0.99015802  1  0  0.369899  0  3.683256  0  0  0.332356  0  4.143646  0  0  0.343361  0  4.139289  0  0  -0.016607  0.324636  0  4.146378  0
P  P5  1  0.33052815  0.37433615  0.00984480  1  0  0.36982  0  3.683077  0  0  0.332326  0  4.143445  0  0  0.343325  0  4.139071  0  0  -0.016622  0.324602  0  4.146172  0
H  H6  1  0.28301529  0.84663247  0.31967577  1  0  0.101084  0  0.954282  0  0  0.108784  0  1.020842  0  0  0.111849  0  1.019748  0  0  0.102218  0.106694  0  1.021482  0
H  H7  1  0.71697224  0.15336360  0.68032819  1  0  0.101025  0  0.954523  0  0  0.108755  0  1.021026  0  0  0.111819  0  1.019932  0  0  0.102203  0.106666  0  1.021666  0
H  H8  1  0.60035570  0.86140906  0.65184999  1  0  0.098877  0  0.965688  0  0  0.110002  0  1.025333  0  0  0.11294  0  1.024244  0  0  0.103478  0.107909  0  1.026149  0
H  H9  1  0.39965859  0.13858838  0.34814555  1  0  0.098939  0  0.965781  0  0  0.110075  0  1.025404  0  0  0.113014  0  1.024313  0  0  0.1035  0.107981  0  1.026222  0
H  H10  1  0.38633468  0.87826846  0.66668175  1  0  0.082961  0  0.982885  0  0  0.091995  0  1.048003  0  0  0.094144  0  1.048289  0  0  0.094896  0.090443  0  1.047919  0
H  H11  1  0.61368056  0.12172898  0.33332001  1  0  0.082948  0  0.982644  0  0  0.092026  0  1.047743  0  0  0.094173  0  1.04803  0  0  0.0949  0.090469  0  1.047663  0
H  H12  1  0.23093601  0.87228172  0.50446316  1  0  0.095994  0  0.963157  0  0  0.104707  0  1.027196  0  0  0.107395  0  1.026724  0  0  0.101158  0.102713  0  1.027726  0
H  H13  1  0.76906996  0.12770855  0.49554654  1  0  0.096016  0  0.963275  0  0  0.104772  0  1.027254  0  0  0.107462  0  1.026776  0  0  0.101177  0.102763  0  1.027794  0
H  H14  1  0.83243215  0.79411337  0.23261597  1  0  0.086275  0  0.986499  0  0  0.092931  0  1.060478  0  0  0.09642  0  1.057055  0  0  0.09267  0.090428  0  1.062909  0
H  H15  1  0.16758039  0.20589700  0.76740201  1  0  0.086212  0  0.986556  0  0  0.092885  0  1.060516  0  0  0.096373  0  1.057094  0  0  0.092692  0.090384  0  1.062942  0
H  H16  1  0.79029502  0.44133204  0.96457706  1  0  0.089629  0  0.962305  0  0  0.098078  0  1.029731  0  0  0.100762  0  1.029094  0  0  0.0954  0.096261  0  1.02997  0
H  H17  1  0.20970576  0.55867850  0.03542783  1  0  0.08966  0  0.962194  0  0  0.09812  0  1.029608  0  0  0.10081  0  1.028984  0  0  0.095432  0.096299  0  1.02985  0
H  H18  1  0.02033908  0.79717686  0.36715579  1  0  0.09621  0  0.950107  0  0  0.109165  0  1.006727  0  0  0.111592  0  1.006207  0  0  0.104917  0.107375  0  1.007254  0
H  H19  1  0.97967974  0.20282696  0.63285288  1  0  0.096259  0  0.950161  0  0  0.109151  0  1.006874  0  0  0.11158  0  1.00635  0  0  0.104935  0.107362  0  1.007401  0
H  H20  1  0.09231069  0.62017422  0.30106345  1  0  0.08349  0  0.972738  0  0  0.092172  0  1.038786  0  0  0.093908  0  1.039681  0  0  0.096087  0.090896  0  1.038288  0
H  H21  1  0.90770076  0.37982511  0.69893166  1  0  0.083455  0  0.972703  0  0  0.092155  0  1.038742  0  0  0.093892  0  1.039636  0  0  0.096082  0.090879  0  1.038246  0
H  H22  1  0.97662885  0.44341835  0.10104748  1  0  0.085424  0  0.966501  0  0  0.096373  0  1.028248  0  0  0.098388  0  1.028942  0  0  0.095875  0.094882  0  1.027946  0
H  H23  1  0.02337701  0.55658933  0.89894559  1  0  0.085346  0  0.966589  0  0  0.096309  0  1.028309  0  0  0.098322  0  1.02901  0  0  0.095878  0.09482  0  1.028008  0
H  H24  1  0.83581772  0.53144530  0.58613952  1  0  0.07694  0  0.980283  0  0  0.087045  0  1.043801  0  0  0.089304  0  1.043063  0  0  0.094157  0.085417  0  1.044379  0
H  H25  1  0.16417471  0.46854517  0.41386216  1  0  0.076953  0  0.980133  0  0  0.087066  0  1.043657  0  0  0.089322  0  1.042921  0  0  0.094214  0.085437  0  1.044236  0
H  H26  1  0.88878657  0.75826314  0.95043631  1  0  0.081618  0  0.974389  0  0  0.091476  0  1.041387  0  0  0.093747  0  1.041229  0  0  0.095326  0.090192  0  1.040898  0
H  H27  1  0.11119777  0.24173847  0.04955646  1  0  0.081726  0  0.974409  0  0  0.091565  0  1.041419  0  0  0.093834  0  1.041264  0  0  0.09538  0.09028  0  1.040929  0
H  H28  1  0.55680051  0.41707149  0.74178307  1  0  0.093042  0  0.977195  0  0  0.101527  0  1.044073  0  0  0.10371  0  1.043608  0  0  0.098017  0.099954  0  1.044453  0
H  H29  1  0.44319827  0.58291246  0.25822074  1  0  0.093029  0  0.977318  0  0  0.101515  0  1.044184  0  0  0.103699  0  1.043719  0  0  0.098075  0.099944  0  1.044567  0
H  H30  1  0.63332918  0.37952510  0.57014572  1  0  0.084165  0  0.978716  0  0  0.094896  0  1.038885  0  0  0.096524  0  1.039929  0  0  0.095666  0.09374  0  1.03821  0
H  H31  1  0.36667033  0.62046710  0.42986151  1  0  0.084104  0  0.978592  0  0  0.094806  0  1.03881  0  0  0.096431  0  1.039858  0  0  0.095633  0.093656  0  1.038138  0
H  H32  1  0.96364411  0.72054668  0.77694773  1  0  0.082436  0  0.987829  0  0  0.09053  0  1.055469  0  0  0.091723  0  1.057762  0  0  0.094138  0.089673  0  1.053918  0
H  H33  1  0.03633474  0.27945043  0.22304547  1  0  0.08253  0  0.987887  0  0  0.0906  0  1.05556  0  0  0.0918  0  1.057817  0  0  0.094143  0.089736  0  1.054005  0
H  H34  1  0.74185009  0.27600333  0.23005209  1  0  0.088894  0  0.94667  0  0  0.105484  0  0.998198  0  0  0.108036  0  0.997094  0  0  0.103909  0.103669  0  0.998994  0
H  H35  1  0.25815581  0.72400436  0.76994784  1  0  0.08897  0  0.946637  0  0  0.105578  0  0.998129  0  0  0.108132  0  0.997018  0  0  0.103949  0.103717  0  0.998982  0
H  H36  1  0.89385782  0.42874540  0.42898047  1  0  0.081902  0  0.971257  0  0  0.094683  0  1.030397  0  0  0.097067  0  1.029574  0  0  0.100322  0.092986  0  1.031059  0
H  H37  1  0.10614514  0.57125959  0.57101793  1  0  0.081732  0  0.971172  0  0  0.094462  0  1.030417  0  0  0.096849  0  1.029587  0  0  0.100241  0.092766  0  1.031079  0
H  H38  1  0.04687338  0.37263360  0.54123479  1  0  0.088276  0  0.952609  0  0  0.100805  0  1.009989  0  0  0.103561  0  1.008844  0  0  0.103977  0.09878  0  1.010991  0
H  H39  1  0.95312832  0.62737049  0.45876612  1  0  0.08832  0  0.952562  0  0  0.100814  0  1.009989  0  0  0.103571  0  1.008843  0  0  0.103989  0.098789  0  1.010992  0
H  H40  1  0.04454810  0.16211236  0.45171127  1  0  0.10474  0  0.971727  0  0  0.111019  0  1.036555  0  0  0.114566  0  1.034547  0  0  0.103963  0.108443  0  1.038072  0
H  H41  1  0.95545127  0.83789268  0.54828816  1  0  0.104695  0  0.971639  0  0  0.110931  0  1.036527  0  0  0.114475  0  1.034523  0  0  0.103927  0.108354  0  1.038045  0
H  H42  1  0.88769677  0.00650931  0.25342413  1  0  0.084495  0  0.963718  0  0  0.095016  0  1.031386  0  0  0.098047  0  1.029153  0  0  0.097322  0.092962  0  1.032727  0
H  H43  1  0.11230083  0.99349577  0.74657886  1  0  0.084576  0  0.963653  0  0  0.095084  0  1.031328  0  0  0.098113  0  1.029097  0  0  0.097369  0.09303  0  1.03267  0
H  H44  1  0.73661381  0.84004758  0.88245622  1  0  0.073304  0  1.001249  0  0  0.079056  0  1.077064  0  0  0.081844  0  1.075635  0  0  0.088442  0.076997  0  1.078207  0
H  H45  1  0.26337454  0.15995489  0.11754282  1  0  0.073286  0  1.001236  0  0  0.079021  0  1.07708  0  0  0.081812  0  1.075648  0  0  0.088405  0.076962  0  1.078222  0
H  H46  1  0.91019830  0.24379967  0.89835073  1  0  0.088777  0  0.959731  0  0  0.099749  0  1.020833  0  0  0.101607  0  1.021655  0  0  0.099317  0.09845  0  1.020165  0
H  H47  1  0.08980509  0.75619980  0.10164781  1  0  0.088814  0  0.95977  0  0  0.099756  0  1.020913  0  0  0.101616  0  1.021733  0  0  0.099322  0.098464  0  1.020223  0
H  H48  1  0.81805453  0.22683096  0.05145900  1  0  0.082717  0  0.954535  0  0  0.094497  0  1.017798  0  0  0.096682  0  1.01704  0  0  0.098066  0.092928  0  1.018392  0
H  H49  1  0.18195438  0.77317301  0.94854598  1  0  0.082695  0  0.95455  0  0  0.094481  0  1.017811  0  0  0.096666  0  1.017049  0  0  0.098055  0.09291  0  1.018408  0
H  H50  1  0.91450585  0.05950609  0.73628547  1  0  0.095574  0  0.963681  0  0  0.105935  0  1.025022  0  0  0.108251  0  1.024659  0  0  0.100851  0.104172  0  1.025446  0
H  H51  1  0.08549694  0.94048972  0.26371685  1  0  0.095639  0  0.963607  0  0  0.106032  0  1.024911  0  0  0.108349  0  1.024547  0  0  0.100901  0.104271  0  1.025338  0
H  H52  1  0.83128170  0.85813580  0.73011928  1  0  0.091883  0  0.953294  0  0  0.102655  0  1.012176  0  0  0.105033  0  1.012196  0  0  0.101527  0.100959  0  1.012308  0
H  H53  1  0.16871106  0.14186201  0.26988236  1  0  0.091838  0  0.953328  0  0  0.102574  0  1.012252  0  0  0.104949  0  1.01228  0  0  0.101499  0.100879  0  1.012383  0
H  H54  1  0.51468924  0.05791777  0.13229445  1  0  0.10828  0  0.941118  0  0  0.127718  0  0.997705  0  0  0.128551  0  0.999317  0  0  0.100228  0.126983  0  0.996792  0
H  H55  1  0.48530754  0.94209192  0.86770569  1  0  0.108333  0  0.941115  0  0  0.127705  0  0.997741  0  0  0.128541  0  0.999353  0  0  0.100251  0.126966  0  0.996828  0
H  H56  1  0.57866371  0.13848746  0.05899799  1  0  0.095398  0  0.9523  0  0  0.113467  0  1.015451  0  0  0.115589  0  1.013645  0  0  0.091749  0.111808  0  1.016939  0
H  H57  1  0.42133321  0.86152038  0.94100372  1  0  0.095434  0  0.952317  0  0  0.113481  0  1.01545  0  0  0.115603  0  1.013646  0  0  0.091771  0.111822  0  1.01693  0
H  H58  1  0.45074783  0.48025270  0.87342568  1  0  0.117634  0  0.915601  0  0  0.139851  0  0.962049  0  0  0.141019  0  0.962884  0  0  0.106709  0.138957  0  0.961586  0
H  H59  1  0.54924868  0.51975423  0.12657103  1  0  0.117747  0  0.915469  0  0  0.139948  0  0.961937  0  0  0.141112  0  0.962769  0  0  0.106756  0.139051  0  0.961471  0
H  H60  1  0.54912858  0.40861721  0.91710493  1  0  0.095326  0  0.989061  0  0  0.105708  0  1.064845  0  0  0.106978  0  1.065978  0  0  0.086446  0.104704  0  1.064277  0
H  H61  1  0.45085001  0.59137715  0.08288484  1  0  0.095401  0  0.989114  0  0  0.10581  0  1.064861  0  0  0.107074  0  1.065994  0  0  0.086481  0.104802  0  1.064292  0
C  C62  1  0.55708981  0.84321133  0.47637304  1  0  -0.143995  0  3.743039  0  0  -0.123023  0  3.983733  0  0  -0.127809  0  4.004701  0  0  -0.014601  -0.119871  0  3.969847  0
C  C63  1  0.44292312  0.15679351  0.52363745  1  0  -0.14393  0  3.742882  0  0  -0.122879  0  3.983487  0  0  -0.12767  0  4.00446  0  0  -0.014569  -0.119729  0  3.969602  0
C  C64  1  0.52410261  0.82615752  0.28490481  1  0  0.270014  0  3.853214  0  0  0.251888  0  4.134671  0  0  0.274252  0  4.145052  0  0  0.123598  0.23717  0  4.127079  0
C  C65  1  0.47589274  0.17383566  0.71509458  1  0  0.26999  0  3.85331  0  0  0.251899  0  4.134744  0  0  0.274262  0  4.145127  0  0  0.123605  0.237186  0  4.127146  0
C  C66  1  0.46958846  0.83875873  0.38291313  1  0  -0.015048  0  3.817045  0  0  -0.000493  0  4.046616  0  0  -0.005901  0  4.071999  0  0  -0.011524  0.002849  0  4.029722  0
C  C67  1  0.53041008  0.16123990  0.61708892  1  0  -0.015095  0  3.81738  0  0  -0.000612  0  4.047007  0  0  -0.00602  0  4.072396  0  0  -0.011616  0.002729  0  4.030112  0
C  C68  1  0.35051781  0.84810514  0.39156557  1  0  -0.062326  0  3.697684  0  0  -0.083786  0  3.948161  0  0  -0.083538  0  3.966844  0  0  -0.075614  -0.083891  0  3.935605  0
C  C69  1  0.64948308  0.15189899  0.60844971  1  0  -0.062156  0  3.697723  0  0  -0.083614  0  3.948206  0  0  -0.08337  0  3.966891  0  0  -0.075484  -0.083723  0  3.935653  0
C  C70  1  0.53042074  0.85631039  0.57915967  1  0  -0.055318  0  3.742523  0  0  -0.078142  0  3.988851  0  0  -0.077248  0  4.0055  0  0  -0.080039  -0.078684  0  3.977642  0
C  C71  1  0.46959022  0.14368987  0.42083955  1  0  -0.05553  0  3.742545  0  0  -0.078398  0  3.98889  0  0  -0.077503  0  4.005539  0  0  -0.080061  -0.078939  0  3.977678  0
C  C72  1  0.41058142  0.86578746  0.58696627  1  0  -0.05702  0  3.735094  0  0  -0.071962  0  3.989905  0  0  -0.072918  0  4.009034  0  0  -0.085959  -0.071355  0  3.976992  0
C  C73  1  0.58943293  0.13421644  0.41304481  1  0  -0.056837  0  3.734771  0  0  -0.071796  0  3.989558  0  0  -0.072753  0  4.008689  0  0  -0.085932  -0.071182  0  3.976632  0
C  C74  1  0.32181707  0.86158340  0.49449166  1  0  -0.055395  0  3.71975  0  0  -0.074918  0  3.978302  0  0  -0.076047  0  3.997552  0  0  -0.083944  -0.074135  0  3.965442  0
C  C75  1  0.67819743  0.13841867  0.50552099  1  0  -0.055575  0  3.719654  0  0  -0.075181  0  3.978279  0  0  -0.076309  0  3.997529  0  0  -0.084056  -0.074384  0  3.965417  0
C  C76  1  0.80003926  0.61895388  0.08974411  1  0  -0.10344  0  3.751031  0  0  -0.062039  0  3.983566  0  0  -0.068788  0  4.011512  0  0  -0.027798  -0.057748  0  3.964752  0
C  C77  1  0.19995975  0.38105026  0.91025794  1  0  -0.103232  0  3.750819  0  0  -0.061884  0  3.983419  0  0  -0.068634  0  4.011366  0  0  -0.027791  -0.057597  0  3.964607  0
C  C78  1  0.86528837  0.71802537  0.20338932  1  0  -0.07029  0  3.755721  0  0  -0.091823  0  4.000649  0  0  -0.092336  0  4.022303  0  0  -0.08608  -0.0914  0  3.986003  0
C  C79  1  0.13471429  0.28197872  0.79662087  1  0  -0.070219  0  3.755738  0  0  -0.091749  0  4.000664  0  0  -0.092259  0  4.022309  0  0  -0.086089  -0.091325  0  3.986018  0
C  C80  1  0.83993095  0.51916038  0.05298668  1  0  -0.075347  0  3.748499  0  0  -0.093658  0  3.986379  0  0  -0.094423  0  4.008562  0  0  -0.086667  -0.092727  0  3.971236  0
C  C81  1  0.16006881  0.48084558  0.94701317  1  0  -0.075463  0  3.748452  0  0  -0.093771  0  3.986359  0  0  -0.094552  0  4.008534  0  0  -0.086675  -0.092834  0  3.971215  0
C  C82  1  0.97010963  0.71873021  0.27940832  1  0  -0.066819  0  3.747199  0  0  -0.078451  0  3.991372  0  0  -0.081815  0  4.01353  0  0  -0.088493  -0.076187  0  3.976699  0
C  C83  1  0.02990246  0.28127278  0.72059064  1  0  -0.066922  0  3.747386  0  0  -0.078525  0  3.991572  0  0  -0.08189  0  4.013735  0  0  -0.088539  -0.076259  0  3.976898  0
C  C84  1  0.00991932  0.61985868  0.24248042  1  0  -0.067923  0  3.762784  0  0  -0.079284  0  4.005032  0  0  -0.079948  0  4.026551  0  0  -0.088782  -0.078765  0  3.990484  0
C  C85  1  0.99008741  0.38013797  0.75751519  1  0  -0.067811  0  3.762571  0  0  -0.079192  0  4.004811  0  0  -0.079858  0  4.026327  0  0  -0.088814  -0.078672  0  3.990263  0
C  C86  1  0.94428983  0.51993708  0.12948707  1  0  -0.078991  0  3.772768  0  0  -0.087346  0  4.013388  0  0  -0.09067  0  4.035695  0  0  -0.094549  -0.085264  0  3.998311  0
C  C87  1  0.05571876  0.48007056  0.87051019  1  0  -0.078944  0  3.772575  0  0  -0.087299  0  4.013193  0  0  -0.090622  0  4.035501  0  0  -0.09452  -0.085218  0  3.998115  0
C  C88  1  0.71812965  0.58999956  0.85858206  1  0  -0.110739  0  3.780587  0  0  -0.071306  0  4.01457  0  0  -0.076661  0  4.040558  0  0  -0.030223  -0.067707  0  3.997149  0
C  C89  1  0.28186789  0.40999450  0.14141954  1  0  -0.110777  0  3.780676  0  0  -0.071376  0  4.014692  0  0  -0.07673  0  4.040679  0  0  -0.030308  -0.067778  0  3.997271  0
C  C90  1  0.80301821  0.54753470  0.66245007  1  0  -0.066875  0  3.771512  0  0  -0.077925  0  4.011407  0  0  -0.07906  0  4.032129  0  0  -0.091141  -0.077044  0  3.997268  0
C  C91  1  0.19698228  0.45246207  0.33755305  1  0  -0.066747  0  3.771494  0  0  -0.077769  0  4.011408  0  0  -0.078903  0  4.032135  0  0  -0.091081  -0.076887  0  3.997266  0
C  C92  1  0.83258257  0.67507028  0.86704614  1  0  -0.087879  0  3.778013  0  0  -0.103689  0  4.016465  0  0  -0.105355  0  4.038398  0  0  -0.090562  -0.102587  0  4.001685  0
C  C93  1  0.16741066  0.32492660  0.13294681  1  0  -0.088084  0  3.777971  0  0  -0.103875  0  4.016445  0  0  -0.105545  0  4.038381  0  0  -0.090603  -0.10277  0  4.001661  0
C  C94  1  0.64637775  0.48383748  0.75087695  1  0  -0.073652  0  3.735066  0  0  -0.092276  0  3.972912  0  0  -0.09355  0  3.995547  0  0  -0.088162  -0.091262  0  3.957419  0
C  C95  1  0.35362290  0.51615102  0.24912287  1  0  -0.073606  0  3.734966  0  0  -0.092203  0  3.972857  0  0  -0.093469  0  3.995473  0  0  -0.088208  -0.091192  0  3.957365  0
C  C96  1  0.68922180  0.46282182  0.65326188  1  0  -0.065487  0  3.764769  0  0  -0.074665  0  4.004085  0  0  -0.077035  0  4.026115  0  0  -0.091761  -0.073002  0  3.988991  0
C  C97  1  0.31076807  0.53716686  0.34673718  1  0  -0.065521  0  3.764793  0  0  -0.074727  0  4.004224  0  0  -0.077093  0  4.026255  0  0  -0.091775  -0.073074  0  3.989137  0
C  C98  1  0.87486712  0.65391721  0.76954364  1  0  -0.072603  0  3.771536  0  0  -0.083016  0  4.014158  0  0  -0.085471  0  4.036949  0  0  -0.093533  -0.081362  0  3.998836  0
C  C99  1  0.12512308  0.34607881  0.23045689  1  0  -0.072638  0  3.771219  0  0  -0.083036  0  4.013838  0  0  -0.085483  0  4.036629  0  0  -0.09356  -0.081371  0  3.998502  0
C  C100  1  0.80571225  0.13060215  0.22731601  1  0  -0.110131  0  3.774358  0  0  -0.071941  0  4.012863  0  0  -0.077269  0  4.038539  0  0  -0.027516  -0.06828  0  3.99538  0
C  C101  1  0.19429109  0.86940375  0.77268129  1  0  -0.109995  0  3.774452  0  0  -0.071804  0  4.012982  0  0  -0.077128  0  4.038655  0  0  -0.027381  -0.06814  0  3.995489  0
C  C102  1  0.80773885  0.25002012  0.27769250  1  0  -0.080385  0  3.764775  0  0  -0.098775  0  4.005177  0  0  -0.099637  0  4.026509  0  0  -0.085189  -0.097951  0  3.990407  0
C  C103  1  0.19226397  0.74998670  0.72230586  1  0  -0.080569  0  3.764862  0  0  -0.098971  0  4.005215  0  0  -0.099833  0  4.026548  0  0  -0.085232  -0.098111  0  3.990458  0
C  C104  1  0.89389394  0.33659561  0.39045585  1  0  -0.077722  0  3.775708  0  0  -0.089171  0  4.02402  0  0  -0.092343  0  4.046649  0  0  -0.08871  -0.086994  0  4.00853  0
C  C105  1  0.10611376  0.66341205  0.60954357  1  0  -0.077329  0  3.775643  0  0  -0.088741  0  4.023936  0  0  -0.091908  0  4.04656  0  0  -0.088677  -0.086563  0  4.008432  0
C  C106  1  0.97937858  0.30551117  0.45306186  1  0  -0.05788  0  3.749461  0  0  -0.073795  0  4.000156  0  0  -0.074582  0  4.020707  0  0  -0.081223  -0.073107  0  3.986152  0
C  C107  1  0.02062723  0.69449193  0.54693773  1  0  -0.058057  0  3.749593  0  0  -0.073948  0  4.000263  0  0  -0.074734  0  4.020812  0  0  -0.081202  -0.073258  0  3.986258  0
C  C108  1  0.97823360  0.18701447  0.40343272  1  0  -0.059444  0  3.728541  0  0  -0.070873  0  3.974028  0  0  -0.072974  0  3.994065  0  0  -0.082122  -0.069401  0  3.960483  0
C  C109  1  0.02177191  0.81299231  0.59656526  1  0  -0.059414  0  3.728169  0  0  -0.07081  0  3.973671  0  0  -0.072906  0  3.993703  0  0  -0.082114  -0.069337  0  3.960129  0
C  C110  1  0.89088236  0.09989590  0.29164592  1  0  -0.06408  0  3.734495  0  0  -0.082149  0  3.972674  0  0  -0.083309  0  3.994137  0  0  -0.079336  -0.081315  0  3.958096  0
C  C111  1  0.10911832  0.90011005  0.70835787  1  0  -0.06421  0  3.734382  0  0  -0.08229  0  3.972583  0  0  -0.08345  0  3.994042  0  0  -0.079456  -0.081456  0  3.95801  0
C  C112  1  0.77054776  0.03159451  0.97667588  1  0  -0.106942  0  3.760481  0  0  -0.066156  0  3.992151  0  0  -0.072723  0  4.020324  0  0  -0.031258  -0.061669  0  3.973181  0
C  C113  1  0.22944536  0.96840421  0.02332236  1  0  -0.107017  0  3.760425  0  0  -0.066158  0  3.992002  0  0  -0.072719  0  4.020162  0  0  -0.031285  -0.061666  0  3.97303  0
C  C114  1  0.77487348  0.92848447  0.88568192  1  0  -0.081421  0  3.773314  0  0  -0.095848  0  4.004985  0  0  -0.097382  0  4.027914  0  0  -0.089853  -0.094741  0  3.98979  0
C  C115  1  0.22512260  0.07151697  0.11431937  1  0  -0.081298  0  3.772995  0  0  -0.095739  0  4.004639  0  0  -0.097274  0  4.027564  0  0  -0.089745  -0.094633  0  3.989443  0
C  C116  1  0.87279374  0.15541521  0.89543034  1  0  -0.076116  0  3.779241  0  0  -0.0874  0  4.028963  0  0  -0.089904  0  4.050312  0  0  -0.090122  -0.085283  0  4.013352  0
C  C117  1  0.12720890  0.84458244  0.10456964  1  0  -0.076076  0  3.779302  0  0  -0.08736  0  4.029032  0  0  -0.089865  0  4.050375  0  0  -0.09013  -0.085242  0  4.013427  0
C  C118  1  0.82042488  0.14550796  0.98131869  1  0  -0.058232  0  3.741719  0  0  -0.078303  0  3.984374  0  0  -0.078596  0  4.005585  0  0  -0.083706  -0.078046  0  3.969683  0
C  C119  1  0.17957313  0.85449160  0.01868290  1  0  -0.058202  0  3.74164  0  0  -0.078293  0  3.984261  0  0  -0.078596  0  4.005491  0  0  -0.083706  -0.078037  0  3.969569  0
C  C120  1  0.87637987  0.05226377  0.80480511  1  0  -0.063706  0  3.747196  0  0  -0.079648  0  3.996498  0  0  -0.080952  0  4.017973  0  0  -0.085714  -0.078342  0  3.980959  0
C  C121  1  0.12361916  0.94773393  0.19519283  1  0  -0.063941  0  3.747344  0  0  -0.079905  0  3.996639  0  0  -0.081211  0  4.018114  0  0  -0.085801  -0.078603  0  3.981105  0
C  C122  1  0.82800128  0.93880879  0.80033319  1  0  -0.06936  0  3.76663  0  0  -0.078334  0  4.006537  0  0  -0.081547  0  4.029122  0  0  -0.090391  -0.076327  0  3.991367  0
C  C123  1  0.17199471  0.06118806  0.19966929  1  0  -0.06927  0  3.766561  0  0  -0.078211  0  4.006467  0  0  -0.081423  0  4.029056  0  0  -0.090372  -0.076204  0  3.991297  0
C  C124  1  0.55193691  0.04997200  0.05845571  1  0  -0.256886  0  3.683495  0  0  -0.281541  0  3.93371  0  0  -0.286063  0  3.947647  0  0  -0.167561  -0.278263  0  3.924316  0
C  C125  1  0.44806656  0.95003849  0.94154880  1  0  -0.257  0  3.683348  0  0  -0.281531  0  3.933537  0  0  -0.286056  0  3.947474  0  0  -0.167584  -0.278229  0  3.924122  0
C  C126  1  0.52526241  0.49111396  0.94800654  1  0  -0.254334  0  3.668716  0  0  -0.275715  0  3.915262  0  0  -0.280134  0  3.928094  0  0  -0.167467  -0.272553  0  3.906512  0
C  C127  1  0.47472593  0.50888852  0.05199174  1  0  -0.25453  0  3.668759  0  0  -0.275829  0  3.915088  0  0  -0.280222  0  3.927895  0  0  -0.16747  -0.272643  0  3.906319  0
S  S128  1  0.43828680  0.81485413  0.15819846  1  0  -0.341662  0  2.103259  0  0  -0.30458  0  2.454953  0  0  -0.323944  0  2.450536  0  0  -0.183338  -0.291731  0  2.457198  0
S  S129  1  0.56169970  0.18513092  0.84179331  1  0  -0.341579  0  2.103484  0  0  -0.304503  0  2.455183  0  0  -0.32387  0  2.450765  0  0  -0.183275  -0.291656  0  2.457424  0
S  S130  1  0.69697704  0.82983025  0.43419037  1  0  1.205019  0  5.373622  0  0  1.128208  0  5.877255  0  0  1.172567  0  5.86194  0  0  0.548556  1.097561  0  5.88707  0
S  S131  1  0.30301183  0.17014741  0.56580031  1  0  1.205117  0  5.373454  0  0  1.128327  0  5.877064  0  0  1.172692  0  5.86174  0  0  0.548549  1.097681  0  5.88688  0
N  N132  1  0.64345277  0.82361509  0.30447120  1  0  -0.559977  0  2.87541  0  0  -0.512011  0  3.166166  0  0  -0.533497  0  3.169021  0  0  -0.36311  -0.497456  0  3.163911  0
N  N133  1  0.35653988  0.17637170  0.69551989  1  0  -0.559999  0  2.875411  0  0  -0.512062  0  3.166191  0  0  -0.533549  0  3.169045  0  0  -0.363106  -0.49751  0  3.163937  0
O  O134  1  0.81344545  0.93936901  0.50990734  1  0  -0.595844  0  1.889979  0  0  -0.546662  0  2.117565  0  0  -0.568405  0  2.107349  0  0  -0.314443  -0.531286  0  2.124056  0
O  O135  1  0.18655933  0.06062951  0.49008798  1  0  -0.595732  0  1.890791  0  0  -0.546601  0  2.118444  0  0  -0.568341  0  2.108219  0  0  -0.314368  -0.531229  0  2.124941  0
O  O136  1  0.70742683  0.71482524  0.41697945  1  0  -0.595523  0  1.862022  0  0  -0.550923  0  2.07936  0  0  -0.572343  0  2.070046  0  0  -0.326121  -0.535789  0  2.085322  0
O  O137  1  0.29256552  0.28517810  0.58302434  1  0  -0.595742  0  1.861058  0  0  -0.551147  0  2.078383  0  0  -0.57257  0  2.069067  0  0  -0.326248  -0.536007  0  2.084342  0
