# generated using pymatgen
data_V4NiH4C4(NO5)2
_symmetry_space_group_name_H-M   'P 1'
_cell_length_a   6.81381789
_cell_length_b   7.89178086
_cell_length_c   11.60185338
_cell_angle_alpha   89.99945598
_cell_angle_beta   90.00086861
_cell_angle_gamma   115.56695854
_symmetry_Int_Tables_number   1
_chemical_formula_structural   V4NiH4C4(NO5)2
_chemical_formula_sum   'V8 Ni2 H8 C8 N4 O20'
_cell_volume   562.78007628
_cell_formula_units_Z   2
loop_
 _symmetry_equiv_pos_site_id
 _symmetry_equiv_pos_as_xyz
  1  'x, y, z'
loop_
 _atom_site_type_symbol
 _atom_site_label
 _atom_site_symmetry_multiplicity
 _atom_site_fract_x
 _atom_site_fract_y
 _atom_site_fract_z
 _atom_site_occupancy
 _atom_site_hle17_ddec_charge
 _atom_site_hle17_ddec_spin_density
 _atom_site_hle17_ddec_sum_bond_order
 _atom_site_hle17_magmom
 _atom_site_hse06_10hf_ddec_charge
 _atom_site_hse06_10hf_ddec_spin_density
 _atom_site_hse06_10hf_ddec_sum_bond_order
 _atom_site_hse06_10hf_magmom
 _atom_site_hse06_ddec_charge
 _atom_site_hse06_ddec_spin_density
 _atom_site_hse06_ddec_sum_bond_order
 _atom_site_hse06_magmom
 _atom_site_pbe_cm5_charge
 _atom_site_pbe_ddec_charge
 _atom_site_pbe_ddec_spin_density
 _atom_site_pbe_ddec_sum_bond_order
 _atom_site_pbe_magmom
V  V0  1  0.34742978  0.42022562  0.39527756  1  2.015416  0.542852  2.706229  0.648  2.088979  0.455455  3.067557  0.578  2.178755  0.5341  3.036256  0.666  1.41311  2.017279  0.343158  3.103383  0.439
V  V1  1  0.65256100  0.57975994  0.89527955  1  2.015433  -0.542923  2.706019  -0.648  2.089043  -0.455536  3.067364  -0.578  2.178642  -0.534519  3.03603  -0.667  1.413038  2.017153  -0.343256  3.103374  -0.439
V  V2  1  0.92735273  0.58014455  0.10468382  1  2.015797  0.548208  2.701773  0.655  2.090093  0.455586  3.062701  0.579  2.179309  0.534167  3.032134  0.667  1.412472  2.017042  0.349652  3.099339  0.447
V  V3  1  0.07265089  0.41985522  0.60468943  1  2.015771  -0.548162  2.701868  -0.655  2.089894  -0.455665  3.062831  -0.579  2.179227  -0.534471  3.032206  -0.667  1.412479  2.01708  -0.349692  3.099383  -0.447
V  V4  1  0.65256212  0.57975792  0.60472425  1  2.015496  -0.542808  2.706136  -0.648  2.088917  -0.455487  3.067589  -0.578  2.178755  -0.534169  3.03618  -0.666  1.413101  2.017234  -0.343171  3.103468  -0.438
V  V5  1  0.34743014  0.42022500  0.10471881  1  2.015406  0.542949  2.706099  0.648  2.089083  0.455469  3.067455  0.578  2.178717  0.534484  3.036062  0.666  1.413053  2.01716  0.343219  3.103435  0.439
V  V6  1  0.07264984  0.41985444  0.89531196  1  2.015828  -0.54815  2.701764  -0.655  2.090108  -0.455646  3.062686  -0.579  2.179321  -0.534236  3.032138  -0.667  1.412454  2.017076  -0.349725  3.099375  -0.447
V  V7  1  0.92735378  0.58014798  0.39531411  1  2.015728  0.548188  2.702032  0.655  2.089895  0.455649  3.062977  0.579  2.179235  0.534427  3.032327  0.667  1.412482  2.017053  0.349655  3.099506  0.447
Ni  Ni8  1  0.18678092  0.00015243  0.25000054  1  0.955647  2.0907  2.154252  1.376  1.03396  2.262491  2.511056  1.555  1.108927  2.487743  2.444989  1.674  0.663298  0.915689  1.771715  2.606118  1.237
Ni  Ni9  1  0.81321807  0.99984235  0.74999868  1  0.956266  -2.090973  2.15407  -1.376  1.034255  -2.2624  2.511064  -1.554  1.109157  -2.487655  2.445047  -1.674  0.663539  0.916192  -1.772144  2.606025  -1.234
H  H10  1  0.86934998  0.00009872  0.07023576  1  0.118652  0.001419  0.928645  0.002  0.125375  0.001226  0.988145  0.002  0.128963  0.000957  0.984413  0.001  0.134068  0.121867  0.00139  0.992235  0.002
H  H11  1  0.13065470  0.99991669  0.57023815  1  0.118617  -0.001415  0.928899  -0.002  0.125401  -0.001224  0.988353  -0.002  0.128989  -0.000955  0.984616  -0.001  0.134084  0.121893  -0.001389  0.992442  -0.002
H  H12  1  0.86934826  0.00009775  0.42976194  1  0.118601  0.001415  0.92893  0.002  0.125414  0.001224  0.988351  0.002  0.129004  0.000955  0.984615  0.001  0.13407  0.121906  0.001388  0.992444  0.002
H  H13  1  0.13065156  0.99991291  0.92976519  1  0.118645  -0.00142  0.928635  -0.002  0.125376  -0.001227  0.988134  -0.002  0.128963  -0.000957  0.984405  -0.001  0.134058  0.121868  -0.001392  0.99222  -0.002
H  H14  1  0.49719098  0.00002418  0.07324741  1  0.095761  0.000992  0.97418  0.002  0.105272  0.000805  1.032226  0.001  0.107827  0.00051  1.030218  0.001  0.128291  0.102626  0.001061  1.035759  0.002
H  H15  1  0.50282174  0.99999543  0.57324106  1  0.095543  -0.000997  0.974088  -0.002  0.105113  -0.000808  1.032111  -0.001  0.107666  -0.000512  1.030103  -0.001  0.128254  0.102462  -0.001067  1.035637  -0.002
H  H16  1  0.49718555  0.00002182  0.42675731  1  0.095649  0.000996  0.974059  0.002  0.105165  0.000807  1.032122  0.001  0.107721  0.000512  1.03011  0.001  0.128251  0.102509  0.001064  1.035659  0.002
H  H17  1  0.50281414  0.99999166  0.92675440  1  0.095765  -0.000992  0.974201  -0.002  0.105273  -0.000805  1.03225  -0.001  0.107824  -0.00051  1.030243  -0.001  0.128267  0.102623  -0.001063  1.035776  -0.002
C  C18  1  0.78776830  0.00010465  0.15076822  1  0.115976  -0.000914  3.596575  -0.001  0.092797  0.000664  3.847393  0.0  0.098813  5.9e-05  3.861631  0.0  0.077825  0.083604  0.000426  3.845253  0.0
C  C19  1  0.21224270  0.99990752  0.65075410  1  0.115888  0.000895  3.595863  0.001  0.092582  -0.000665  3.846789  0.0  0.098599  -6.2e-05  3.86102  0.0  0.077682  0.083389  -0.000428  3.844615  0.0
C  C20  1  0.78776254  0.00010271  0.34924340  1  0.115958  -0.000902  3.595967  -0.001  0.092618  0.000664  3.846861  0.0  0.098634  6.1e-05  3.861094  0.0  0.077703  0.083418  0.000424  3.844724  0.0
C  C21  1  0.21223478  0.99990418  0.84923101  1  0.115859  0.000898  3.596631  0.001  0.092672  -0.000664  3.847464  0.0  0.098675  -6.1e-05  3.861718  0.0  0.077813  0.083492  -0.00043  3.845279  0.0
C  C22  1  0.58396166  0.00004554  0.15143272  1  0.096317  -0.001827  3.617702  -0.002  0.069206  0.000236  3.867547  0.0  0.071752  -0.00036  3.8837  -0.001  0.071729  0.062147  1.1e-05  3.864534  0.0
C  C23  1  0.41604559  0.99997084  0.65144455  1  0.096686  0.001839  3.618726  0.002  0.069508  -0.000236  3.868629  0.0  0.072061  0.000363  3.884773  0.001  0.071896  0.062542  -1.6e-05  3.865437  0.0
C  C24  1  0.58395813  0.00004219  0.34855554  1  0.096446  -0.001834  3.618401  -0.002  0.069354  0.000235  3.868284  0.0  0.071909  -0.000361  3.884425  -0.001  0.071815  0.062359  1.2e-05  3.865173  0.0
C  C25  1  0.41604136  0.99996610  0.84857082  1  0.096383  0.001841  3.617613  0.002  0.069244  -0.000237  3.867458  0.0  0.07179  0.000363  3.883611  0.001  0.071787  0.062209  -1.5e-05  3.864381  0.0
N  N26  1  0.88955157  0.00015572  0.24999248  1  -0.237709  0.055668  3.274137  0.065  -0.203965  0.040285  3.550927  0.048  -0.226758  0.034345  3.569129  0.04  -0.299926  -0.184016  0.038511  3.541292  0.045
N  N27  1  0.11046108  0.99985170  0.75000934  1  -0.237575  -0.055678  3.273906  -0.065  -0.203831  -0.040296  3.55069  -0.048  -0.226611  -0.034353  3.568888  -0.04  -0.299917  -0.183894  -0.038533  3.541021  -0.045
N  N28  1  0.48217379  0.00003888  0.25000962  1  -0.213052  0.057565  3.308329  0.068  -0.175426  0.041644  3.579173  0.05  -0.195416  0.035457  3.597529  0.041  -0.305848  -0.157328  0.040277  3.569439  0.048
N  N29  1  0.51781831  0.99996854  0.74998788  1  -0.213329  -0.057588  3.308492  -0.068  -0.175628  -0.04165  3.579334  -0.05  -0.195608  -0.035466  3.597682  -0.041  -0.305959  -0.157543  -0.040296  3.569562  -0.048
O  O30  1  0.28767189  0.19642861  0.37774288  1  -0.800778  -0.036992  1.562722  -0.048  -0.843156  -0.006596  1.872351  -0.016  -0.887431  -0.025341  1.862863  -0.041  -0.582944  -0.798292  0.000443  1.883517  -0.005
O  O31  1  0.71233496  0.80357530  0.87772415  1  -0.80084  0.037008  1.562499  0.048  -0.84321  0.006627  1.872102  0.016  -0.887495  0.025386  1.862607  0.041  -0.58293  -0.798322  -0.00044  1.883304  0.005
O  O32  1  0.09123710  0.80396826  0.12213951  1  -0.80073  -0.038307  1.561762  -0.05  -0.843162  -0.006726  1.871418  -0.016  -0.887212  -0.025472  1.862007  -0.041  -0.583498  -0.798487  -1e-06  1.882669  -0.006
O  O33  1  0.90875856  0.19601176  0.62215230  1  -0.800858  0.038288  1.561723  0.05  -0.843277  0.00674  1.87143  0.016  -0.887376  0.02552  1.862017  0.041  -0.583553  -0.798688  -5e-06  1.882705  0.006
O  O34  1  0.71233438  0.80356897  0.62227444  1  -0.800834  0.036998  1.56258  0.048  -0.843195  0.006621  1.872257  0.016  -0.88749  0.025367  1.862754  0.041  -0.582974  -0.798362  -0.000446  1.883462  0.005
O  O35  1  0.28767264  0.19642790  0.12225870  1  -0.800833  -0.037007  1.56275  -0.048  -0.843222  -0.0066  1.872386  -0.016  -0.887527  -0.025363  1.862885  -0.041  -0.582969  -0.798304  0.000439  1.883558  -0.005
O  O36  1  0.90875640  0.19600966  0.87784851  1  -0.800886  0.038271  1.561643  0.05  -0.843321  0.006746  1.871322  0.016  -0.887365  0.025499  1.861902  0.041  -0.583545  -0.798681  -1e-06  1.882601  0.006
O  O37  1  0.09123928  0.80396897  0.37785814  1  -0.800739  -0.03829  1.561875  -0.05  -0.843157  -0.006724  1.871545  -0.016  -0.887267  -0.02548  1.86214  -0.041  -0.583522  -0.798529  1e-06  1.882795  -0.006
O  O38  1  0.64597662  0.55753873  0.42884895  1  -1.105935  -0.004679  1.740633  -0.02  -1.138045  0.010621  2.061934  -0.003  -1.192374  0.013083  2.060768  -0.002  -0.716373  -1.093336  0.006904  2.06244  -0.004
O  O39  1  0.35402044  0.44246350  0.92884399  1  -1.105901  0.004684  1.740763  0.02  -1.138024  -0.01062  2.062088  0.003  -1.192353  -0.01309  2.060913  0.002  -0.716353  -1.093264  -0.006902  2.062604  0.004
O  O40  1  0.08892824  0.44288192  0.07106606  1  -1.106077  -0.004267  1.739946  -0.02  -1.138105  0.01053  2.061284  -0.003  -1.192355  0.012998  2.060141  -0.002  -0.716497  -1.093266  0.006931  2.061747  -0.004
O  O41  1  0.91105961  0.55709978  0.57107051  1  -1.106024  0.004272  1.740018  0.02  -1.138021  -0.010527  2.061314  0.003  -1.192289  -0.012999  2.060181  0.002  -0.716468  -1.093223  -0.006932  2.061786  0.004
O  O42  1  0.35402148  0.44246307  0.57115545  1  -1.105932  0.004685  1.740782  0.02  -1.138035  -0.01062  2.062084  0.003  -1.192372  -0.013087  2.060918  0.002  -0.716389  -1.093321  -0.006903  2.062599  0.004
O  O43  1  0.64597830  0.55754251  0.07114920  1  -1.105952  -0.004679  1.740635  -0.02  -1.138065  0.010621  2.061946  -0.003  -1.192394  0.013079  2.060769  -0.002  -0.716385  -1.09331  0.006903  2.062452  -0.004
O  O44  1  0.91105576  0.55709460  0.92892885  1  -1.106048  0.004269  1.740032  0.02  -1.138074  -0.01053  2.061354  0.003  -1.192322  -0.012999  2.060226  0.002  -0.716458  -1.093233  -0.006933  2.061831  0.004
O  O45  1  0.08893006  0.44288516  0.42893302  1  -1.106005  -0.004269  1.739909  -0.02  -1.138035  0.010529  2.061219  -0.003  -1.192283  0.012997  2.060091  -0.002  -0.716464  -1.093244  0.006931  2.061682  -0.004
O  O46  1  0.36866243  0.50370663  0.24999887  1  -0.896722  -0.115728  1.544574  -0.164  -0.936231  -0.062522  1.847331  -0.109  -0.949229  -0.140016  1.829432  -0.209  -0.666836  -0.907868  -0.021865  1.85335  -0.051
O  O47  1  0.63132245  0.49626286  0.75000122  1  -0.896717  0.115755  1.544528  0.164  -0.936175  0.062536  1.847224  0.109  -0.949168  0.140053  1.829308  0.209  -0.66689  -0.907916  0.021877  1.853466  0.051
O  O48  1  0.86549449  0.49680287  0.24999939  1  -0.897022  -0.117031  1.543355  -0.166  -0.936611  -0.062612  1.845867  -0.109  -0.949265  -0.140225  1.828038  -0.209  -0.666956  -0.908701  -0.022691  1.852617  -0.052
O  O49  1  0.13451434  0.50321158  0.74999984  1  -0.897035  0.117036  1.543451  0.166  -0.936623  0.062613  1.845973  0.109  -0.949277  0.140235  1.828143  0.209  -0.666967  -0.908741  0.022695  1.852777  0.052
