# generated using pymatgen
data_ZnH12C20(NO2)2
_symmetry_space_group_name_H-M   'P 1'
_cell_length_a   13.21582396
_cell_length_b   13.19959514
_cell_length_c   14.01332294
_cell_angle_alpha   83.22146066
_cell_angle_beta   82.27679291
_cell_angle_gamma   84.04162394
_symmetry_Int_Tables_number   1
_chemical_formula_structural   ZnH12C20(NO2)2
_chemical_formula_sum   'Zn4 H48 C80 N8 O16'
_cell_volume   2395.79980395
_cell_formula_units_Z   4
loop_
 _symmetry_equiv_pos_site_id
 _symmetry_equiv_pos_as_xyz
  1  'x, y, z'
loop_
 _atom_site_type_symbol
 _atom_site_label
 _atom_site_symmetry_multiplicity
 _atom_site_fract_x
 _atom_site_fract_y
 _atom_site_fract_z
 _atom_site_occupancy
 _atom_site_pbe_bader_charge
 _atom_site_pbe_bader_spin_density
 _atom_site_pbe_cm5_charge
 _atom_site_pbe_ddec_charge
 _atom_site_pbe_ddec_spin_density
 _atom_site_pbe_ddec_sum_bond_order
 _atom_site_pbe_magmom
Zn  Zn0  1  0.36558148  0.16998630  0.79825816  1  1.285481  0  0.666832  0.821425  0  2.420703  0
Zn  Zn1  1  0.37417844  0.17523358  0.59310908  1  1.287085  0  0.671936  0.825397  0  2.385428  0
Zn  Zn2  1  0.63441627  0.83001585  0.20174193  1  1.285504  0  0.666828  0.821436  0  2.420705  0
Zn  Zn3  1  0.62581938  0.82476781  0.40689180  1  1.287102  0  0.671924  0.82534  0  2.385477  0
H  H4  1  0.34742661  0.49166209  0.81836818  1  0.08446  0  0.100962  0.10432  0  1.021564  0
H  H5  1  0.32778331  0.65602369  0.89607827  1  0.062884  0  0.099272  0.100381  0  0.998154  0
H  H6  1  0.33160477  0.84584666  0.87930858  1  0.0528  0  0.100842  0.10415  0  1.007686  0
H  H7  1  0.40010358  0.50053917  0.50884528  1  0.10306  0  0.101808  0.106178  0  1.018456  0
H  H8  1  0.41242819  0.68929848  0.49359454  1  0.122056  0  0.101851  0.114433  0  1.031147  0
H  H9  1  0.40150722  0.84981052  0.57047432  1  0.110199  0  0.105727  0.113791  0  1.041849  0
H  H10  1  0.05516512  0.17683954  0.57901390  1  0.096148  0  0.107273  0.1166  0  0.998567  0
H  H11  1  0.89751982  0.16459912  0.50252629  1  0.054237  0  0.107229  0.110485  0  0.982933  0
H  H12  1  0.70961986  0.15680104  0.51811137  1  0.093294  0  0.102917  0.104584  0  1.045928  0
H  H13  1  0.84484557  0.17781082  0.90273939  1  0.069046  0  0.100219  0.102277  0  0.995599  0
H  H14  1  0.03483717  0.18098495  0.88693908  1  0.121354  0  0.104848  0.110974  0  1.005266  0
H  H15  1  0.68606343  0.17273209  0.82503600  1  0.100308  0  0.101405  0.107764  0  1.010796  0
H  H16  1  0.23268800  0.27804584  0.94891890  1  0.138424  0  0.128292  0.105447  0  1.013395  0
H  H17  1  0.49868334  0.08452596  0.12816563  1  0.143295  0  0.110248  0.126391  0  1.042314  0
H  H18  1  0.49866053  0.08232101  0.94927769  1  0.107927  0  0.1216  0.092764  0  1.006436  0
H  H19  1  0.34346771  0.35490988  0.25300526  1  0.113218  0  0.114086  0.120679  0  0.996963  0
H  H20  1  0.35320621  0.33954109  0.43175860  1  0.136285  0  0.12489  0.102994  0  0.993552  0
H  H21  1  0.38701314  0.02255619  0.44978602  1  0.131017  0  0.124044  0.103149  0  1.004462  0
H  H22  1  0.38067391  0.02464776  0.27210482  1  0.071879  0  0.109235  0.118611  0  1.029288  0
H  H23  1  0.15674983  0.38613556  0.78486837  1  0.091646  0  0.104385  0.108361  0  1.015278  0
H  H24  1  0.99251998  0.40840993  0.71267229  1  0.082146  0  0.104078  0.104445  0  0.998873  0
H  H25  1  0.18509711  0.49787213  0.90743645  1  0.058203  0  0.101031  0.097074  0  1.004341  0
H  H26  1  0.04650134  0.63175154  0.96075415  1  0.098276  0  0.109586  0.11205  0  0.994731  0
H  H27  1  0.14425078  0.45627231  0.23546187  1  0.089053  0  0.107039  0.108757  0  1.012193  0
H  H28  1  0.65256829  0.50833776  0.18163110  1  0.084459  0  0.100985  0.104339  0  1.021594  0
H  H29  1  0.67221541  0.34397616  0.10392196  1  0.062896  0  0.099265  0.100351  0  0.998141  0
H  H30  1  0.66839547  0.15415320  0.12069289  1  0.052828  0  0.100857  0.104163  0  1.007668  0
H  H31  1  0.59990264  0.49946222  0.49115526  1  0.10315  0  0.1018  0.106179  0  1.01847  0
H  H32  1  0.58757573  0.31070291  0.50640629  1  0.122061  0  0.101868  0.114455  0  1.031096  0
H  H33  1  0.59849205  0.15019164  0.42952772  1  0.110148  0  0.105765  0.113807  0  1.041785  0
H  H34  1  0.94483366  0.82315955  0.42098712  1  0.096271  0  0.107282  0.11668  0  0.998517  0
H  H35  1  0.10247813  0.83540073  0.49747546  1  0.054193  0  0.107206  0.110452  0  0.982946  0
H  H36  1  0.29037976  0.84319728  0.48189034  1  0.093274  0  0.102926  0.104575  0  1.045891  0
H  H37  1  0.15515315  0.82218903  0.09726227  1  0.068988  0  0.100241  0.102305  0  0.995571  0
H  H38  1  0.96516237  0.81901414  0.11306184  1  0.121333  0  0.104847  0.110985  0  1.005261  0
H  H39  1  0.31393522  0.82726853  0.17496487  1  0.100341  0  0.101421  0.107801  0  1.010788  0
H  H40  1  0.76731224  0.72195402  0.05108256  1  0.138352  0  0.128277  0.105437  0  1.013427  0
H  H41  1  0.50131642  0.91547082  0.87183339  1  0.143398  0  0.110219  0.126328  0  1.042269  0
H  H42  1  0.50133909  0.91767731  0.05072117  1  0.107798  0  0.121556  0.092685  0  1.006407  0
H  H43  1  0.65652962  0.64508844  0.74699460  1  0.113241  0  0.114097  0.120697  0  0.996939  0
H  H44  1  0.64678959  0.66045723  0.56824216  1  0.136278  0  0.124895  0.103045  0  0.993516  0
H  H45  1  0.61298946  0.97744290  0.55021452  1  0.131065  0  0.124064  0.103179  0  1.004377  0
H  H46  1  0.61932730  0.97534980  0.72789678  1  0.071937  0  0.109242  0.118604  0  1.029339  0
H  H47  1  0.84325222  0.61386122  0.21512893  1  0.091472  0  0.104404  0.108418  0  1.015302  0
H  H48  1  0.00748332  0.59158991  0.28732307  1  0.082192  0  0.104078  0.10447  0  0.998882  0
H  H49  1  0.81490640  0.50212541  0.09255987  1  0.058199  0  0.101034  0.097081  0  1.004323  0
H  H50  1  0.95350286  0.36824677  0.03924128  1  0.101712  0  0.109544  0.112014  0  0.994742  0
H  H51  1  0.85575308  0.54372983  0.76453317  1  0.089086  0  0.107021  0.108743  0  1.012189  0
C  C52  1  0.36837610  0.37235625  0.67409061  1  1.547044  0  0.215518  0.590149  0  4.170708  0
C  C53  1  0.37199620  0.48601693  0.66529568  1  -0.048583  0  -0.020303  -0.032076  0  3.985549  0
C  C54  1  0.35919439  0.53638911  0.74792726  1  -0.000382  0  -0.082973  -0.144333  0  3.951971  0
C  C55  1  0.34387707  0.69860130  0.82483777  1  -0.094628  0  -0.095224  -0.139705  0  4.006424  0
C  C56  1  0.34619508  0.80335775  0.81600545  1  0.023822  0  -0.092111  -0.101495  0  4.013765  0
C  C57  1  0.38960944  0.54203088  0.57263038  1  -0.073161  0  -0.088453  -0.098586  0  3.991826  0
C  C58  1  0.39545887  0.64618979  0.56420165  1  -0.045043  0  -0.087559  -0.125214  0  3.963714  0
C  C59  1  0.36708829  0.85869016  0.72322110  1  -0.025956  0  -0.022699  -0.039296  0  3.988552  0
C  C60  1  0.38389314  0.80724149  0.64124988  1  -0.094842  0  -0.081551  -0.141721  0  3.930305  0
C  C61  1  0.36104262  0.64387001  0.74172957  1  0.001633  0  -0.007391  0.074538  0  4.009814  0
C  C62  1  0.38040892  0.69987308  0.64785604  1  -0.029465  0  -0.006209  0.076077  0  3.98788  0
C  C63  1  0.37222818  0.97228861  0.71356564  1  1.571062  0  0.213108  0.585328  0  4.177484  0
C  C64  1  0.16947494  0.18099449  0.72237945  1  1.549437  0  0.211146  0.58548  0  4.181692  0
C  C65  1  0.05532630  0.17961063  0.73128117  1  -0.006957  0  -0.018327  -0.030801  0  3.98205  0
C  C66  1  0.00828172  0.17678564  0.64928590  1  -0.044615  0  -0.076743  -0.136967  0  3.93299  0
C  C67  1  0.85136268  0.16639883  0.57315101  1  -0.03945  0  -0.086645  -0.124996  0  3.980749  0
C  C68  1  0.74695291  0.16228284  0.58160836  1  -0.040743  0  -0.090236  -0.103035  0  4.002187  0
C  C69  1  0.89092467  0.17744039  0.83193071  1  -0.128592  0  -0.090675  -0.135979  0  4.001755  0
C  C70  1  0.99567359  0.17947955  0.82358069  1  0.014544  0  -0.088295  -0.100879  0  4.003797  0
C  C71  1  0.68648512  0.16546308  0.67320986  1  -0.047529  0  -0.024223  -0.043669  0  4.000396  0
C  C72  1  0.73326627  0.17075633  0.75505757  1  -0.068755  0  -0.081991  -0.139389  0  3.940177  0
C  C73  1  0.90106380  0.17270123  0.65577559  1  -0.043009  0  -0.006123  0.074382  0  4.007185  0
C  C74  1  0.84062272  0.17381266  0.74898783  1  0.027245  0  -0.007825  0.074073  0  4.006696  0
C  C75  1  0.57227942  0.16358652  0.68177130  1  1.555467  0  0.209004  0.573505  0  4.192748  0
C  C76  1  0.29045996  0.23631792  0.99079239  1  0.549758  0  0.066035  0.041235  0  3.861921  0
C  C77  1  0.28584813  0.24589816  0.09005630  1  0.299284  0  0.099765  0.090775  0  4.012165  0
C  C78  1  0.36156862  0.19009373  0.14228775  1  0.066299  0  0.025349  0.051676  0  3.908258  0
C  C79  1  0.43819223  0.12868716  0.09108859  1  -0.05518  0  -0.078323  -0.170303  0  3.947186  0
C  C80  1  0.43836167  0.12582844  0.99241508  1  0.453498  0  0.052092  0.094738  0  3.922084  0
C  C81  1  0.36131738  0.19016595  0.24783463  1  0.029672  0  0.020837  0.120513  0  3.966569  0
C  C82  1  0.35267354  0.27992672  0.29388511  1  0.026402  0  -0.072801  -0.164537  0  3.945856  0
C  C83  1  0.35769767  0.27207537  0.39286636  1  0.448135  0  0.055883  0.102692  0  3.910654  0
C  C84  1  0.37700780  0.09441007  0.40361891  1  0.513956  0  0.060315  0.114401  0  3.892964  0
C  C85  1  0.37385701  0.09620383  0.30477182  1  -0.042813  0  -0.07644  -0.164336  0  3.912692  0
C  C86  1  0.05559274  0.40432269  0.13499756  1  0.329715  0  0.083427  0.152646  0  4.056403  0
C  C87  1  0.90269571  0.55448781  0.19334075  1  -0.032018  0  -0.071961  -0.04722  0  3.928089  0
C  C88  1  0.07164999  0.46709035  0.20530817  1  -0.036499  0  -0.08164  -0.136434  0  3.939177  0
C  C89  1  0.99535342  0.54184269  0.23382685  1  -0.004588  0  -0.085054  -0.073149  0  4.001218  0
C  C90  1  0.88667164  0.49172667  0.12418699  1  -0.074779  0  -0.089336  -0.081902  0  4.014975  0
C  C91  1  0.96280608  0.41697163  0.09455290  1  -0.02759  0  -0.073486  -0.125993  0  3.945484  0
C  C92  1  0.63162401  0.62764514  0.32590855  1  1.546894  0  0.215473  0.59006  0  4.170778  0
C  C93  1  0.62800225  0.51398598  0.33470209  1  -0.048434  0  -0.020263  -0.031945  0  3.985442  0
C  C94  1  0.64080343  0.46361227  0.25207219  1  -0.000484  0  -0.083041  -0.144424  0  3.952061  0
C  C95  1  0.65612158  0.30139932  0.17516309  1  -0.094518  0  -0.095145  -0.139559  0  4.006373  0
C  C96  1  0.65380509  0.19664287  0.18399665  1  0.023833  0  -0.092132  -0.101587  0  4.013829  0
C  C97  1  0.61039206  0.45797203  0.42736844  1  -0.073141  0  -0.088463  -0.098672  0  3.991872  0
C  C98  1  0.60454276  0.35381159  0.43579875  1  -0.045146  0  -0.087544  -0.125177  0  3.963617  0
C  C99  1  0.63290966  0.14130970  0.27678136  1  -0.026005  0  -0.022759  -0.03922  0  3.988414  0
C  C100  1  0.61610620  0.19275989  0.35875081  1  -0.094733  0  -0.081548  -0.141751  0  3.930253  0
C  C101  1  0.63895360  0.35613214  0.25827143  1  0.00187  0  -0.007421  0.074504  0  4.009817  0
C  C102  1  0.61958973  0.30012754  0.35214411  1  -0.029874  0  -0.006208  0.076065  0  3.987866  0
C  C103  1  0.62776970  0.02771201  0.28643674  1  1.570784  0  0.213197  0.585474  0  4.177309  0
C  C104  1  0.83052426  0.81900842  0.27762109  1  1.549434  0  0.211122  0.585411  0  4.181633  0
C  C105  1  0.94467228  0.82039076  0.26871961  1  -0.006718  0  -0.018358  -0.030847  0  3.98202  0
C  C106  1  0.99171609  0.82321575  0.35071569  1  -0.045035  0  -0.076666  -0.137022  0  3.933054  0
C  C107  1  0.14863590  0.83360256  0.42684977  1  -0.039451  0  -0.086632  -0.125003  0  3.980794  0
C  C108  1  0.25304587  0.83771625  0.41839266  1  -0.041315  0  -0.090224  -0.102995  0  4.002148  0
C  C109  1  0.10907391  0.82256100  0.16807007  1  -0.128543  0  -0.090722  -0.136033  0  4.001854  0
C  C110  1  0.00432589  0.82052030  0.17641944  1  0.014594  0  -0.088302  -0.100883  0  4.003833  0
C  C111  1  0.31351366  0.83453601  0.32679116  1  -0.046932  0  -0.024237  -0.043626  0  4.000298  0
C  C112  1  0.26673238  0.82924429  0.24494329  1  -0.068697  0  -0.082032  -0.139495  0  3.940166  0
C  C113  1  0.09893422  0.82729786  0.34422624  1  -0.043003  0  -0.006163  0.074415  0  4.007329  0
C  C114  1  0.15937510  0.82618872  0.25101376  1  0.027248  0  -0.007802  0.074103  0  4.006706  0
C  C115  1  0.42772007  0.83641334  0.31822955  1  1.555488  0  0.209027  0.573517  0  4.192582  0
C  C116  1  0.70954188  0.76368117  0.00920825  1  0.549785  0  0.066055  0.041201  0  3.862005  0
C  C117  1  0.71415378  0.75410016  0.90994370  1  0.299289  0  0.099691  0.090714  0  4.012144  0
C  C118  1  0.63843189  0.80990306  0.85771402  1  0.066388  0  0.0254  0.051693  0  3.908155  0
C  C119  1  0.56180822  0.87131039  0.90891168  1  -0.055263  0  -0.078311  -0.170222  0  3.947103  0
C  C120  1  0.56163871  0.87416988  0.00758511  1  0.453326  0  0.05214  0.094815  0  3.92209  0
C  C121  1  0.63868383  0.80983160  0.75216554  1  0.02951  0  0.020779  0.120415  0  3.966503  0
C  C122  1  0.64732385  0.72007084  0.70611555  1  0.026575  0  -0.07285  -0.16459  0  3.945808  0
C  C123  1  0.64230042  0.72792295  0.60713411  1  0.448129  0  0.055874  0.102636  0  3.910552  0
C  C124  1  0.62299258  0.90558825  0.59638200  1  0.513822  0  0.060253  0.114309  0  3.892839  0
C  C125  1  0.62614413  0.90379449  0.69522970  1  -0.042981  0  -0.076367  -0.164211  0  3.912527  0
C  C126  1  0.94440890  0.59567868  0.86499856  1  0.330107  0  0.083454  0.15259  0  4.0566  0
C  C127  1  0.09730981  0.44551280  0.80665568  1  -0.032344  0  -0.071977  -0.047178  0  3.927717  0
C  C128  1  0.92835387  0.53291178  0.79468544  1  -0.036491  0  -0.08168  -0.136485  0  3.939226  0
C  C129  1  0.00465065  0.45815716  0.76616985  1  -0.00458  0  -0.085039  -0.073076  0  4.001072  0
C  C130  1  0.11332999  0.50827472  0.87581270  1  -0.074738  0  -0.089316  -0.081911  0  4.014804  0
C  C131  1  0.03719619  0.58303128  0.90544154  1  -0.024495  0  -0.073481  -0.125919  0  3.94539  0
N  N132  1  0.36491293  0.17806064  0.94351827  1  -1.246186  0  -0.321606  -0.185771  0  3.545596  0
N  N133  1  0.21051681  0.31308194  0.13690796  1  -0.468213  0  -0.150727  -0.13451  0  3.293636  0
N  N134  1  0.12866914  0.32942233  0.09713683  1  -0.47795  0  -0.137519  -0.123091  0  3.293144  0
N  N135  1  0.36929167  0.18103883  0.44702186  1  -1.257767  0  -0.322323  -0.209299  0  3.517621  0
N  N136  1  0.63508738  0.82193845  0.05648184  1  -1.245828  0  -0.321589  -0.185738  0  3.54568  0
N  N137  1  0.78948594  0.68691562  0.86309202  1  -0.468401  0  -0.150661  -0.134336  0  3.293481  0
N  N138  1  0.87133485  0.67057829  0.90286122  1  -0.477781  0  -0.137548  -0.123198  0  3.293422  0
N  N139  1  0.63070712  0.81896026  0.55297916  1  -1.257614  0  -0.322296  -0.209229  0  3.517573  0
O  O140  1  0.35359852  0.32612494  0.75921521  1  -1.178617  0  -0.319663  -0.557424  0  2.352363  0
O  O141  1  0.38065250  0.32983125  0.59574274  1  -1.155531  0  -0.311931  -0.544979  0  2.353808  0
O  O142  1  0.21775926  0.18994592  0.63734149  1  -1.17187  0  -0.320305  -0.552434  0  2.324995  0
O  O143  1  0.20960559  0.17274078  0.80116697  1  -1.164806  0  -0.317447  -0.545211  0  2.327625  0
O  O144  1  0.53277311  0.15929011  0.60428329  1  -1.169904  0  -0.307819  -0.542938  0  2.34143  0
O  O145  1  0.52289050  0.16583540  0.76630080  1  -1.17472  0  -0.320226  -0.555242  0  2.348681  0
O  O146  1  0.37664608  0.01312872  0.79099698  1  -1.169318  0  -0.31682  -0.550676  0  2.330375  0
O  O147  1  0.37282110  0.01973384  0.62893718  1  -1.17401  0  -0.313107  -0.542161  0  2.349636  0
O  O148  1  0.64640242  0.67387568  0.24078322  1  -1.178532  0  -0.319655  -0.557406  0  2.352334  0
O  O149  1  0.61934615  0.67016937  0.40425741  1  -1.155525  0  -0.311907  -0.544947  0  2.353844  0
O  O150  1  0.78223835  0.81005776  0.36265702  1  -1.171864  0  -0.320279  -0.552358  0  2.325017  0
O  O151  1  0.79039425  0.82726366  0.19883189  1  -1.164821  0  -0.31744  -0.545185  0  2.32747  0
O  O152  1  0.46722540  0.84071204  0.39571670  1  -1.169932  0  -0.30784  -0.542923  0  2.341462  0
O  O153  1  0.47710856  0.83416063  0.23369982  1  -1.174733  0  -0.320232  -0.555266  0  2.34856  0
O  O154  1  0.62334875  0.98687190  0.20900579  1  -1.169304  0  -0.31695  -0.550854  0  2.330117  0
O  O155  1  0.62717748  0.98026755  0.37106575  1  -1.173778  0  -0.313053  -0.54216  0  2.349875  0
