# generated using pymatgen
data_AgH12C13S2NO3
_symmetry_space_group_name_H-M   'P 1'
_cell_length_a   5.17777564
_cell_length_b   15.04495015
_cell_length_c   17.83100000
_cell_angle_alpha   90.00000000
_cell_angle_beta   90.00000000
_cell_angle_gamma   93.08905509
_symmetry_Int_Tables_number   1
_chemical_formula_structural   AgH12C13S2NO3
_chemical_formula_sum   'Ag4 H48 C52 S8 N4 O12'
_cell_volume   1387.00550421
_cell_formula_units_Z   4
loop_
 _symmetry_equiv_pos_site_id
 _symmetry_equiv_pos_as_xyz
  1  'x, y, z'
loop_
 _atom_site_type_symbol
 _atom_site_label
 _atom_site_symmetry_multiplicity
 _atom_site_fract_x
 _atom_site_fract_y
 _atom_site_fract_z
 _atom_site_occupancy
 _atom_site_hle17_bader_spin_density
 _atom_site_hle17_ddec_charge
 _atom_site_hle17_ddec_spin_density
 _atom_site_hle17_ddec_sum_bond_order
 _atom_site_hle17_magmom
 _atom_site_hse06_10hf_bader_spin_density
 _atom_site_hse06_10hf_ddec_charge
 _atom_site_hse06_10hf_ddec_spin_density
 _atom_site_hse06_10hf_ddec_sum_bond_order
 _atom_site_hse06_10hf_magmom
 _atom_site_hse06_bader_spin_density
 _atom_site_hse06_ddec_charge
 _atom_site_hse06_ddec_spin_density
 _atom_site_hse06_ddec_sum_bond_order
 _atom_site_hse06_magmom
 _atom_site_pbe_bader_charge
 _atom_site_pbe_bader_spin_density
 _atom_site_pbe_cm5_charge
 _atom_site_pbe_ddec_charge
 _atom_site_pbe_ddec_spin_density
 _atom_site_pbe_ddec_sum_bond_order
 _atom_site_pbe_magmom
Ag  Ag0  1  0.82700945  0.14263378  0.73347933  1  0  0.406922  0  1.576542  0  0  0.299414  0  2.016296  0  0  0.319052  0  1.983943  0  0.501103  0  0.392836  0.285608  0  2.038572  0
Ag  Ag1  1  0.82701238  0.64263812  0.76652011  1  0  0.406865  0  1.576635  0  0  0.299354  0  2.016378  0  0  0.318986  0  1.984026  0  0.501083  0  0.392815  0.285558  0  2.038617  0
Ag  Ag2  1  0.17299130  0.85736159  0.26652179  1  0  0.406916  0  1.576583  0  0  0.29943  0  2.016326  0  0  0.318881  0  1.984051  0  0.50117  0  0.392839  0.285626  0  2.038605  0
Ag  Ag3  1  0.17299072  0.35735991  0.23347821  1  0  0.406884  0  1.576614  0  0  0.299379  0  2.016378  0  0  0.319011  0  1.984033  0  0.501162  0  0.392804  0.28558  0  2.038619  0
H  H4  1  0.45134198  0.94152803  0.69868712  1  0  0.136492  0  0.984043  0  0  0.142986  0  1.054408  0  0  0.146355  0  1.051261  0  0.203708  0  0.105526  0.140471  0  1.056766  0
H  H5  1  0.45134406  0.44153102  0.80130615  1  0  0.136487  0  0.98406  0  0  0.142973  0  1.0544  0  0  0.146337  0  1.051255  0  0.203972  0  0.105531  0.14046  0  1.056813  0
H  H6  1  0.54866059  0.05846667  0.30130783  1  0  0.136496  0  0.984128  0  0  0.142991  0  1.054474  0  0  0.146357  0  1.051322  0  0.204016  0  0.105528  0.14048  0  1.056821  0
H  H7  1  0.54866149  0.55847034  0.19869385  1  0  0.136469  0  0.984087  0  0  0.142953  0  1.054447  0  0  0.146252  0  1.051405  0  0.204007  0  0.105533  0.140436  0  1.056867  0
H  H8  1  0.17439526  0.96608823  0.64468622  1  0  0.138891  0  0.946305  0  0  0.15429  0  1.000756  0  0  0.156255  0  0.999715  0  0.163885  0  0.10932  0.152818  0  1.001588  0
H  H9  1  0.17440637  0.46608722  0.85531210  1  0  0.138899  0  0.946304  0  0  0.154267  0  1.000767  0  0  0.156228  0  0.999728  0  0.163973  0  0.109355  0.152791  0  1.001652  0
H  H10  1  0.82559839  0.03391113  0.35531322  1  0  0.138921  0  0.946244  0  0  0.154298  0  1.000718  0  0  0.15626  0  0.999678  0  0.163979  0  0.109341  0.152825  0  1.001551  0
H  H11  1  0.82560080  0.53391215  0.14468790  1  0  0.138885  0  0.946288  0  0  0.154254  0  1.00076  0  0  0.156168  0  0.999788  0  0.16396  0  0.109348  0.152778  0  1.001645  0
H  H12  1  0.26851520  0.18357409  0.84913297  1  0  0.116419  0  0.984655  0  0  0.123092  0  1.053225  0  0  0.126986  0  1.049974  0  0.146415  0  0.100977  0.120237  0  1.055654  0
H  H13  1  0.26849187  0.68357111  0.65085693  1  0  0.116478  0  0.984716  0  0  0.123076  0  1.053345  0  0  0.126967  0  1.050101  0  0.14652  0  0.100985  0.120228  0  1.055711  0
H  H14  1  0.73154432  0.81642660  0.15085469  1  0  0.116468  0  0.984674  0  0  0.123003  0  1.053389  0  0  0.126849  0  1.050222  0  0.146366  0  0.100962  0.120151  0  1.055821  0
H  H15  1  0.73147176  0.31642160  0.34914026  1  0  0.116465  0  0.984623  0  0  0.123075  0  1.053261  0  0  0.126967  0  1.050015  0  0.145605  0  0.10098  0.120228  0  1.055626  0
H  H16  1  0.60140983  0.21732547  0.94720655  1  0  0.094122  0  0.947789  0  0  0.107515  0  1.002259  0  0  0.109149  0  1.003364  0  0.084688  0  0.102832  0.106297  0  1.001667  0
H  H17  1  0.60141057  0.71731583  0.55278672  1  0  0.094224  0  0.947844  0  0  0.107599  0  1.002327  0  0  0.109239  0  1.003416  0  0.084698  0  0.102812  0.106381  0  1.001707  0
H  H18  1  0.39864421  0.78267722  0.05277999  1  0  0.094144  0  0.947756  0  0  0.107528  0  1.002232  0  0  0.109156  0  1.003348  0  0.084484  0  0.10277  0.106305  0  1.001637  0
H  H19  1  0.39857212  0.28268752  0.44722001  1  0  0.094228  0  0.947815  0  0  0.107604  0  1.002303  0  0  0.109243  0  1.003395  0  0.084778  0  0.102806  0.106392  0  1.001687  0
H  H20  1  0.89163687  0.10127211  0.98805732  1  0  0.079036  0  0.985156  0  0  0.090594  0  1.047716  0  0  0.092456  0  1.047991  0  0.071927  0  0.094869  0.089232  0  1.047645  0
H  H21  1  0.89163130  0.60125915  0.51194044  1  0  0.079132  0  0.985032  0  0  0.090674  0  1.047606  0  0  0.092542  0  1.047867  0  0.071537  0  0.094889  0.089308  0  1.047545  0
H  H22  1  0.10840537  0.89872925  0.01193091  1  0  0.079133  0  0.985023  0  0  0.09067  0  1.047607  0  0  0.092532  0  1.047869  0  0.071947  0  0.094865  0.089277  0  1.047577  0
H  H23  1  0.10838975  0.39875486  0.48807190  1  0  0.079047  0  0.984887  0  0  0.090573  0  1.0475  0  0  0.092446  0  1.047754  0  0.070764  0  0.094822  0.089193  0  1.047456  0
H  H24  1  0.85477867  0.95052552  0.93040996  1  0  0.080961  0  0.976359  0  0  0.093681  0  1.037302  0  0  0.095782  0  1.036815  0  0.051152  0  0.097378  0.092197  0  1.037694  0
H  H25  1  0.85477501  0.45051652  0.56959621  1  0  0.080902  0  0.976376  0  0  0.093598  0  1.037341  0  0  0.095701  0  1.036858  0  0.050949  0  0.097356  0.092113  0  1.037734  0
H  H26  1  0.14522208  0.04946985  0.06959172  1  0  0.08107  0  0.97632  0  0  0.093746  0  1.037299  0  0  0.095845  0  1.036816  0  0.051188  0  0.097412  0.092263  0  1.037687  0
H  H27  1  0.14525721  0.54949483  0.43041220  1  0  0.081082  0  0.976242  0  0  0.09367  0  1.037315  0  0  0.095771  0  1.036827  0  0.050784  0  0.097335  0.092184  0  1.037713  0
H  H28  1  0.52438929  0.91533302  0.83224384  1  0  0.111228  0  0.962543  0  0  0.122485  0  1.022064  0  0  0.124955  0  1.02161  0  0.110548  0  0.102578  0.12071  0  1.022384  0
H  H29  1  0.52437937  0.41533334  0.66776401  1  0  0.111178  0  0.962641  0  0  0.122431  0  1.022187  0  0  0.1249  0  1.021734  0  0.101995  0  0.102557  0.120655  0  1.022544  0
H  H30  1  0.47559110  0.08465569  0.16776569  1  0  0.111228  0  0.962558  0  0  0.122525  0  1.022056  0  0  0.124992  0  1.021604  0  0.101817  0  0.102619  0.120746  0  1.022377  0
H  H31  1  0.47563208  0.58466868  0.33223599  1  0  0.111187  0  0.962573  0  0  0.122465  0  1.0221  0  0  0.124908  0  1.021688  0  0.102293  0  0.102567  0.120681  0  1.022458  0
H  H32  1  0.33464484  0.24489370  0.69826314  1  0  0.116854  0  0.987519  0  0  0.120999  0  1.059722  0  0  0.125124  0  1.055657  0  0.139792  0  0.099775  0.117947  0  1.062813  0
H  H33  1  0.33463770  0.74489538  0.80173069  1  0  0.116721  0  0.987535  0  0  0.120874  0  1.059751  0  0  0.124997  0  1.055689  0  0.139698  0  0.099717  0.117822  0  1.062782  0
H  H34  1  0.66534922  0.75510832  0.30173630  1  0  0.116795  0  0.987554  0  0  0.12091  0  1.059785  0  0  0.124983  0  1.055803  0  0.139817  0  0.09976  0.117857  0  1.062873  0
H  H35  1  0.66532557  0.25510731  0.19826538  1  0  0.116805  0  0.987581  0  0  0.120966  0  1.059752  0  0  0.125086  0  1.055692  0  0.139677  0  0.099749  0.117916  0  1.062781  0
H  H36  1  0.98379998  0.33988015  0.65599349  1  0  0.09285  0  0.967335  0  0  0.09728  0  1.038327  0  0  0.099927  0  1.037837  0  0.097036  0  0.096819  0.095345  0  1.038838  0
H  H37  1  0.98379079  0.83988117  0.84400314  1  0  0.092916  0  0.967403  0  0  0.097341  0  1.038392  0  0  0.099989  0  1.037901  0  0.09675  0  0.096867  0.095412  0  1.038874  0
H  H38  1  0.01619216  0.66012187  0.34400538  1  0  0.092899  0  0.967288  0  0  0.097369  0  1.038244  0  0  0.100002  0  1.037779  0  0.097026  0  0.096873  0.095433  0  1.038757  0
H  H39  1  0.01617399  0.16011886  0.15599798  1  0  0.092845  0  0.967366  0  0  0.097344  0  1.038279  0  0  0.099992  0  1.037786  0  0.096931  0  0.096849  0.095415  0  1.038763  0
H  H40  1  0.73620139  0.30080497  0.53894622  1  0  0.086247  0  0.964424  0  0  0.097634  0  1.02667  0  0  0.099658  0  1.027011  0  0.094446  0  0.09879  0.096135  0  1.026516  0
H  H41  1  0.73619951  0.80080332  0.96104986  1  0  0.086212  0  0.964555  0  0  0.097617  0  1.026775  0  0  0.099643  0  1.027111  0  0.094529  0  0.098772  0.096143  0  1.026594  0
H  H42  1  0.26379858  0.69919772  0.46105042  1  0  0.086188  0  0.964539  0  0  0.097595  0  1.026748  0  0  0.099621  0  1.027087  0  0.094572  0  0.098763  0.09611  0  1.026577  0
H  H43  1  0.26378845  0.19919671  0.03895519  1  0  0.086238  0  0.964594  0  0  0.097646  0  1.026797  0  0  0.099671  0  1.027137  0  0.094604  0  0.098804  0.096178  0  1.026607  0
H  H44  1  0.85245183  0.16991112  0.46282934  1  0  0.105014  0  0.936364  0  0  0.114822  0  0.994386  0  0  0.118443  0  0.991973  0  0.061891  0  0.105726  0.112117  0  0.99631  0
H  H45  1  0.85247151  0.66991147  0.03716505  1  0  0.104883  0  0.936587  0  0  0.114817  0  0.994478  0  0  0.118425  0  0.992092  0  0.062062  0  0.105728  0.112108  0  0.996436  0
H  H46  1  0.14753827  0.83009024  0.53716729  1  0  0.105013  0  0.936434  0  0  0.114837  0  0.99444  0  0  0.11846  0  0.992023  0  0.061915  0  0.105738  0.112131  0  0.996364  0
H  H47  1  0.14754370  0.33008989  0.96283832  1  0  0.104947  0  0.936539  0  0  0.114828  0  0.994478  0  0  0.118449  0  0.992066  0  0.0621  0  0.105711  0.112118  0  0.996435  0
H  H48  1  0.19810144  0.07419712  0.50594695  1  0  0.108476  0  0.940626  0  0  0.117609  0  1.002312  0  0  0.120931  0  1.000495  0  0.119952  0  0.104128  0.115167  0  1.003698  0
H  H49  1  0.19812734  0.57420013  0.99404857  1  0  0.108446  0  0.940641  0  0  0.117641  0  1.002254  0  0  0.120954  0  1.000457  0  0.119966  0  0.104138  0.115198  0  1.003659  0
H  H50  1  0.80188093  0.92580424  0.49405361  1  0  0.108412  0  0.940612  0  0  0.11758  0  1.002279  0  0  0.120904  0  1.000461  0  0.119876  0  0.104124  0.115138  0  1.003664  0
H  H51  1  0.80188625  0.42580323  0.00595143  1  0  0.10843  0  0.940683  0  0  0.117636  0  1.00228  0  0  0.120961  0  1.000457  0  0.119951  0  0.104149  0.115194  0  1.003684  0
C  C52  1  0.31954901  0.99379558  0.68438786  1  0  -0.212218  0  3.599467  0  0  -0.241406  0  3.862566  0  0  -0.240929  0  3.870665  0  -0.284481  0  -0.14914  -0.241804  0  3.857089  0
C  C53  1  0.31955078  0.49379656  0.81560765  1  0  -0.212307  0  3.599647  0  0  -0.241431  0  3.86272  0  0  -0.240939  0  3.870795  0  -0.285056  0  -0.149227  -0.241832  0  3.857346  0
C  C54  1  0.68044850  0.00620378  0.31560597  1  0  -0.212324  0  3.599489  0  0  -0.241515  0  3.862647  0  0  -0.241027  0  3.870727  0  -0.285119  0  -0.14921  -0.241911  0  3.857172  0
C  C55  1  0.68044491  0.50620347  0.18439067  1  0  -0.212331  0  3.599621  0  0  -0.241398  0  3.862551  0  0  -0.240943  0  3.870741  0  -0.284791  0  -0.14923  -0.241802  0  3.857181  0
C  C56  1  0.37548485  0.04716207  0.83489877  1  0  0.014922  0  3.80065  0  0  0.041173  0  4.049496  0  0  0.040397  0  4.073652  0  -0.229647  0  -0.02259  0.041537  0  4.033046  0
C  C57  1  0.37547071  0.54716841  0.66510067  1  0  0.015024  0  3.800769  0  0  0.041287  0  4.04957  0  0  0.040522  0  4.073709  0  -0.229215  0  -0.022512  0.04165  0  4.033119  0
C  C58  1  0.62453672  0.95283064  0.16509842  1  0  0.014965  0  3.800454  0  0  0.041199  0  4.049303  0  0  0.040432  0  4.073428  0  -0.229916  0  -0.022532  0.041562  0  4.032856  0
C  C59  1  0.62452539  0.45283428  0.33490214  1  0  0.014896  0  3.800715  0  0  0.041191  0  4.049502  0  0  0.040418  0  4.073643  0  -0.229534  0  -0.022557  0.041555  0  4.033052  0
C  C60  1  0.39556212  0.13228837  0.86715159  1  0  -0.119958  0  3.738715  0  0  -0.141145  0  3.988587  0  0  -0.14256  0  4.007012  0  -0.037265  0  -0.097054  -0.140019  0  3.976153  0
C  C61  1  0.39555414  0.63228472  0.63284897  1  0  -0.120196  0  3.738891  0  0  -0.141334  0  3.988814  0  0  -0.142751  0  4.007238  0  -0.037427  0  -0.097167  -0.140207  0  3.976326  0
C  C62  1  0.60447157  0.86770767  0.13284617  1  0  -0.119928  0  3.738781  0  0  -0.141007  0  3.988696  0  0  -0.142448  0  4.007177  0  -0.036244  0  -0.097038  -0.139885  0  3.976265  0
C  C63  1  0.60442416  0.36771531  0.36715383  1  0  -0.119955  0  3.738715  0  0  -0.141101  0  3.98861  0  0  -0.142518  0  4.007037  0  -0.036237  0  -0.097094  -0.139974  0  3.976124  0
C  C64  1  0.58069874  0.15082184  0.92288318  1  0  -0.055848  0  3.752671  0  0  -0.068029  0  4.000983  0  0  -0.07025  0  4.022299  0  -0.044743  0  -0.091857  -0.066571  0  3.986589  0
C  C65  1  0.58069776  0.65081353  0.57710841  1  0  -0.055894  0  3.752379  0  0  -0.068059  0  4.000611  0  0  -0.070281  0  4.02193  0  -0.044391  0  -0.091781  -0.066581  0  3.986158  0
C  C66  1  0.41935102  0.84917819  0.07710560  1  0  -0.055835  0  3.752842  0  0  -0.068001  0  4.001076  0  0  -0.070242  0  4.022421  0  -0.045376  0  -0.091755  -0.06653  0  3.986662  0
C  C67  1  0.41930210  0.34918849  0.42289608  1  0  -0.056142  0  3.752464  0  0  -0.068324  0  4.000749  0  0  -0.070548  0  4.022069  0  -0.044526  0  -0.091865  -0.066853  0  3.986301  0
C  C68  1  0.74510318  0.08559691  0.94567719  1  0  -0.056523  0  3.753735  0  0  -0.071469  0  4.000007  0  0  -0.072587  0  4.021863  0  -0.027797  0  -0.090307  -0.070557  0  3.985077  0
C  C69  1  0.74510993  0.58558860  0.55432449  1  0  -0.056567  0  3.7536  0  0  -0.071481  0  3.999831  0  0  -0.072605  0  4.021692  0  -0.027577  0  -0.090265  -0.070567  0  3.984886  0
C  C70  1  0.25492471  0.91439913  0.05431720  1  0  -0.056803  0  3.754032  0  0  -0.071712  0  4.000261  0  0  -0.072829  0  4.022115  0  -0.023761  0  -0.09041  -0.070783  0  3.985338  0
C  C71  1  0.25491833  0.41442208  0.44568616  1  0  -0.056375  0  3.753391  0  0  -0.071256  0  3.999546  0  0  -0.07238  0  4.021407  0  -0.026708  0  -0.090139  -0.070333  0  3.984613  0
C  C72  1  0.72428105  0.00110363  0.91321182  1  0  -0.069101  0  3.786327  0  0  -0.080446  0  4.033154  0  0  -0.083188  0  4.055504  0  -0.08897  0  -0.095603  -0.078561  0  4.017874  0
C  C73  1  0.72427672  0.50109866  0.58679323  1  0  -0.068933  0  3.786269  0  0  -0.080253  0  4.03308  0  0  -0.082999  0  4.055439  0  -0.089254  0  -0.095559  -0.078368  0  4.0178  0
C  C74  1  0.27571897  0.99888707  0.08678930  1  0  -0.069086  0  3.786247  0  0  -0.080384  0  4.033068  0  0  -0.083121  0  4.055408  0  -0.09272  0  -0.095549  -0.078498  0  4.017783  0
C  C75  1  0.27573363  0.49890869  0.41321182  1  0  -0.068987  0  3.786343  0  0  -0.08024  0  4.033165  0  0  -0.08298  0  4.055509  0  -0.090154  0  -0.095539  -0.078355  0  4.017879  0
C  C76  1  0.53887935  0.98102124  0.85823566  1  0  -0.11665  0  3.753361  0  0  -0.138268  0  3.999944  0  0  -0.14036  0  4.021468  0  0.003441  0  -0.096269  -0.136585  0  3.985201  0
C  C77  1  0.53886666  0.48101624  0.64176883  1  0  -0.116737  0  3.753327  0  0  -0.138374  0  3.999916  0  0  -0.140467  0  4.021435  0  0.01206  0  -0.096331  -0.136696  0  3.985195  0
C  C78  1  0.46111143  0.01897213  0.14177051  1  0  -0.116744  0  3.753115  0  0  -0.138407  0  3.999708  0  0  -0.140501  0  4.021221  0  0.012069  0  -0.096365  -0.13672  0  3.984964  0
C  C79  1  0.46113492  0.51898446  0.35823397  1  0  -0.1168  0  3.753499  0  0  -0.13846  0  4.000042  0  0  -0.140557  0  4.021575  0  0.01266  0  -0.09635  -0.136771  0  3.985311  0
C  C80  1  0.28065532  0.15220637  0.60615109  1  0  0.020189  0  3.792677  0  0  0.04321  0  4.041448  0  0  0.041763  0  4.067995  0  -0.186349  0  -0.021138  0.04401  0  4.023299  0
C  C81  1  0.28066118  0.65220472  0.89384723  1  0  0.020342  0  3.792744  0  0  0.043353  0  4.041545  0  0  0.041909  0  4.068079  0  -0.187025  0  -0.021055  0.044149  0  4.023401  0
C  C82  1  0.71932877  0.84779365  0.39385284  1  0  0.020191  0  3.793077  0  0  0.043246  0  4.041761  0  0  0.041801  0  4.06829  0  -0.18657  0  -0.021116  0.044043  0  4.023619  0
C  C83  1  0.71932078  0.34779397  0.10615109  1  0  0.020291  0  3.792653  0  0  0.043299  0  4.041454  0  0  0.041855  0  4.067987  0  -0.187051  0  -0.021057  0.044095  0  4.023311  0
C  C84  1  0.22327787  0.22762162  0.64800516  1  0  -0.135381  0  3.774614  0  0  -0.148215  0  4.016626  0  0  -0.150031  0  4.035196  0  -0.043251  0  -0.107656  -0.146894  0  4.004138  0
C  C85  1  0.22327396  0.72761931  0.85198867  1  0  -0.135304  0  3.774395  0  0  -0.148139  0  4.016409  0  0  -0.149957  0  4.03498  0  -0.042656  0  -0.107656  -0.146816  0  4.003877  0
C  C86  1  0.77672017  0.77238107  0.35199708  1  0  -0.135284  0  3.774577  0  0  -0.148124  0  4.016664  0  0  -0.149958  0  4.035279  0  -0.043122  0  -0.107643  -0.146802  0  4.004173  0
C  C87  1  0.77670262  0.27238205  0.14801077  1  0  -0.135382  0  3.77464  0  0  -0.148238  0  4.016713  0  0  -0.150054  0  4.035286  0  -0.042676  0  -0.107701  -0.146916  0  4.00418  0
C  C88  1  0.02768904  0.28140550  0.62319556  1  0  -0.068223  0  3.753849  0  0  -0.076982  0  4.001666  0  0  -0.078859  0  4.020931  0  -0.133974  0  -0.09902  -0.075773  0  3.988781  0
C  C89  1  0.02769144  0.78140651  0.87679939  1  0  -0.068142  0  3.753801  0  0  -0.076892  0  4.001641  0  0  -0.078767  0  4.020901  0  -0.133788  0  -0.099009  -0.07568  0  3.988726  0
C  C90  1  0.97230675  0.71859520  0.37680332  1  0  -0.068251  0  3.753845  0  0  -0.077055  0  4.001665  0  0  -0.078946  0  4.020945  0  -0.134038  0  -0.099061  -0.075848  0  3.988788  0
C  C91  1  0.97228300  0.21859352  0.12319892  1  0  -0.068108  0  3.754029  0  0  -0.076918  0  4.001844  0  0  -0.078797  0  4.021111  0  -0.134112  0  -0.098944  -0.075707  0  3.988933  0
C  C92  1  0.89102490  0.25967162  0.55753351  1  0  -0.072963  0  3.754813  0  0  -0.087342  0  4.003251  0  0  -0.088764  0  4.024042  0  -0.036508  0  -0.092034  -0.086248  0  3.989126  0
C  C93  1  0.89103106  0.75967197  0.94245976  1  0  -0.073159  0  3.754921  0  0  -0.087568  0  4.003419  0  0  -0.088991  0  4.024203  0  -0.036386  0  -0.092119  -0.086493  0  3.989282  0
C  C94  1  0.10895596  0.74033240  0.44246313  1  0  -0.072986  0  3.755051  0  0  -0.087355  0  4.003493  0  0  -0.088778  0  4.024281  0  -0.036291  0  -0.092012  -0.086272  0  3.98936  0
C  C95  1  0.10895872  0.24032740  0.05754192  1  0  -0.073035  0  3.755125  0  0  -0.087428  0  4.00359  0  0  -0.088849  0  4.024377  0  -0.036279  0  -0.092112  -0.086361  0  3.989449  0
C  C96  1  0.95273988  0.18545120  0.51530929  1  0  -0.053427  0  3.745519  0  0  -0.069394  0  4.002726  0  0  -0.070972  0  4.022344  0  -0.001595  0  -0.087249  -0.068381  0  3.98946  0
C  C97  1  0.95274066  0.68545421  0.98468622  1  0  -0.053151  0  3.74548  0  0  -0.069218  0  4.002695  0  0  -0.070816  0  4.022353  0  -0.000967  0  -0.0872  -0.06821  0  3.989476  0
C  C98  1  0.04725378  0.81454816  0.48469127  1  0  -0.053323  0  3.745316  0  0  -0.06932  0  4.002541  0  0  -0.070899  0  4.022156  0  -0.00176  0  -0.087242  -0.068308  0  3.989279  0
C  C99  1  0.04725779  0.31455114  0.01531658  1  0  -0.053262  0  3.745481  0  0  -0.069288  0  4.002716  0  0  -0.070866  0  4.022334  0  -0.000789  0  -0.087172  -0.068281  0  3.989498  0
C  C100  1  0.14814405  0.13155416  0.53930683  1  0  -0.099859  0  3.728257  0  0  -0.123024  0  3.979914  0  0  -0.124716  0  4.000392  0  -0.053487  0  -0.088382  -0.121754  0  3.965994  0
C  C101  1  0.14815053  0.63155651  0.96068981  1  0  -0.099977  0  3.728409  0  0  -0.123204  0  3.98011  0  0  -0.124913  0  4.000624  0  -0.054189  0  -0.088419  -0.121935  0  3.966215  0
C  C102  1  0.85183770  0.86844320  0.46068869  1  0  -0.09991  0  3.72854  0  0  -0.123106  0  3.980177  0  0  -0.1248  0  4.000656  0  -0.053382  0  -0.088426  -0.121836  0  3.966255  0
C  C103  1  0.85184526  0.36844419  0.03930907  1  0  -0.099955  0  3.728457  0  0  -0.123191  0  3.980167  0  0  -0.124887  0  4.000642  0  -0.054311  0  -0.088485  -0.121922  0  3.966271  0
S  S104  1  0.13308397  0.01989404  0.76674612  1  0  0.027956  0  2.704406  0  0  0.047975  0  3.102802  0  0  0.042303  0  3.101138  0  0.069419  0  0.006705  0.051756  0  3.104511  0
S  S105  1  0.13308048  0.51989439  0.73325613  1  0  0.028068  0  2.704431  0  0  0.048064  0  3.102796  0  0  0.042385  0  3.101122  0  0.069252  0  0.006737  0.051824  0  3.104546  0
S  S106  1  0.86691036  0.98009733  0.23325669  1  0  0.028081  0  2.704498  0  0  0.048099  0  3.102916  0  0  0.042419  0  3.101257  0  0.069281  0  0.006736  0.051875  0  3.104632  0
S  S107  1  0.86691202  0.48009765  0.26674443  1  0  0.028047  0  2.7044  0  0  0.048022  0  3.10275  0  0  0.042323  0  3.101115  0  0.069103  0  0.006747  0.05179  0  3.104488  0
S  S108  1  0.51924055  0.07991565  0.63755033  1  0  0.029534  0  2.742405  0  0  0.049216  0  3.147359  0  0  0.044513  0  3.14412  0  0.079086  0  0.001487  0.05276  0  3.149216  0
S  S109  1  0.51924917  0.57991933  0.86244574  1  0  0.029511  0  2.742461  0  0  0.049168  0  3.147405  0  0  0.04446  0  3.14416  0  0.079242  0  0.001478  0.052709  0  3.149283  0
S  S110  1  0.48074355  0.92008438  0.36245023  1  0  0.029501  0  2.742285  0  0  0.049167  0  3.147218  0  0  0.044458  0  3.143987  0  0.079132  0  0.001485  0.05271  0  3.149076  0
S  S111  1  0.48074370  0.42008736  0.13755202  1  0  0.029581  0  2.742405  0  0  0.049232  0  3.147344  0  0  0.044502  0  3.144134  0  0.079165  0  0.001512  0.052774  0  3.149223  0
N  N112  1  0.79130752  0.32223864  0.81420504  1  0  0.690151  0  4.136438  0  0  0.714331  0  4.439925  0  0  0.743276  0  4.446311  0  0.819706  0  0.09541  0.694895  0  4.434929  0
N  N113  1  0.79129072  0.82224032  0.68579552  1  0  0.689972  0  4.136518  0  0  0.713917  0  4.440346  0  0  0.742855  0  4.446754  0  0.820585  0  0.095358  0.708941  0  4.415145  0
N  N114  1  0.20871713  0.67776139  0.18579665  1  0  0.689946  0  4.136653  0  0  0.713832  0  4.440563  0  0  0.740473  0  4.447383  0  0.82057  0  0.095313  0.6944  0  4.435558  0
N  N115  1  0.20869317  0.17775838  0.31420560  1  0  0.689885  0  4.136411  0  0  0.714046  0  4.439927  0  0  0.742979  0  4.446335  0  0.819835  0  0.095307  0.708881  0  4.415022  0
O  O116  1  0.60723705  0.31744602  0.76751108  1  0  -0.473033  0  1.798268  0  0  -0.453555  0  2.021874  0  0  -0.469543  0  2.015343  0  -0.553273  0  -0.188988  -0.442329  0  2.026163  0
O  O117  1  0.60724181  0.81744970  0.73249621  1  0  -0.47299  0  1.798397  0  0  -0.453481  0  2.022155  0  0  -0.46946  0  2.015617  0  -0.553427  0  -0.189028  -0.447129  0  2.020644  0
O  O118  1  0.39276991  0.68255201  0.23249565  1  0  -0.472988  0  1.798535  0  0  -0.4534  0  2.022228  0  0  -0.468394  0  2.015726  0  -0.553544  0  -0.188993  -0.442168  0  2.026506  0
O  O119  1  0.39274339  0.18254501  0.26750603  1  0  -0.472882  0  1.798208  0  0  -0.453482  0  2.021902  0  0  -0.469441  0  2.015344  0  -0.553224  0  -0.188994  -0.447073  0  2.02048  0
O  O120  1  0.95492736  0.26098227  0.81480455  1  0  -0.471036  0  1.85329  0  0  -0.439316  0  2.10177  0  0  -0.45925  0  2.094697  0  -0.575794  0  -0.207115  -0.425112  0  2.106118  0
O  O121  1  0.95491442  0.76098395  0.68519096  1  0  -0.470939  0  1.853102  0  0  -0.439067  0  2.101599  0  0  -0.458993  0  2.094529  0  -0.576414  0  -0.207024  -0.429653  0  2.100436  0
O  O122  1  0.04509557  0.73901909  0.18519320  1  0  -0.470917  0  1.853139  0  0  -0.43908  0  2.101735  0  0  -0.458054  0  2.094666  0  -0.576391  0  -0.207033  -0.424883  0  2.106083  0
O  O123  1  0.04508361  0.23901874  0.31481016  1  0  -0.470987  0  1.853305  0  0  -0.439216  0  2.101745  0  0  -0.459148  0  2.094678  0  -0.575885  0  -0.207078  -0.429739  0  2.100659  0
O  O124  1  0.81629376  0.38559179  0.86008300  1  0  -0.452083  0  1.770742  0  0  -0.439721  0  1.986508  0  0  -0.45533  0  1.982105  0  -0.520988  0  -0.180757  -0.428609  0  1.989228  0
O  O125  1  0.81625164  0.88559214  0.63991756  1  0  -0.451976  0  1.770845  0  0  -0.439586  0  1.986786  0  0  -0.455197  0  1.982396  0  -0.521147  0  -0.180759  -0.433361  0  1.98365  0
O  O126  1  0.18374848  0.61440957  0.13991868  1  0  -0.45198  0  1.770797  0  0  -0.43958  0  1.986789  0  0  -0.454168  0  1.982378  0  -0.521037  0  -0.180748  -0.428468  0  1.989503  0
O  O127  1  0.18371090  0.11440589  0.36008356  1  0  -0.451973  0  1.770761  0  0  -0.439574  0  1.986506  0  0  -0.455186  0  1.982115  0  -0.52108  0  -0.18068  -0.433283  0  1.983457  0
