# generated using pymatgen
data_MnH2(CO2)2
_symmetry_space_group_name_H-M   'P 1'
_cell_length_a   8.40769107
_cell_length_b   11.54591996
_cell_length_c   12.91644854
_cell_angle_alpha   89.98396994
_cell_angle_beta   89.99683422
_cell_angle_gamma   90.00135866
_symmetry_Int_Tables_number   1
_chemical_formula_structural   MnH2(CO2)2
_chemical_formula_sum   'Mn12 H24 C24 O48'
_cell_volume   1253.85809638
_cell_formula_units_Z   12
loop_
 _symmetry_equiv_pos_site_id
 _symmetry_equiv_pos_as_xyz
  1  'x, y, z'
loop_
 _atom_site_type_symbol
 _atom_site_label
 _atom_site_symmetry_multiplicity
 _atom_site_fract_x
 _atom_site_fract_y
 _atom_site_fract_z
 _atom_site_occupancy
 _atom_site_hle17_ddec_charge
 _atom_site_hle17_ddec_spin_density
 _atom_site_hle17_ddec_sum_bond_order
 _atom_site_hle17_magmom
 _atom_site_hse06_10hf_ddec_charge
 _atom_site_hse06_10hf_ddec_spin_density
 _atom_site_hse06_10hf_ddec_sum_bond_order
 _atom_site_hse06_10hf_magmom
 _atom_site_hse06_ddec_charge
 _atom_site_hse06_ddec_spin_density
 _atom_site_hse06_ddec_sum_bond_order
 _atom_site_hse06_magmom
 _atom_site_pbe_cm5_charge
 _atom_site_pbe_ddec_charge
 _atom_site_pbe_ddec_spin_density
 _atom_site_pbe_ddec_sum_bond_order
 _atom_site_pbe_magmom
Mn  Mn0  1  0.13630368  0.21813964  0.53460780  1  1.19897  -4.776064  1.793848  -4.684  1.047764  -4.698567  2.286465  -4.548  1.105634  -4.741746  2.216995  -4.608  0.605714  1.002759  -4.653182  2.337146  -4.489
Mn  Mn1  1  0.86302775  0.71867221  0.46527511  1  1.199558  -4.776179  1.790931  -4.683  1.047624  -4.696929  2.283903  -4.547  1.105652  -4.741265  2.214413  -4.607  0.605607  1.00236  -4.649558  2.334742  -4.485
Mn  Mn2  1  0.36321229  0.21862738  0.03497559  1  1.199765  -4.776673  1.790073  -4.684  1.048197  -4.698965  2.282993  -4.549  1.106105  -4.742381  2.213449  -4.608  0.606279  1.003245  -4.653106  2.333654  -4.489
Mn  Mn3  1  0.63587411  0.71849190  0.96515349  1  1.199263  -4.777846  1.789168  -4.684  1.04788  -4.699682  2.281448  -4.548  1.10609  -4.743471  2.211884  -4.608  0.605252  1.002204  -4.653199  2.332491  -4.488
Mn  Mn4  1  0.87495356  0.35027408  0.69693440  1  1.209915  -4.804305  1.747914  -4.691  1.054095  -4.729612  2.238177  -4.558  1.113396  -4.769215  2.167891  -4.614  0.604299  1.008121  -4.689817  2.289188  -4.504
Mn  Mn5  1  0.12571415  0.84974069  0.30311980  1  1.20837  -4.804486  1.748768  -4.69  1.052631  -4.727278  2.238892  -4.555  1.112152  -4.768829  2.168391  -4.613  0.603856  1.006303  -4.683939  2.290356  -4.498
Mn  Mn6  1  0.62584564  0.34988553  0.19674805  1  1.208014  -4.803292  1.749615  -4.69  1.052376  -4.725638  2.239782  -4.555  1.111895  -4.767201  2.16925  -4.613  0.603859  1.006077  -4.682321  2.291278  -4.498
Mn  Mn7  1  0.37453780  0.85005648  0.80335262  1  1.2081  4.792292  1.750233  4.687  1.052415  4.705131  2.241229  4.549  1.112311  4.756556  2.170225  4.609  0.603673  1.005339  4.649182  2.293585  4.485
Mn  Mn8  1  0.50168658  0.27947190  0.62363267  1  1.242501  -4.801998  1.690114  -4.702  1.080827  -4.730064  2.184618  -4.571  1.14279  -4.766223  2.109418  -4.624  0.60184  1.03249  -4.694323  2.239352  -4.521
Mn  Mn9  1  0.49810825  0.77946096  0.37663980  1  1.242138  4.791523  1.689869  4.699  1.079796  4.706571  2.185803  4.564  1.142558  4.75383  2.109852  4.62  0.60085  1.029595  4.656128  2.242246  4.506
Mn  Mn10  1  0.99820669  0.27962173  0.12345601  1  1.241848  4.790797  1.690651  4.699  1.079752  4.706208  2.186621  4.563  1.142503  4.753602  2.110646  4.62  0.6008  1.029498  4.655382  2.243154  4.505
Mn  Mn11  1  0.00232559  0.77964814  0.87624969  1  1.24225  -4.800265  1.688369  -4.701  1.080328  -4.726801  2.183296  -4.568  1.142683  -4.764751  2.10787  -4.622  0.601402  1.031178  -4.687864  2.2386  -4.515
H  H12  1  0.15140983  0.05677131  0.73341930  1  0.018668  -0.000259  0.90553  -0.001  0.028815  -0.00036  0.972474  -0.001  0.029251  -0.000159  0.967719  -0.001  0.123376  0.028316  -0.000577  0.976188  -0.001
H  H13  1  0.84809006  0.55623508  0.26754407  1  0.019031  0.001167  0.904949  0.001  0.029037  0.000951  0.972065  0.001  0.029476  0.000898  0.967348  0.001  0.123531  0.028572  0.001013  0.975707  0.001
H  H14  1  0.34805928  0.05608972  0.23259162  1  0.018843  0.001166  0.905036  0.001  0.028948  0.000948  0.971961  0.001  0.029368  0.000893  0.967245  0.001  0.123549  0.028508  0.001001  0.975599  0.001
H  H15  1  0.65177249  0.55643527  0.76738236  1  0.018847  -0.000394  0.905239  -0.001  0.028994  -0.001242  0.972124  -0.001  0.029445  -0.000697  0.967373  -0.001  0.123394  0.028513  -0.001812  0.975815  -0.001
H  H16  1  0.79993313  0.28821032  0.41633546  1  0.022358  0.002083  0.957614  0.001  0.029675  0.002271  1.028331  0.001  0.029847  0.002172  1.024303  0.001  0.121559  0.029456  0.002327  1.03143  0.001
H  H17  1  0.20004756  0.78859130  0.58325191  1  0.021878  -0.001182  0.957798  -0.001  0.029931  -0.001723  1.027741  -0.001  0.030082  -0.00133  1.023735  -0.001  0.12166  0.029749  -0.002132  1.030776  -0.001
H  H18  1  0.69977154  0.28840175  0.91671628  1  0.021367  -0.000157  0.957165  -0.001  0.029268  -0.00062  1.02737  -0.001  0.029441  -0.00019  1.023338  -0.001  0.121491  0.029048  -0.001074  1.030412  -0.001
H  H19  1  0.29986063  0.78826983  0.08365306  1  0.021647  0.001402  0.958225  0.001  0.029503  0.001475  1.028506  0.001  0.029685  0.001368  1.024438  0.001  0.121488  0.029315  0.001552  1.03156  0.001
H  H20  1  0.16718313  0.52967445  0.69440228  1  0.027754  -0.001145  0.917893  -0.002  0.037583  -0.001926  0.982553  -0.002  0.037402  -0.00127  0.978635  -0.001  0.121198  0.037603  -0.002637  0.985661  -0.002
H  H21  1  0.83295941  0.02977203  0.30576418  1  0.028143  0.000514  0.917391  0.0  0.037939  0.000393  0.982224  0.0  0.037788  0.000469  0.978255  0.0  0.121209  0.037938  0.000269  0.985415  0.0
H  H22  1  0.33309879  0.52983521  0.19423623  1  0.028066  0.000514  0.917427  0.0  0.037795  0.00038  0.982277  0.0  0.037676  0.000461  0.978276  0.0  0.121027  0.03772  0.000269  0.985545  0.0
H  H23  1  0.66708185  0.02934902  0.80473799  1  0.027665  -0.002083  0.917567  -0.002  0.037457  -0.002715  0.982416  -0.002  0.037269  -0.002118  0.978492  -0.002  0.121162  0.0375  -0.003332  0.985518  -0.002
H  H24  1  0.41175772  0.01933814  0.50922144  1  0.031901  -0.000287  0.918227  -0.001  0.039962  -0.000739  0.986945  -0.001  0.040762  -0.000388  0.982056  -0.001  0.125568  0.03931  -0.001122  0.990654  -0.001
H  H25  1  0.58858311  0.51935901  0.49099562  1  0.031149  -0.000479  0.918302  -0.001  0.039647  -0.001222  0.986615  -0.001  0.040415  -0.000771  0.981767  -0.001  0.1252  0.038944  -0.001696  0.990361  -0.001
H  H26  1  0.08819895  0.01955785  0.00870422  1  0.031755  0.000729  0.917883  0.001  0.04034  0.000652  0.985992  0.001  0.041142  0.000608  0.98108  0.001  0.125814  0.039675  0.000647  0.989797  0.001
H  H27  1  0.91181008  0.51961924  0.99072387  1  0.031613  -0.000131  0.918577  -0.001  0.039495  -0.000558  0.987545  -0.001  0.040276  -0.000196  0.982646  -0.001  0.125256  0.038839  -0.00094  0.991235  -0.001
H  H28  1  0.84464899  0.03045863  0.55259799  1  0.026748  -0.000911  0.905163  -0.001  0.037206  -0.001846  0.968748  -0.002  0.037155  -0.001196  0.964544  -0.001  0.122861  0.037028  -0.002549  0.972201  -0.002
H  H29  1  0.15520575  0.53018057  0.44693812  1  0.027405  0.000886  0.904763  0.0  0.038047  0.000751  0.968097  0.0  0.038045  0.000815  0.963853  0.0  0.122878  0.0378  0.000649  0.971638  0.0
H  H30  1  0.65536604  0.03023072  0.05310345  1  0.027228  0.000661  0.904808  0.0  0.037909  0.000556  0.967978  0.0  0.037912  0.000584  0.963739  0.0  0.12289  0.037669  0.000501  0.971507  0.0
H  H31  1  0.34439352  0.53017189  0.94733464  1  0.026979  0.000573  0.905267  0.0  0.037551  0.000404  0.968715  0.0  0.03749  0.000521  0.964554  0.0  0.122929  0.037421  0.000269  0.972087  0.0
H  H32  1  0.29925021  0.29835742  0.32802483  1  0.02074  -0.00022  0.954895  -0.001  0.027859  -0.00077  1.026094  -0.001  0.028111  -0.000342  1.022033  -0.001  0.120903  0.027537  -0.001241  1.029226  -0.001
H  H33  1  0.70099124  0.79814890  0.67214458  1  0.020635  0.001771  0.95522  0.001  0.02774  0.00234  1.02637  0.001  0.027979  0.002028  1.022322  0.001  0.121228  0.027449  0.002632  1.029509  0.001
H  H34  1  0.20118075  0.29817906  0.82826321  1  0.020721  0.001999  0.956009  0.001  0.027887  0.00227  1.026939  0.001  0.028128  0.002126  1.022898  0.001  0.121053  0.027506  0.002436  1.030122  0.001
H  H35  1  0.79930453  0.79803714  0.17176533  1  0.020776  -0.00021  0.95552  -0.001  0.02789  -0.000752  1.026619  -0.001  0.028166  -0.000327  1.022505  -0.001  0.121065  0.02755  -0.001232  1.02977  -0.001
C  C36  1  0.27610146  0.08415658  0.71927891  1  0.610377  -0.000295  3.853644  -0.001  0.532428  -0.001744  4.16207  -0.002  0.568052  -0.000599  4.15497  -0.001  0.17386  0.506834  -0.002833  4.166484  -0.003
C  C37  1  0.72335414  0.58389966  0.28101714  1  0.611629  -0.006159  3.853855  -0.005  0.534  -0.010103  4.161838  -0.008  0.569401  -0.007511  4.154951  -0.007  0.174905  0.508776  -0.013016  4.165943  -0.011
C  C38  1  0.22335066  0.08385983  0.21910913  1  0.611451  -0.006267  3.854088  -0.006  0.533861  -0.010209  4.162029  -0.009  0.569264  -0.007604  4.15512  -0.007  0.175043  0.508608  -0.013104  4.166152  -0.011
C  C39  1  0.77639278  0.58431250  0.78099490  1  0.60995  -0.010329  3.856989  -0.011  0.532494  -0.019279  4.164897  -0.018  0.567838  -0.01407  4.157997  -0.014  0.174005  0.50737  -0.024904  4.169066  -0.022
C  C40  1  0.89862128  0.28471915  0.36006555  1  0.614565  -0.003081  3.825836  -0.004  0.541342  -0.005986  4.12399  -0.007  0.577014  -0.004261  4.116605  -0.005  0.175159  0.516151  -0.007753  4.128206  -0.008
C  C41  1  0.10151867  0.78489029  0.63964582  1  0.615305  -0.005346  3.82565  -0.006  0.541444  -0.009623  4.124315  -0.009  0.577129  -0.007317  4.116949  -0.007  0.174705  0.516275  -0.012005  4.128415  -0.01
C  C42  1  0.60134493  0.28453297  0.86026185  1  0.615333  -0.007216  3.824872  -0.009  0.541975  -0.015389  4.123012  -0.015  0.57756  -0.011036  4.115644  -0.012  0.174938  0.516959  -0.019841  4.127138  -0.018
C  C43  1  0.39860112  0.78475335  0.13988312  1  0.614589  -0.003188  3.825964  -0.004  0.541016  -0.006118  4.12424  -0.006  0.576685  -0.004421  4.116911  -0.005  0.174984  0.515807  -0.007789  4.128337  -0.008
C  C44  1  0.21401073  0.44949972  0.65864239  1  0.60568  -0.00728  3.841225  -0.008  0.532924  -0.015612  4.146627  -0.015  0.568226  -0.010906  4.139178  -0.011  0.170074  0.507867  -0.020723  4.151086  -0.018
C  C45  1  0.78623553  0.94945026  0.34140850  1  0.604818  -0.00156  3.840552  -0.002  0.531704  -0.003846  4.146213  -0.004  0.567099  -0.002082  4.138726  -0.002  0.169762  0.506412  -0.005919  4.150794  -0.005
C  C46  1  0.28632161  0.44956176  0.15862978  1  0.604877  -0.001565  3.840108  -0.002  0.531836  -0.003846  4.145635  -0.004  0.567207  -0.002079  4.138199  -0.002  0.169746  0.506572  -0.005931  4.150182  -0.005
C  C47  1  0.71381048  0.94941079  0.84106032  1  0.606843  -0.001292  3.83914  -0.002  0.533898  -0.004009  4.144778  -0.004  0.569268  -0.002976  4.137312  -0.003  0.170226  0.508616  -0.004941  4.14927  -0.005
C  C48  1  0.29766463  0.98735506  0.47727267  1  0.610349  -0.005894  3.818145  -0.005  0.536017  -0.010391  4.120553  -0.009  0.571589  -0.007679  4.113122  -0.007  0.175245  0.510657  -0.01351  4.125011  -0.011
C  C49  1  0.70277551  0.48732903  0.52278960  1  0.610866  -0.008842  3.819948  -0.01  0.536296  -0.017292  4.122365  -0.016  0.571772  -0.012526  4.114945  -0.013  0.175731  0.511112  -0.022437  4.126794  -0.02
C  C50  1  0.20257699  0.98757346  0.97715945  1  0.610704  -0.004161  3.81867  -0.005  0.535936  -0.007273  4.121298  -0.008  0.571498  -0.005427  4.113876  -0.006  0.175359  0.510538  -0.00915  4.12574  -0.009
C  C51  1  0.79769547  0.48759310  0.02262947  1  0.610974  -0.005656  3.81899  -0.005  0.536916  -0.010059  4.121259  -0.009  0.572508  -0.00736  4.113787  -0.007  0.175569  0.511518  -0.013152  4.125768  -0.011
C  C52  1  0.79949872  0.11412725  0.58272661  1  0.611453  -0.007835  3.840391  -0.009  0.540703  -0.016318  4.140071  -0.016  0.576116  -0.011319  4.132245  -0.012  0.176031  0.515424  -0.021805  4.145144  -0.02
C  C53  1  0.20027422  0.61406632  0.41717942  1  0.611008  -0.002774  3.83989  -0.003  0.539855  -0.005563  4.139583  -0.005  0.575403  -0.003262  4.131697  -0.003  0.175576  0.514319  -0.008359  4.144797  -0.007
C  C54  1  0.70042129  0.11410114  0.08288589  1  0.610996  -0.002708  3.838845  -0.003  0.540131  -0.005484  4.138489  -0.005  0.575673  -0.0032  4.130571  -0.003  0.17594  0.514584  -0.008239  4.143721  -0.007
C  C55  1  0.29919108  0.61385681  0.91724701  1  0.611287  -0.00467  3.839787  -0.005  0.540338  -0.008171  4.139719  -0.008  0.575742  -0.00599  4.131949  -0.006  0.176002  0.515042  -0.010528  4.144669  -0.01
C  C56  1  0.40243195  0.28888278  0.38033343  1  0.610118  -0.006956  3.830271  -0.008  0.538887  -0.014916  4.125229  -0.015  0.574079  -0.010637  4.11823  -0.011  0.173853  0.514157  -0.019311  4.129182  -0.018
C  C57  1  0.59764388  0.78875019  0.61996223  1  0.611082  0.003987  3.829121  0.004  0.539985  0.00695  4.123837  0.007  0.575285  0.005453  4.116768  0.006  0.174307  0.515047  0.008516  4.127826  0.008
C  C58  1  0.09772670  0.28873293  0.88035411  1  0.609558  -0.003256  3.832145  -0.003  0.53857  -0.006474  4.126908  -0.006  0.573856  -0.004726  4.119853  -0.005  0.17378  0.513594  -0.008032  4.130941  -0.007
C  C59  1  0.90249306  0.78878406  0.11942439  1  0.609905  -0.006922  3.832128  -0.008  0.539148  -0.014823  4.126581  -0.014  0.574338  -0.010599  4.119609  -0.011  0.173892  0.51441  -0.019173  4.130551  -0.017
O  O60  1  0.36935908  0.27045674  0.47607396  1  -0.655987  -0.061376  2.181675  -0.038  -0.569738  -0.077152  2.471478  -0.048  -0.605985  -0.069983  2.455288  -0.042  -0.302141  -0.542489  -0.083837  2.481649  -0.053
O  O61  1  0.63039740  0.77003930  0.52422715  1  -0.656447  -0.00135  2.180145  -0.002  -0.570273  0.00032  2.470419  0.0  -0.606763  -0.00014  2.454099  0.0  -0.301965  -0.542575  0.000823  2.480836  0.001
O  O62  1  0.13023544  0.27005024  0.97614691  1  -0.655512  -0.006449  2.181504  -0.008  -0.569855  -0.008368  2.472216  -0.01  -0.606288  -0.006917  2.455926  -0.008  -0.302014  -0.542288  -0.009696  2.482584  -0.011
O  O63  1  0.86943899  0.77049178  0.02368657  1  -0.655554  -0.061213  2.180635  -0.038  -0.569899  -0.076897  2.470725  -0.047  -0.606136  -0.069787  2.454472  -0.041  -0.302254  -0.542552  -0.083503  2.480911  -0.053
O  O64  1  0.36174081  0.43445542  0.65607821  1  -0.584317  -0.031469  2.045674  -0.023  -0.526359  -0.041475  2.312775  -0.03  -0.555715  -0.035988  2.299133  -0.025  -0.298438  -0.504834  -0.047013  2.321714  -0.035
O  O65  1  0.63853232  0.93428300  0.34412280  1  -0.583762  0.023944  2.046092  0.013  -0.52556  0.026189  2.313554  0.011  -0.554993  0.024672  2.299801  0.01  -0.298014  -0.50378  0.027372  2.322671  0.012
O  O66  1  0.13862576  0.43439100  0.15601909  1  -0.583486  0.023889  2.045827  0.013  -0.52528  0.026069  2.313189  0.011  -0.554708  0.024595  2.299466  0.01  -0.297699  -0.503503  0.027156  2.322315  0.012
O  O67  1  0.86150465  0.93435091  0.84402940  1  -0.584259  -0.0253  2.045691  -0.015  -0.526198  -0.0308  2.313103  -0.017  -0.555602  -0.027863  2.299393  -0.015  -0.29815  -0.504576  -0.033528  2.322169  -0.02
O  O68  1  0.10779048  0.37874329  0.62372409  1  -0.661644  -0.059934  2.170551  -0.036  -0.583836  -0.075566  2.475068  -0.045  -0.618351  -0.068357  2.456336  -0.039  -0.307322  -0.55768  -0.082362  2.486983  -0.051
O  O69  1  0.89262482  0.87863811  0.37605813  1  -0.661508  -0.058207  2.171605  -0.033  -0.583002  -0.070855  2.476048  -0.038  -0.617682  -0.065011  2.457448  -0.034  -0.307369  -0.556602  -0.076207  2.487882  -0.043
O  O70  1  0.39268171  0.37875522  0.12391437  1  -0.661831  -0.058237  2.171456  -0.033  -0.583298  -0.070889  2.475781  -0.038  -0.617983  -0.065037  2.45717  -0.034  -0.307544  -0.556964  -0.076254  2.487716  -0.043
O  O71  1  0.60734821  0.87893533  0.87619608  1  -0.662519  -0.000919  2.168926  -0.002  -0.584305  -0.001365  2.472925  -0.003  -0.619204  -0.000651  2.454538  -0.002  -0.307623  -0.557665  -0.002111  2.484721  -0.004
O  O72  1  0.86075546  0.30055741  0.26490573  1  -0.648019  -0.001542  2.171665  -0.003  -0.564047  -0.004994  2.465852  -0.008  -0.600199  -0.003799  2.44884  -0.006  -0.298131  -0.536563  -0.006237  2.47655  -0.009
O  O73  1  0.13967163  0.80056362  0.73475677  1  -0.648881  -0.005028  2.170561  -0.004  -0.565138  -0.006365  2.465402  -0.005  -0.601316  -0.005024  2.44836  -0.003  -0.298397  -0.537669  -0.007755  2.476134  -0.006
O  O74  1  0.63966768  0.29976042  0.76513170  1  -0.648237  -0.05993  2.171153  -0.037  -0.564521  -0.075993  2.465351  -0.047  -0.600427  -0.068796  2.448396  -0.041  -0.298012  -0.537586  -0.082728  2.476046  -0.053
O  O75  1  0.36078078  0.80050480  0.23504653  1  -0.647768  -0.001496  2.170666  -0.003  -0.563814  -0.004907  2.464984  -0.008  -0.599941  -0.003727  2.44798  -0.006  -0.298097  -0.536461  -0.006121  2.475825  -0.009
O  O76  1  0.65222654  0.13012763  0.58595570  1  -0.57585  -0.031404  2.055715  -0.021  -0.52015  -0.042827  2.329881  -0.029  -0.548421  -0.037388  2.314807  -0.024  -0.289139  -0.499591  -0.048325  2.340081  -0.034
O  O77  1  0.34753620  0.63032577  0.41420486  1  -0.575974  0.023277  2.055142  0.011  -0.52024  0.025981  2.330063  0.009  -0.548602  0.024686  2.31482  0.008  -0.289066  -0.499455  0.02691  2.340466  0.01
O  O78  1  0.84766398  0.13038478  0.08587736  1  -0.575439  0.023331  2.055244  0.011  -0.519765  0.02616  2.329684  0.009  -0.548161  0.02485  2.31457  0.009  -0.288956  -0.498956  0.027101  2.340042  0.01
O  O79  1  0.15193344  0.62995518  0.91416786  1  -0.575192  -0.029523  2.055741  -0.019  -0.51929  -0.037448  2.329968  -0.023  -0.547641  -0.03335  2.314974  -0.019  -0.288432  -0.498563  -0.041544  2.340023  -0.026
O  O80  1  0.90731067  0.18719111  0.61143158  1  -0.66577  -0.057637  2.159492  -0.031  -0.584006  -0.07376  2.456285  -0.04  -0.618725  -0.067241  2.4377  -0.035  -0.306973  -0.557887  -0.079816  2.468323  -0.045
O  O81  1  0.09238728  0.68713198  0.38861325  1  -0.665588  -0.055865  2.161343  -0.029  -0.583476  -0.069167  2.458431  -0.034  -0.618241  -0.063911  2.439768  -0.031  -0.306942  -0.557292  -0.073866  2.470619  -0.038
O  O82  1  0.59248316  0.18716311  0.11141437  1  -0.665809  -0.056019  2.160982  -0.029  -0.584011  -0.069366  2.458103  -0.035  -0.618759  -0.0641  2.439385  -0.031  -0.307322  -0.557885  -0.074071  2.470372  -0.038
O  O83  1  0.40700189  0.68690624  0.88844314  1  -0.665752  -0.001274  2.157419  -0.001  -0.584026  -0.003996  2.45431  -0.004  -0.618791  -0.003125  2.435634  -0.003  -0.306997  -0.557677  -0.004924  2.466505  -0.005
O  O84  1  0.38822024  0.02305117  0.75243067  1  -0.578117  0.028972  2.123931  0.016  -0.514639  0.030281  2.403207  0.013  -0.545543  0.028461  2.391834  0.012  -0.291316  -0.491947  0.031814  2.41067  0.015
O  O85  1  0.61137021  0.52294643  0.24751296  1  -0.578563  -0.033546  2.123593  -0.023  -0.515333  -0.038957  2.402709  -0.024  -0.546184  -0.034956  2.391539  -0.021  -0.291584  -0.492666  -0.04282  2.409828  -0.028
O  O86  1  0.11127471  0.02288232  0.25248480  1  -0.578512  -0.03354  2.123605  -0.023  -0.515436  -0.039008  2.402837  -0.024  -0.54635  -0.03499  2.391807  -0.021  -0.291681  -0.49279  -0.042851  2.409871  -0.028
O  O87  1  0.88861784  0.52342357  0.74771351  1  -0.579495  -0.035737  2.124229  -0.025  -0.515738  -0.044952  2.402736  -0.031  -0.546549  -0.039387  2.391636  -0.026  -0.291626  -0.493227  -0.050416  2.40988  -0.036
O  O88  1  0.17031786  0.04147342  0.49430019  1  -0.596861  -0.031007  2.084593  -0.019  -0.535962  -0.037854  2.362692  -0.021  -0.567248  -0.033775  2.351046  -0.018  -0.299628  -0.512825  -0.041874  2.370173  -0.025
O  O89  1  0.82996778  0.54162212  0.50573864  1  -0.597313  -0.034933  2.083527  -0.024  -0.536608  -0.044458  2.361973  -0.029  -0.567797  -0.038967  2.350323  -0.024  -0.299916  -0.51351  -0.049876  2.369346  -0.034
O  O90  1  0.32971624  0.04173211  0.99459038  1  -0.59661  -0.032068  2.08426  -0.021  -0.536086  -0.037693  2.362981  -0.022  -0.567309  -0.033779  2.351398  -0.018  -0.299819  -0.513073  -0.041441  2.370399  -0.026
O  O91  1  0.67038980  0.54172544  0.00553590  1  -0.597374  -0.030902  2.084937  -0.019  -0.536724  -0.037748  2.363322  -0.021  -0.567994  -0.033664  2.351603  -0.018  -0.29973  -0.513628  -0.0417  2.370924  -0.025
O  O92  1  0.54124215  0.29513064  0.34517651  1  -0.585491  -0.033835  2.096382  -0.023  -0.522531  -0.043432  2.368361  -0.029  -0.553406  -0.038301  2.356116  -0.025  -0.294048  -0.499884  -0.048414  2.37625  -0.034
O  O93  1  0.45894567  0.79534581  0.65522515  1  -0.585266  0.029409  2.097593  0.017  -0.522353  0.035372  2.370076  0.02  -0.553424  0.032333  2.357806  0.017  -0.294123  -0.499334  0.038031  2.377934  0.022
O  O94  1  0.95910628  0.29525140  0.84495959  1  -0.584264  -0.031589  2.098398  -0.021  -0.521631  -0.038071  2.370946  -0.023  -0.552526  -0.034235  2.358702  -0.02  -0.293848  -0.498969  -0.041793  2.378774  -0.027
O  O95  1  0.04129805  0.79515243  0.15461213  1  -0.58591  -0.033891  2.0966  -0.023  -0.523108  -0.043408  2.368601  -0.029  -0.553996  -0.038315  2.356333  -0.024  -0.29427  -0.500475  -0.048297  2.376527  -0.034
O  O96  1  0.03848225  0.26609418  0.39041065  1  -0.59112  -0.033155  2.098553  -0.021  -0.527397  -0.039712  2.377274  -0.023  -0.558362  -0.03575  2.363553  -0.019  -0.296945  -0.504546  -0.043558  2.386215  -0.026
O  O97  1  0.96158930  0.76617305  0.60945328  1  -0.5911  -0.031746  2.097642  -0.018  -0.526931  -0.038618  2.37633  -0.021  -0.558024  -0.034899  2.362668  -0.017  -0.296243  -0.503946  -0.042099  2.385207  -0.024
O  O98  1  0.46133346  0.26605990  0.89048398  1  -0.592129  -0.035567  2.095775  -0.023  -0.528242  -0.045546  2.37428  -0.028  -0.559232  -0.040251  2.360587  -0.024  -0.297273  -0.505366  -0.050709  2.38317  -0.033
O  O99  1  0.53845263  0.76619692  0.10947441  1  -0.590738  -0.033333  2.098076  -0.021  -0.526983  -0.039915  2.376971  -0.023  -0.55805  -0.035971  2.363287  -0.019  -0.296664  -0.503973  -0.043745  2.385832  -0.026
O  O100  1  0.29436220  0.17860062  0.66839592  1  -0.661145  -0.052664  2.212255  -0.028  -0.580775  -0.063809  2.514065  -0.032  -0.61591  -0.059233  2.49718  -0.029  -0.305145  -0.554434  -0.067787  2.524912  -0.036
O  O101  1  0.70491682  0.67854066  0.33149159  1  -0.663212  0.002232  2.21129  -0.002  -0.582173  0.00056  2.512294  -0.005  -0.617415  0.001236  2.495503  -0.004  -0.305564  -0.555517  -0.000151  2.523075  -0.005
O  O102  1  0.20506509  0.17862739  0.16877489  1  -0.662896  0.002134  2.210957  -0.002  -0.581794  0.000522  2.511717  -0.005  -0.616956  0.001206  2.494873  -0.004  -0.305858  -0.555227  -0.00015  2.522538  -0.005
O  O103  1  0.79447203  0.67905171  0.83135874  1  -0.66061  -0.058853  2.213087  -0.034  -0.580429  -0.074072  2.514461  -0.043  -0.615595  -0.067359  2.497811  -0.038  -0.304427  -0.553957  -0.080288  2.525056  -0.049
O  O104  1  0.30334358  0.89421202  0.42312619  1  -0.655541  -0.001236  2.188888  -0.002  -0.574858  -0.003263  2.490716  -0.004  -0.610239  -0.002177  2.472867  -0.003  -0.301566  -0.548097  -0.004347  2.502235  -0.005
O  O105  1  0.69730770  0.39401057  0.57673266  1  -0.656334  -0.059768  2.190352  -0.037  -0.575098  -0.075661  2.49114  -0.047  -0.610236  -0.068431  2.473466  -0.04  -0.301882  -0.54879  -0.082508  2.502446  -0.053
O  O106  1  0.19731595  0.89438095  0.92305112  1  -0.65669  -0.004694  2.18998  -0.005  -0.575563  -0.007624  2.491802  -0.009  -0.610924  -0.006063  2.473951  -0.007  -0.302292  -0.548914  -0.00925  2.503284  -0.011
O  O107  1  0.80337697  0.39442540  0.07678367  1  -0.65593  -0.001188  2.188746  -0.002  -0.575385  -0.003168  2.490232  -0.004  -0.61078  -0.00206  2.472429  -0.003  -0.301965  -0.548601  -0.004368  2.501753  -0.005
