# generated using pymatgen
data_ZnH11C18NO4
_symmetry_space_group_name_H-M   'P 1'
_cell_length_a   10.38935475
_cell_length_b   11.85223122
_cell_length_c   13.47896098
_cell_angle_alpha   93.79411975
_cell_angle_beta   108.31296693
_cell_angle_gamma   103.58897265
_symmetry_Int_Tables_number   1
_chemical_formula_structural   ZnH11C18NO4
_chemical_formula_sum   'Zn4 H44 C72 N4 O16'
_cell_volume   1513.86157287
_cell_formula_units_Z   4
loop_
 _symmetry_equiv_pos_site_id
 _symmetry_equiv_pos_as_xyz
  1  'x, y, z'
loop_
 _atom_site_type_symbol
 _atom_site_label
 _atom_site_symmetry_multiplicity
 _atom_site_fract_x
 _atom_site_fract_y
 _atom_site_fract_z
 _atom_site_occupancy
 _atom_site_hle17_bader_spin_density
 _atom_site_hle17_ddec_charge
 _atom_site_hle17_ddec_spin_density
 _atom_site_hle17_ddec_sum_bond_order
 _atom_site_hle17_magmom
 _atom_site_hse06_10hf_bader_spin_density
 _atom_site_hse06_10hf_ddec_charge
 _atom_site_hse06_10hf_ddec_spin_density
 _atom_site_hse06_10hf_ddec_sum_bond_order
 _atom_site_hse06_10hf_magmom
 _atom_site_hse06_bader_spin_density
 _atom_site_hse06_ddec_charge
 _atom_site_hse06_ddec_spin_density
 _atom_site_hse06_ddec_sum_bond_order
 _atom_site_hse06_magmom
 _atom_site_pbe_bader_spin_density
 _atom_site_pbe_cm5_charge
 _atom_site_pbe_ddec_charge
 _atom_site_pbe_ddec_spin_density
 _atom_site_pbe_ddec_sum_bond_order
 _atom_site_pbe_magmom
Zn  Zn0  1  0.33454706  0.48838246  0.29297498  1  0  1.099338  0  1.7372  0  0  0.913544  0  2.20453  0  0  0.964437  0  2.143606  0  0  0.702914  0.877764  0  2.246323  0
Zn  Zn1  1  0.66545081  0.51161577  0.70702139  1  0  1.099396  0  1.737208  0  0  0.913617  0  2.204511  0  0  0.964512  0  2.143583  0  0  0.702941  0.877837  0  2.246301  0
Zn  Zn2  1  0.56282472  0.50619984  0.14655958  1  0  1.095408  0  1.798122  0  0  0.916249  0  2.265372  0  0  0.965499  0  2.206602  0  0  0.698561  0.880893  0  2.306348  0
Zn  Zn3  1  0.43717603  0.49380098  0.85344137  1  0  1.09535  0  1.798124  0  0  0.916207  0  2.265346  0  0  0.965457  0  2.206582  0  0  0.698549  0.880844  0  2.306335  0
H  H4  1  0.81345024  0.59327836  0.07022477  1  0  0.089919  0  0.924183  0  0  0.101106  0  0.98141  0  0  0.103572  0  0.979971  0  0  0.12047  0.099325  0  0.982415  0
H  H5  1  0.18654587  0.40672067  0.92978013  1  0  0.089939  0  0.924116  0  0  0.101117  0  0.981369  0  0  0.103583  0  0.979934  0  0  0.120476  0.099338  0  0.982372  0
H  H6  1  0.06337934  0.71534323  0.16507356  1  0  0.124038  0  0.962966  0  0  0.133749  0  1.021512  0  0  0.137249  0  1.020073  0  0  0.109159  0.130779  0  1.023305  0
H  H7  1  0.93661449  0.28465502  0.83492109  1  0  0.124082  0  0.962935  0  0  0.133856  0  1.021413  0  0  0.13736  0  1.01997  0  0  0.109184  0.130881  0  1.023216  0
H  H8  1  0.12158202  0.82909385  0.34349760  1  0  0.092347  0  0.96056  0  0  0.103873  0  1.023176  0  0  0.105744  0  1.022841  0  0  0.105229  0.102321  0  1.023713  0
H  H9  1  0.87842268  0.17090967  0.65649632  1  0  0.092392  0  0.960547  0  0  0.103925  0  1.023134  0  0  0.105773  0  1.02283  0  0  0.105218  0.102371  0  1.023669  0
H  H10  1  0.68972969  0.68477528  0.32077477  1  0  0.093309  0  0.944529  0  0  0.101585  0  1.008932  0  0  0.104367  0  1.006266  0  0  0.122059  0.099555  0  1.010847  0
H  H11  1  0.31028074  0.31522721  0.67923383  1  0  0.093313  0  0.944503  0  0  0.101568  0  1.008942  0  0  0.104348  0  1.006278  0  0  0.122065  0.099495  0  1.01091  0
H  H12  1  0.05389957  0.87503017  0.49586498  1  0  0.089637  0  0.962359  0  0  0.101071  0  1.026175  0  0  0.103046  0  1.026688  0  0  0.098603  0.099527  0  1.026085  0
H  H13  1  0.94610566  0.12497500  0.50414031  1  0  0.089613  0  0.962374  0  0  0.101064  0  1.026181  0  0  0.103039  0  1.026693  0  0  0.098616  0.099518  0  1.026092  0
H  H14  1  0.73365795  0.79295252  0.45424822  1  0  0.102119  0  0.974004  0  0  0.113661  0  1.035357  0  0  0.116446  0  1.033618  0  0  0.103441  0.111501  0  1.036796  0
H  H15  1  0.26634079  0.20704834  0.54574928  1  0  0.102088  0  0.974067  0  0  0.113631  0  1.035418  0  0  0.116413  0  1.033685  0  0  0.103457  0.111479  0  1.036854  0
H  H16  1  0.64587060  0.85337214  0.57621637  1  0  0.09408  0  0.989839  0  0  0.101869  0  1.057379  0  0  0.103998  0  1.057577  0  0  0.098787  0.100211  0  1.057552  0
H  H17  1  0.35412437  0.14662957  0.42378472  1  0  0.094049  0  0.989948  0  0  0.101836  0  1.057486  0  0  0.103965  0  1.057684  0  0  0.09877  0.100177  0  1.057657  0
H  H18  1  0.67145529  0.93317789  0.75827688  1  0  0.086068  0  0.974571  0  0  0.096594  0  1.039304  0  0  0.097986  0  1.040745  0  0  0.093999  0.09586  0  1.037946  0
H  H19  1  0.32854633  0.06682554  0.24172668  1  0  0.086093  0  0.974611  0  0  0.096631  0  1.03932  0  0  0.098023  0  1.04076  0  0  0.094026  0.095898  0  1.037962  0
H  H20  1  0.12204352  0.01285028  0.84268501  1  0  0.075761  0  1.001037  0  0  0.088004  0  1.066198  0  0  0.089647  0  1.066706  0  0  0.091834  0.086817  0  1.065834  0
H  H21  1  0.87795897  0.98714965  0.15731630  1  0  0.075789  0  1.00105  0  0  0.088047  0  1.066189  0  0  0.089674  0  1.066718  0  0  0.091848  0.086862  0  1.065821  0
H  H22  1  0.09756156  0.93633853  0.66313297  1  0  0.086481  0  0.965594  0  0  0.09671  0  1.029376  0  0  0.098642  0  1.029571  0  0  0.097547  0.095732  0  1.028757  0
H  H23  1  0.90243602  0.06366497  0.33686442  1  0  0.086548  0  0.965619  0  0  0.096766  0  1.02941  0  0  0.098698  0  1.029605  0  0  0.09758  0.095787  0  1.02879  0
H  H24  1  0.81325552  0.01693365  0.93263292  1  0  0.060178  0  0.941462  0  0  0.074333  0  1.000881  0  0  0.075224  0  1.000371  0  0  0.097249  0.073569  0  1.001446  0
H  H25  1  0.18674436  0.98306454  0.06736765  1  0  0.060148  0  0.941483  0  0  0.074306  0  1.00091  0  0  0.075194  0  1.000403  0  0  0.097259  0.073544  0  1.00147  0
H  H26  1  0.12267853  0.12644713  0.96532629  1  0  0.07285  0  0.944927  0  0  0.083758  0  1.011536  0  0  0.08405  0  1.012337  0  0  0.101885  0.083471  0  1.010989  0
H  H27  1  0.87731947  0.87355457  0.03467553  1  0  0.072789  0  0.944929  0  0  0.083695  0  1.011552  0  0  0.083986  0  1.012352  0  0  0.101867  0.083407  0  1.011005  0
H  H28  1  0.80584851  0.17900446  0.98874692  1  0  0.093691  0  0.952402  0  0  0.104759  0  1.014954  0  0  0.106854  0  1.013802  0  0  0.105662  0.103132  0  1.015884  0
H  H29  1  0.19414412  0.82099019  0.01125685  1  0  0.093784  0  0.952312  0  0  0.10483  0  1.014886  0  0  0.106932  0  1.01373  0  0  0.105699  0.103199  0  1.015821  0
H  H30  1  0.80456657  0.35544040  0.09901414  1  0  0.111221  0  0.955077  0  0  0.119153  0  1.016079  0  0  0.121742  0  1.016222  0  0  0.10631  0.117239  0  1.016189  0
H  H31  1  0.19542927  0.64455781  0.90098470  1  0  0.111263  0  0.95509  0  0  0.119203  0  1.016075  0  0  0.121792  0  1.016218  0  0  0.106342  0.117291  0  1.016184  0
H  H32  1  0.03152460  0.47685012  0.23410053  1  0  0.087896  0  0.93352  0  0  0.097199  0  0.994201  0  0  0.099587  0  0.992446  0  0  0.122658  0.095496  0  0.99536  0
H  H33  1  0.96847184  0.52314990  0.76589339  1  0  0.087881  0  0.933511  0  0  0.09719  0  0.994193  0  0  0.09958  0  0.992436  0  0  0.122679  0.095487  0  0.995351  0
H  H34  1  0.25441741  0.26249837  0.14865063  1  0  0.099104  0  0.960641  0  0  0.108221  0  1.024575  0  0  0.110783  0  1.021971  0  0  0.11943  0.106355  0  1.026453  0
H  H35  1  0.74557556  0.73749727  0.85134216  1  0  0.099145  0  0.960536  0  0  0.108259  0  1.02447  0  0  0.110819  0  1.021865  0  0  0.119462  0.106386  0  1.02637  0
H  H36  1  0.64409328  0.10923698  0.57558691  1  0  0.091685  0  0.95809  0  0  0.102763  0  1.020788  0  0  0.105443  0  1.020055  0  0  0.102267  0.100809  0  1.021469  0
H  H37  1  0.35590343  0.89075771  0.42441118  1  0  0.091733  0  0.958011  0  0  0.102786  0  1.02074  0  0  0.105462  0  1.020012  0  0  0.102282  0.100831  0  1.021423  0
H  H38  1  0.63199655  0.95761769  0.43626719  1  0  0.098119  0  0.976447  0  0  0.105777  0  1.045998  0  0  0.108874  0  1.044241  0  0  0.102524  0.103555  0  1.047381  0
H  H39  1  0.36800638  0.04238051  0.56373041  1  0  0.098143  0  0.97641  0  0  0.105772  0  1.046003  0  0  0.10887  0  1.044245  0  0  0.102515  0.103551  0  1.047385  0
H  H40  1  0.59091609  0.20479541  0.21522315  1  0  0.103091  0  0.962702  0  0  0.111556  0  1.028272  0  0  0.114721  0  1.026642  0  0  0.102518  0.109212  0  1.02963  0
H  H41  1  0.40909089  0.79520892  0.78477731  1  0  0.103096  0  0.962771  0  0  0.111579  0  1.028325  0  0  0.114738  0  1.026701  0  0  0.102505  0.109236  0  1.029681  0
H  H42  1  0.45556944  0.84724669  0.29104850  1  0  0.108459  0  0.97499  0  0  0.116403  0  1.040624  0  0  0.119933  0  1.038961  0  0  0.104415  0.113853  0  1.041937  0
H  H43  1  0.54442990  0.15276209  0.70894817  1  0  0.108384  0  0.975062  0  0  0.116395  0  1.040632  0  0  0.119927  0  1.038964  0  0  0.104431  0.113844  0  1.041945  0
H  H44  1  0.64162826  0.91300259  0.99834048  1  0  0.094783  0  0.958486  0  0  0.103261  0  1.024157  0  0  0.107056  0  1.021181  0  0  0.101949  0.100519  0  1.026387  0
H  H45  1  0.35837468  0.08699561  0.00165713  1  0  0.094686  0  0.958568  0  0  0.103182  0  1.024216  0  0  0.106976  0  1.021242  0  0  0.101937  0.100443  0  1.026449  0
H  H46  1  0.69037149  0.08101622  0.13885396  1  0  0.09429  0  0.950001  0  0  0.105473  0  1.011211  0  0  0.108386  0  1.010351  0  0  0.102666  0.103462  0  1.011762  0
H  H47  1  0.30963623  0.91898726  0.86114217  1  0  0.094243  0  0.950214  0  0  0.10542  0  1.011413  0  0  0.108335  0  1.010545  0  0  0.102603  0.10341  0  1.011959  0
C  C48  1  0.84547102  0.64441218  0.14839360  1  0  0.114957  0  3.692294  0  0  0.082091  0  3.947454  0  0  0.088908  0  3.966097  0  0  0.041372  0.077414  0  3.9352  0
C  C49  1  0.15452857  0.35558512  0.85160758  1  0  0.114887  0  3.692164  0  0  0.08202  0  3.947358  0  0  0.08883  0  3.966009  0  0  0.041346  0.077338  0  3.935111  0
C  C50  1  0.98244932  0.71277237  0.20089230  1  0  -0.113883  0  3.730377  0  0  -0.126477  0  3.984217  0  0  -0.132683  0  4.004305  0  0  -0.081365  -0.122261  0  3.970725  0
C  C51  1  0.01754840  0.28722231  0.79910751  1  0  -0.113893  0  3.730303  0  0  -0.126531  0  3.984093  0  0  -0.132736  0  4.004176  0  0  -0.081363  -0.122311  0  3.970596  0
C  C52  1  0.01494729  0.77488121  0.30097382  1  0  -0.036788  0  3.663656  0  0  -0.061301  0  3.904047  0  0  -0.058197  0  3.922126  0  0  -0.058558  -0.062939  0  3.891672  0
C  C53  1  0.98505563  0.22511697  0.69902674  1  0  -0.036969  0  3.66377  0  0  -0.061425  0  3.904196  0  0  -0.05831  0  3.922284  0  0  -0.058592  -0.063059  0  3.891817  0
C  C54  1  0.91087878  0.76894222  0.34801695  1  0  0.051991  0  3.807515  0  0  0.077067  0  4.032435  0  0  0.074096  0  4.056743  0  0  0.000335  0.078727  0  4.016007  0
C  C55  1  0.08912963  0.23106030  0.65198819  1  0  0.05219  0  3.807324  0  0  0.077122  0  4.032408  0  0  0.074148  0  4.05672  0  0  0.000374  0.078781  0  4.015971  0
C  C56  1  0.77596623  0.69713306  0.28924165  1  0  0.095394  0  3.631124  0  0  0.060691  0  3.868782  0  0  0.067171  0  3.886929  0  0  0.054651  0.056317  0  3.856921  0
C  C57  1  0.22404145  0.30286417  0.71076519  1  0  0.095248  0  3.630952  0  0  0.060564  0  3.868723  0  0  0.067069  0  3.886824  0  0  0.054579  0.056222  0  3.856874  0
C  C58  1  0.94273026  0.83123923  0.45334729  1  0  -0.113108  0  3.74965  0  0  -0.133016  0  3.996755  0  0  -0.13637  0  4.020644  0  0  -0.091669  -0.130587  0  3.980637  0
C  C59  1  0.05727484  0.16876245  0.54665477  1  0  -0.113082  0  3.749491  0  0  -0.132941  0  3.996608  0  0  -0.136299  0  4.020506  0  0  -0.091663  -0.130508  0  3.980489  0
C  C60  1  0.84463875  0.83531062  0.49892346  1  0  -0.099968  0  3.733474  0  0  -0.119185  0  3.979028  0  0  -0.121798  0  4.00092  0  0  -0.082388  -0.117342  0  3.964251  0
C  C61  1  0.15536173  0.16468934  0.50107514  1  0  -0.099965  0  3.733646  0  0  -0.119181  0  3.979214  0  0  -0.121795  0  4.001108  0  0  -0.082395  -0.117346  0  3.964442  0
C  C62  1  0.86873054  0.88891793  0.60559171  1  0  0.080722  0  3.822416  0  0  0.100672  0  4.049669  0  0  0.100783  0  4.074176  0  0  -0.01425  0.100532  0  4.033168  0
C  C63  1  0.13126748  0.11108995  0.39440755  1  0  0.080768  0  3.822577  0  0  0.100688  0  4.04985  0  0  0.100799  0  4.074357  0  0  -0.014258  0.100546  0  4.033351  0
C  C64  1  0.75035770  0.89080258  0.63472761  1  0  -0.100236  0  3.714589  0  0  -0.119201  0  3.961207  0  0  -0.122177  0  3.983866  0  0  -0.08783  -0.117101  0  3.946015  0
C  C65  1  0.24963756  0.10920003  0.36527138  1  0  -0.100161  0  3.714738  0  0  -0.119106  0  3.961344  0  0  -0.122082  0  3.984004  0  0  -0.087807  -0.117007  0  3.946157  0
C  C66  1  0.76503828  0.93528238  0.73708056  1  0  -0.126258  0  3.769142  0  0  -0.145601  0  4.020411  0  0  -0.149399  0  4.044285  0  0  -0.097305  -0.142927  0  4.003719  0
C  C67  1  0.23496537  0.06472107  0.26292052  1  0  -0.126296  0  3.769227  0  0  -0.145671  0  4.020468  0  0  -0.149469  0  4.044343  0  0  -0.097333  -0.142997  0  4.003776  0
C  C68  1  0.89851022  0.97788061  0.81431825  1  0  0.062758  0  3.776168  0  0  0.078011  0  4.013729  0  0  0.07775  0  4.039239  0  0  -0.016732  0.078245  0  3.996263  0
C  C69  1  0.10148982  0.02212111  0.18568035  1  0  0.062715  0  3.77622  0  0  0.078034  0  4.013695  0  0  0.077771  0  4.039204  0  0  -0.016707  0.078266  0  3.996232  0
C  C70  1  0.01674082  0.97892330  0.78457702  1  0  -0.125327  0  3.787007  0  0  -0.146106  0  4.036667  0  0  -0.149955  0  4.061209  0  0  -0.099104  -0.143334  0  4.020019  0
C  C71  1  0.98325995  0.02108370  0.21542210  1  0  -0.125359  0  3.787164  0  0  -0.146165  0  4.036787  0  0  -0.150003  0  4.061336  0  0  -0.099127  -0.14339  0  4.020136  0
C  C72  1  0.00316997  0.93570796  0.68260802  1  0  -0.094757  0  3.727045  0  0  -0.110021  0  3.967394  0  0  -0.112029  0  3.989097  0  0  -0.085241  -0.108793  0  3.952523  0
C  C73  1  0.99682704  0.06429994  0.31738951  1  0  -0.094884  0  3.727151  0  0  -0.11014  0  3.96752  0  0  -0.112146  0  3.989218  0  0  -0.085288  -0.108909  0  3.952646  0
C  C74  1  0.91219812  0.00326639  0.92789814  1  0  -0.057054  0  3.558263  0  0  -0.070395  0  3.794286  0  0  -0.071084  0  3.808928  0  0  -0.076692  -0.069892  0  3.78417  0
C  C75  1  0.08779916  0.99673006  0.07210020  1  0  -0.056941  0  3.55833  0  0  -0.070308  0  3.794351  0  0  -0.070997  0  3.808994  0  0  -0.076735  -0.069807  0  3.784236  0
C  C76  1  0.04493290  0.09551119  0.00385952  1  0  -0.059952  0  3.541611  0  0  -0.072333  0  3.772097  0  0  -0.072826  0  3.78777  0  0  -0.07324  -0.071695  0  3.76117  0
C  C77  1  0.95506379  0.90448349  0.99614079  1  0  -0.059821  0  3.541491  0  0  -0.072135  0  3.77183  0  0  -0.072618  0  3.787493  0  0  -0.0732  -0.071493  0  3.760902  0
C  C78  1  0.03009526  0.20208063  0.06212077  1  0  0.031322  0  3.713517  0  0  0.05121  0  3.953231  0  0  0.046423  0  3.978509  0  0  0.000168  0.054099  0  3.936032  0
C  C79  1  0.96989578  0.79791229  0.93788102  1  0  0.031184  0  3.713802  0  0  0.051076  0  3.953511  0  0  0.046293  0  3.978787  0  0  0.00016  0.053964  0  3.936312  0
C  C80  1  0.90370452  0.23149988  0.04826276  1  0  -0.044407  0  3.6922  0  0  -0.073666  0  3.944886  0  0  -0.070809  0  3.964118  0  0  -0.063682  -0.075127  0  3.931694  0
C  C81  1  0.09628769  0.76849659  0.95173583  1  0  -0.044417  0  3.69226  0  0  -0.073648  0  3.94492  0  0  -0.070799  0  3.96416  0  0  -0.063692  -0.075107  0  3.931729  0
C  C82  1  0.90205617  0.33060077  0.10968134  1  0  -0.107928  0  3.730733  0  0  -0.116992  0  3.980526  0  0  -0.124606  0  4.003321  0  0  -0.080837  -0.112187  0  3.965234  0
C  C83  1  0.09793691  0.66939216  0.89031872  1  0  -0.108132  0  3.730733  0  0  -0.117217  0  3.980549  0  0  -0.12483  0  4.003342  0  0  -0.080926  -0.112411  0  3.965258  0
C  C84  1  0.02697417  0.39900782  0.18392164  1  0  0.126514  0  3.694476  0  0  0.093099  0  3.941074  0  0  0.100362  0  3.959489  0  0  0.049284  0.088405  0  3.928444  0
C  C85  1  0.97302253  0.60098686  0.81607793  1  0  0.126729  0  3.694291  0  0  0.093312  0  3.940897  0  0  0.100578  0  3.959308  0  0  0.049294  0.088622  0  3.928263  0
C  C86  1  0.15186012  0.27788416  0.13726793  1  0  0.095744  0  3.634762  0  0  0.057851  0  3.880276  0  0  0.064842  0  3.898637  0  0  0.055239  0.052897  0  3.868708  0
C  C87  1  0.84813455  0.72211054  0.86273114  1  0  0.095794  0  3.63484  0  0  0.057888  0  3.880358  0  0  0.06487  0  3.898745  0  0  0.055195  0.05293  0  3.868788  0
C  C88  1  0.62182368  0.24268464  0.47497339  1  0  -0.038022  0  3.68548  0  0  -0.025906  0  3.9188  0  0  -0.028362  0  3.936718  0  0  -0.001198  -0.024831  0  3.907237  0
C  C89  1  0.37817563  0.75731179  0.52502618  1  0  -0.038082  0  3.685618  0  0  -0.025951  0  3.918926  0  0  -0.028402  0  3.936836  0  0  -0.001259  -0.024876  0  3.907366  0
C  C90  1  0.63482106  0.13105404  0.49675733  1  0  -0.088593  0  3.760861  0  0  -0.1108  0  4.01597  0  0  -0.112786  0  4.035878  0  0  -0.086393  -0.109311  0  4.002949  0
C  C91  1  0.36517666  0.86894066  0.50324026  1  0  -0.088622  0  3.760888  0  0  -0.11081  0  4.015986  0  0  -0.112796  0  4.035894  0  0  -0.086381  -0.109322  0  4.002967  0
C  C92  1  0.62768328  0.04520804  0.41825848  1  0  -0.103597  0  3.72825  0  0  -0.127116  0  3.984082  0  0  -0.127849  0  4.003164  0  0  -0.087167  -0.126627  0  3.971167  0
C  C93  1  0.37231329  0.95478931  0.58173826  1  0  -0.103548  0  3.728198  0  0  -0.127033  0  3.984028  0  0  -0.127766  0  4.003108  0  0  -0.087111  -0.126543  0  3.971111  0
C  C94  1  0.61033274  0.06947984  0.31494217  1  0  0.036787  0  3.81234  0  0  0.052545  0  4.048841  0  0  0.051913  0  4.071004  0  0  -0.011772  0.053115  0  4.03275  0
C  C95  1  0.38966803  0.93052101  0.68505507  1  0  0.036777  0  3.812097  0  0  0.052494  0  4.04869  0  0  0.051862  0  4.070853  0  0  -0.011743  0.053063  0  4.032601  0
C  C96  1  0.60802110  0.18348953  0.29493707  1  0  -0.115289  0  3.70372  0  0  -0.144964  0  3.948465  0  0  -0.145298  0  3.966546  0  0  -0.08263  -0.144764  0  3.936215  0
C  C97  1  0.39198573  0.81651126  0.70506536  1  0  -0.115289  0  3.703635  0  0  -0.144989  0  3.948401  0  0  -0.145319  0  3.966486  0  0  -0.082644  -0.144788  0  3.936151  0
C  C98  1  0.60983535  0.26867189  0.37267391  1  0  -0.056584  0  3.705291  0  0  -0.041789  0  3.937589  0  0  -0.047118  0  3.957035  0  0  -0.005682  -0.038444  0  3.924976  0
C  C99  1  0.39016642  0.73132893  0.62732729  1  0  -0.056609  0  3.705246  0  0  -0.041791  0  3.937544  0  0  -0.047123  0  3.95699  0  0  -0.00568  -0.038447  0  3.924933  0
C  C100  1  0.58109980  0.97481562  0.22773050  1  0  0.068568  0  3.782512  0  0  0.080887  0  4.017531  0  0  0.082981  0  4.039529  0  0  -0.002589  0.079751  0  4.002195  0
C  C101  1  0.41890083  0.02518788  0.77226614  1  0  0.068783  0  3.782208  0  0  0.081105  0  4.017259  0  0  0.0832  0  4.03926  0  0  -0.002482  0.079968  0  4.001926  0
C  C102  1  0.49752280  0.86302096  0.22724484  1  0  -0.121653  0  3.681097  0  0  -0.150427  0  3.927532  0  0  -0.153392  0  3.9464  0  0  -0.082433  -0.148501  0  3.914891  0
C  C103  1  0.50248014  0.13698340  0.77275316  1  0  -0.121567  0  3.681048  0  0  -0.150416  0  3.927457  0  0  -0.153384  0  3.946327  0  0  -0.082479  -0.148487  0  3.914812  0
C  C104  1  0.46741804  0.76895311  0.14761264  1  0  -0.048674  0  3.705815  0  0  -0.034983  0  3.941711  0  0  -0.037393  0  3.961244  0  0  -0.005771  -0.033441  0  3.928683  0
C  C105  1  0.53258316  0.23105213  0.85238574  1  0  -0.048829  0  3.705997  0  0  -0.035078  0  3.941812  0  0  -0.037491  0  3.961348  0  0  -0.005762  -0.033536  0  3.928783  0
C  C106  1  0.52483077  0.78719340  0.06630069  1  0  -0.093089  0  3.761805  0  0  -0.081811  0  4.000424  0  0  -0.089321  0  4.023261  0  0  -0.023958  -0.07689  0  3.985014  0
C  C107  1  0.47517217  0.21281096  0.93369731  1  0  -0.093111  0  3.761935  0  0  -0.08183  0  4.000521  0  0  -0.08934  0  4.023357  0  0  -0.023928  -0.076906  0  3.985113  0
C  C108  1  0.60195815  0.90081939  0.06380612  1  0  -0.065337  0  3.761174  0  0  -0.08973  0  4.017108  0  0  -0.088927  0  4.035779  0  0  -0.086406  -0.090248  0  4.004465  0
C  C109  1  0.39804320  0.09918324  0.93618915  1  0  -0.065189  0  3.76128  0  0  -0.089588  0  4.017184  0  0  -0.088784  0  4.035856  0  0  -0.086396  -0.090116  0  4.004549  0
C  C110  1  0.62875227  0.99389194  0.14196244  1  0  -0.109651  0  3.742837  0  0  -0.129005  0  3.993694  0  0  -0.131783  0  4.012633  0  0  -0.087923  -0.127194  0  3.980745  0
C  C111  1  0.37125011  0.00611068  0.85803308  1  0  -0.109802  0  3.743292  0  0  -0.129151  0  3.994141  0  0  -0.131931  0  4.013085  0  0  -0.08797  -0.12734  0  3.981194  0
C  C112  1  0.56966616  0.37502545  0.33282516  1  0  0.703509  0  3.852481  0  0  0.648877  0  4.145565  0  0  0.685324  0  4.135311  0  0  0.230075  0.623991  0  4.151954  0
C  C113  1  0.43033127  0.62497452  0.66717418  1  0  0.703405  0  3.85264  0  0  0.648739  0  4.145756  0  0  0.685187  0  4.135506  0  0  0.230017  0.623855  0  4.152143  0
C  C114  1  0.60840644  0.32376907  0.55998757  1  0  0.65574  0  3.916831  0  0  0.603478  0  4.218306  0  0  0.638099  0  4.20979  0  0  0.205522  0.579925  0  4.223257  0
C  C115  1  0.39159474  0.67622381  0.44001445  1  0  0.65587  0  3.916934  0  0  0.603595  0  4.218432  0  0  0.638213  0  4.209918  0  0  0.205564  0.580039  0  4.223386  0
C  C116  1  0.37037749  0.65802782  0.15986190  1  0  0.681388  0  3.843739  0  0  0.628583  0  4.139686  0  0  0.662957  0  4.12988  0  0  0.222656  0.604769  0  4.145938  0
C  C117  1  0.62962602  0.34197826  0.84014080  1  0  0.681651  0  3.843442  0  0  0.628838  0  4.139372  0  0  0.663211  0  4.129559  0  0  0.222748  0.605028  0  4.145625  0
C  C118  1  0.51337195  0.69137246  0.98433478  1  0  0.6201  0  3.949363  0  0  0.571893  0  4.242608  0  0  0.605604  0  4.235541  0  0  0.192539  0.548978  0  4.246648  0
C  C119  1  0.48662809  0.30862925  0.01566457  1  0  0.619998  0  3.949404  0  0  0.57176  0  4.242685  0  0  0.605473  0  4.235616  0  0  0.19244  0.548839  0  4.246734  0
N  N120  1  0.74483296  0.63713064  0.19306534  1  0  -0.34962  0  3.372049  0  0  -0.266792  0  3.652727  0  0  -0.287828  0  3.670509  0  0  -0.341856  -0.252222  0  3.640398  0
N  N121  1  0.25517052  0.36286924  0.80694066  1  0  -0.349477  0  3.371863  0  0  -0.266627  0  3.652503  0  0  -0.287668  0  3.670297  0  0  -0.341801  -0.252054  0  3.640153  0
N  N122  1  0.15066954  0.37332339  0.19640902  1  0  -0.334456  0  3.315636  0  0  -0.248613  0  3.597035  0  0  -0.268926  0  3.611106  0  0  -0.325865  -0.23482  0  3.587158  0
N  N123  1  0.84933093  0.62667657  0.80359032  1  0  -0.334584  0  3.31572  0  0  -0.248741  0  3.597122  0  0  -0.269053  0  3.611191  0  0  -0.325862  -0.234944  0  3.587238  0
O  O124  1  0.62963850  0.42403221  0.27222420  1  0  -0.641289  0  2.075132  0  0  -0.573979  0  2.336087  0  0  -0.60156  0  2.320361  0  0  -0.319209  -0.554708  0  2.346428  0
O  O125  1  0.37035865  0.57596689  0.72777353  1  0  -0.641227  0  2.075155  0  0  -0.573902  0  2.336114  0  0  -0.601486  0  2.320394  0  0  -0.319187  -0.55463  0  2.346451  0
O  O126  1  0.46996646  0.40010842  0.35801424  1  0  -0.626113  0  2.048898  0  0  -0.54879  0  2.315015  0  0  -0.577679  0  2.297653  0  0  -0.308477  -0.528808  0  2.326497  0
O  O127  1  0.53002924  0.59988628  0.64198434  1  0  -0.626104  0  2.049006  0  0  -0.548769  0  2.315136  0  0  -0.577656  0  2.297772  0  0  -0.308466  -0.528785  0  2.326617  0
O  O128  1  0.70394169  0.42299506  0.59577879  1  0  -0.639505  0  1.975368  0  0  -0.567936  0  2.230623  0  0  -0.597416  0  2.214366  0  0  -0.332399  -0.547116  0  2.24093  0
O  O129  1  0.29605586  0.57699606  0.40422521  1  0  -0.639539  0  1.975238  0  0  -0.56797  0  2.230514  0  0  -0.59745  0  2.21426  0  0  -0.332382  -0.547149  0  2.240823  0
O  O130  1  0.50891305  0.28818747  0.59361516  1  0  -0.612734  0  1.931259  0  0  -0.563344  0  2.158963  0  0  -0.588346  0  2.150251  0  0  -0.311123  -0.545202  0  2.164146  0
O  O131  1  0.49109000  0.71180188  0.40638857  1  0  -0.612781  0  1.931415  0  0  -0.563408  0  2.159159  0  0  -0.588407  0  2.150445  0  0  -0.311164  -0.545264  0  2.164344  0
O  O132  1  0.25086666  0.65964644  0.15685213  1  0  -0.559917  0  1.914487  0  0  -0.517824  0  2.132599  0  0  -0.540506  0  2.125605  0  0  -0.287787  -0.501572  0  2.13723  0
O  O133  1  0.74913810  0.34036042  0.84315983  1  0  -0.560001  0  1.914343  0  0  -0.517945  0  2.132492  0  0  -0.540626  0  2.125494  0  0  -0.287861  -0.501695  0  2.137125  0
O  O134  1  0.42106134  0.56785633  0.18778877  1  0  -0.714287  0  2.213149  0  0  -0.623111  0  2.531083  0  0  -0.655344  0  2.506078  0  0  -0.331077  -0.599711  0  2.547487  0
O  O135  1  0.57894780  0.43215147  0.81221615  1  0  -0.71441  0  2.213085  0  0  -0.623261  0  2.531042  0  0  -0.655496  0  2.50604  0  0  -0.331132  -0.59986  0  2.547443  0
O  O136  1  0.42598112  0.58953470  0.97741351  1  0  -0.67115  0  2.062295  0  0  -0.593194  0  2.333184  0  0  -0.622327  0  2.316769  0  0  -0.324135  -0.572398  0  2.343463  0
O  O137  1  0.57401920  0.41046788  0.02258819  1  0  -0.6711  0  2.062347  0  0  -0.593108  0  2.333213  0  0  -0.622239  0  2.316791  0  0  -0.324068  -0.572308  0  2.34349  0
O  O138  1  0.58741834  0.70835495  0.92633381  1  0  -0.600158  0  1.946989  0  0  -0.553261  0  2.181473  0  0  -0.576438  0  2.172455  0  0  -0.309218  -0.537168  0  2.187091  0
O  O139  1  0.41258010  0.29164501  0.07366504  1  0  -0.600137  0  1.947017  0  0  -0.553238  0  2.181513  0  0  -0.576422  0  2.172505  0  0  -0.309204  -0.537144  0  2.18713  0
