# generated using pymatgen
data_ZnSiH12C24N4(Cl2F3)2
_symmetry_space_group_name_H-M   'P 1'
_cell_length_a   7.74178525
_cell_length_b   14.00685395
_cell_length_c   14.00681148
_cell_angle_alpha   89.99516056
_cell_angle_beta   90.32508543
_cell_angle_gamma   90.32273951
_symmetry_Int_Tables_number   1
_chemical_formula_structural   ZnSiH12C24N4(Cl2F3)2
_chemical_formula_sum   'Zn1 Si1 H12 C24 N4 Cl4 F6'
_cell_volume   1518.82285115
_cell_formula_units_Z   1
loop_
 _symmetry_equiv_pos_site_id
 _symmetry_equiv_pos_as_xyz
  1  'x, y, z'
loop_
 _atom_site_type_symbol
 _atom_site_label
 _atom_site_symmetry_multiplicity
 _atom_site_fract_x
 _atom_site_fract_y
 _atom_site_fract_z
 _atom_site_occupancy
 _atom_site_pbe_bader_charge
 _atom_site_pbe_bader_spin_density
 _atom_site_pbe_cm5_charge
 _atom_site_pbe_ddec_charge
 _atom_site_pbe_ddec_spin_density
 _atom_site_pbe_ddec_sum_bond_order
 _atom_site_pbe_magmom
Zn  Zn0  1  0.50000419  0.49999985  0.50000060  1  1.369585  0  0.706173  0.746986  0  2.32389  0
Si  Si1  1  0.00000054  0.49999314  0.49999753  1  3.162458  0  0.25887  1.716664  0  3.952878  0
H  H2  1  0.23369412  0.66232211  0.50004315  1  0.192811  0  0.118685  0.106337  0  1.043005  0
H  H3  1  0.22490425  0.83959602  0.49999342  1  0.099935  0  0.108611  0.122769  0  1.009542  0
H  H4  1  0.77236776  0.66277626  0.49991150  1  0.16733  0  0.119322  0.118057  0  1.040753  0
H  H5  1  0.22766380  0.33723491  0.50006688  1  0.167554  0  0.119359  0.118018  0  1.040916  0
H  H6  1  0.76633914  0.33766978  0.50003234  1  0.192424  0  0.11878  0.106659  0  1.042586  0
H  H7  1  0.77510576  0.16039584  0.50008274  1  0.099762  0  0.108523  0.122564  0  1.009944  0
H  H8  1  0.23370027  0.50007113  0.66231964  1  0.193218  0  0.118625  0.106196  0  1.043234  0
H  H9  1  0.22491683  0.49999010  0.83959401  1  0.099979  0  0.108581  0.122792  0  1.009745  0
H  H10  1  0.77237398  0.49994268  0.66277916  1  0.167451  0  0.119414  0.118084  0  1.040751  0
H  H11  1  0.22766561  0.50009277  0.33722780  1  0.167658  0  0.11939  0.11811  0  1.040679  0
H  H12  1  0.76634003  0.49986009  0.33767947  1  0.192937  0  0.118705  0.106332  0  1.043139  0
H  H13  1  0.77510391  0.49990896  0.16040007  1  0.099671  0  0.108622  0.122701  0  1.009869  0
C  C14  1  0.35274537  0.70399025  0.49995489  1  0.49052  0  0.049948  0.091443  0  3.912234  0
C  C15  1  0.34839848  0.80287338  0.49992578  1  -0.021789  0  -0.067971  -0.139119  0  3.893028  0
C  C16  1  0.50351591  0.85589963  0.49991608  1  0.193671  0  0.014144  0.106148  0  4.09756  0
C  C17  1  0.65868360  0.80320372  0.49989407  1  0.101512  0  0.028176  0.069941  0  3.985878  0
C  C18  1  0.65315989  0.70370277  0.49989856  1  0.523044  0  0.049421  0.032228  0  3.892525  0
C  C19  1  0.50228380  0.95651529  0.50001027  1  -0.333464  0  -0.029587  -0.074267  0  4.097413  0
C  C20  1  0.49771992  0.04348583  0.50008945  1  -0.100026  0  -0.029469  -0.075044  0  4.097545  0
C  C21  1  0.49649405  0.14410579  0.50013795  1  0.193338  0  0.014046  0.1064  0  4.097317  0
C  C22  1  0.34133650  0.19680029  0.50012356  1  0.10202  0  0.02811  0.06986  0  3.985741  0
C  C23  1  0.34687309  0.29630697  0.50010482  1  0.522698  0  0.049433  0.032269  0  3.892475  0
C  C24  1  0.64728908  0.29601164  0.50009276  1  0.490859  0  0.049923  0.091196  0  3.911299  0
C  C25  1  0.65162176  0.19711707  0.50013112  1  -0.021953  0  -0.06799  -0.139047  0  3.892843  0
C  C26  1  0.35274922  0.49998652  0.70398711  1  0.490183  0  0.050052  0.091558  0  3.912296  0
C  C27  1  0.34840329  0.49993105  0.80287264  1  -0.021985  0  -0.067975  -0.139245  0  3.893163  0
C  C28  1  0.50353031  0.49989820  0.85589725  1  0.19395  0  0.014133  0.106334  0  4.097345  0
C  C29  1  0.65869235  0.49990727  0.80320435  1  0.101655  0  0.02813  0.069788  0  3.986012  0
C  C30  1  0.65316377  0.49993322  0.70370659  1  0.52334  0  0.049187  0.032092  0  3.892594  0
C  C31  1  0.50229005  0.49992814  0.95652748  1  -0.100206  0  -0.029601  -0.074924  0  4.09839  0
C  C32  1  0.49772043  0.49997948  0.04347301  1  -0.333387  0  -0.029548  -0.074472  0  4.098089  0
C  C33  1  0.49649582  0.50003800  0.14410398  1  0.193503  0  0.014337  0.106798  0  4.096612  0
C  C34  1  0.34133271  0.50007105  0.19679759  1  0.101807  0  0.02818  0.069784  0  3.985908  0
C  C35  1  0.34687305  0.50006724  0.29629965  1  0.523234  0  0.049217  0.032046  0  3.892369  0
C  C36  1  0.64729116  0.49995898  0.29601271  1  0.490555  0  0.050137  0.091559  0  3.911873  0
C  C37  1  0.65162277  0.49999586  0.19712359  1  -0.021739  0  -0.06831  -0.1396  0  3.893215  0
N  N38  1  0.50271828  0.65514658  0.49994250  1  -1.237987  0  -0.3107  -0.208627  0  3.508991  0
N  N39  1  0.49730700  0.34485458  0.50007943  1  -1.237899  0  -0.310767  -0.20865  0  3.509109  0
N  N40  1  0.50272167  0.49998314  0.65514712  1  -1.238483  0  -0.310663  -0.208415  0  3.509019  0
N  N41  1  0.49731504  0.50000019  0.34485555  1  -1.238961  0  -0.310682  -0.208423  0  3.508722  0
Cl  Cl42  1  0.85540736  0.86081065  0.49995254  1  -0.194186  0  0.012904  -0.057286  0  1.497492  0
Cl  Cl43  1  0.14459724  0.13920905  0.50005008  1  -0.193976  0  0.013002  -0.057182  0  1.497451  0
Cl  Cl44  1  0.85541692  0.49995352  0.86081725  1  -0.194378  0  0.012965  -0.057203  0  1.497433  0
Cl  Cl45  1  0.14460576  0.50005620  0.13919325  1  -0.193978  0  0.01298  -0.057192  0  1.497494  0
F  F46  1  0.22789952  0.50038176  0.50038872  1  -0.818039  0  -0.193619  -0.494256  0  1.351464  0
F  F47  1  0.77211520  0.49960796  0.49960178  1  -0.818076  0  -0.193594  -0.494284  0  1.351597  0
F  F48  1  0.99999544  0.58571321  0.41426389  1  -0.821925  0  -0.237384  -0.536085  0  1.100517  0
F  F49  1  0.99998775  0.41427417  0.58573270  1  -0.822044  0  -0.237415  -0.536081  0  1.100551  0
F  F50  1  0.00028945  0.58572441  0.58572120  1  -0.822144  0  -0.237428  -0.536168  0  1.100208  0
F  F51  1  0.99972011  0.41425746  0.41427786  1  -0.822037  0  -0.237384  -0.536146  0  1.10023  0
