# generated using pymatgen
data_Zn4H36C30O13
_symmetry_space_group_name_H-M   'P 1'
_cell_length_a   18.08289526
_cell_length_b   18.20996655
_cell_length_c   18.22046092
_cell_angle_alpha   60.65485454
_cell_angle_beta   60.51766564
_cell_angle_gamma   60.42120326
_symmetry_Int_Tables_number   1
_chemical_formula_structural   Zn4H36C30O13
_chemical_formula_sum   'Zn8 H72 C60 O26'
_cell_volume   4293.38580706
_cell_formula_units_Z   2
loop_
 _symmetry_equiv_pos_site_id
 _symmetry_equiv_pos_as_xyz
  1  'x, y, z'
loop_
 _atom_site_type_symbol
 _atom_site_label
 _atom_site_symmetry_multiplicity
 _atom_site_fract_x
 _atom_site_fract_y
 _atom_site_fract_z
 _atom_site_occupancy
 _atom_site_pbe_bader_charge
 _atom_site_pbe_bader_spin_density
 _atom_site_pbe_cm5_charge
 _atom_site_pbe_ddec_charge
 _atom_site_pbe_ddec_spin_density
 _atom_site_pbe_ddec_sum_bond_order
 _atom_site_pbe_magmom
Zn  Zn0  1  0.04919387  0.05209749  0.85630016  1  1.302417  0  0.666302  0.953936  0  2.390673  0
Zn  Zn1  1  0.04737979  0.05859654  0.03210484  1  1.314086  0  0.666988  0.957697  0  2.371528  0
Zn  Zn2  1  0.05225528  0.88109816  0.02902558  1  1.301403  0  0.665811  0.949885  0  2.40781  0
Zn  Zn3  1  0.87387822  0.05390371  0.03242911  1  1.308908  0  0.666671  0.954029  0  2.388644  0
Zn  Zn4  1  0.46234501  0.46674642  0.61712924  1  1.296341  0  0.666061  0.950126  0  2.408557  0
Zn  Zn5  1  0.45737723  0.46981187  0.44405419  1  1.309383  0  0.666508  0.956222  0  2.379142  0
Zn  Zn6  1  0.63874625  0.46665972  0.44449636  1  1.295617  0  0.666053  0.954617  0  2.384625  0
Zn  Zn7  1  0.46516390  0.64214919  0.44464326  1  1.299825  0  0.66638  0.954541  0  2.38955  0
H  H8  1  0.22771558  0.19272303  0.66717176  1  0.031636  0  0.092069  0.094323  0  0.987715  0
H  H9  1  0.30944293  0.11515689  0.71966865  1  0.018081  0  0.088222  0.082057  0  0.982131  0
H  H10  1  0.39903398  0.20604180  0.62724515  1  0.026913  0  0.088596  0.082854  0  0.982654  0
H  H11  1  0.31713609  0.28465352  0.57511973  1  0.004377  0  0.092061  0.093485  0  0.987388  0
H  H12  1  0.39038726  0.21846772  0.76554195  1  0.003804  0  0.088357  0.083293  0  0.980324  0
H  H13  1  0.30401784  0.30602282  0.80622556  1  0.025637  0  0.091436  0.092401  0  0.987762  0
H  H14  1  0.21223794  0.21688969  0.89778082  1  0.016897  0  0.091368  0.091925  0  0.986654  0
H  H15  1  0.29925655  0.12884394  0.85825840  1  0.01507  0  0.088329  0.083101  0  0.981377  0
H  H16  1  0.19322261  0.40909871  0.63441356  1  0.027529  0  0.092494  0.08945  0  0.981423  0
H  H17  1  0.18667554  0.41811930  0.73011965  1  0.025627  0  0.091978  0.087671  0  0.980311  0
H  H18  1  0.09635921  0.32807629  0.82066546  1  0.052197  0  0.091669  0.086743  0  0.981115  0
H  H19  1  0.10341835  0.31815619  0.72523873  1  0.034269  0  0.092035  0.089199  0  0.980993  0
H  H20  1  0.18564806  0.91914419  0.66810066  1  0.059351  0  0.092186  0.094678  0  0.986858  0
H  H21  1  0.10611724  0.86397550  0.72311971  1  0.015834  0  0.088582  0.083059  0  0.98025  0
H  H22  1  0.19552800  0.77335357  0.63319939  1  -0.006593  0  0.088378  0.082481  0  0.980068  0
H  H23  1  0.27542967  0.82819383  0.57769721  1  0.03955  0  0.092149  0.093988  0  0.987987  0
H  H24  1  0.20917533  0.63539273  0.77103270  1  0.019195  0  0.088772  0.084231  0  0.982361  0
H  H25  1  0.29798256  0.59561880  0.81029309  1  0.033226  0  0.091312  0.093048  0  0.985979  0
H  H26  1  0.20869077  0.68639454  0.90061326  1  0.034045  0  0.091571  0.093143  0  0.987018  0
H  H27  1  0.11977559  0.72566342  0.86162973  1  0.027485  0  0.089004  0.084555  0  0.980406  0
H  H28  1  0.40261392  0.77129568  0.63471066  1  0.052194  0  0.092873  0.091021  0  0.980534  0
H  H29  1  0.41209488  0.67555487  0.73067679  1  0.013089  0  0.091964  0.087845  0  0.979237  0
H  H30  1  0.32274058  0.76586486  0.82068532  1  0.03631  0  0.091905  0.087617  0  0.980511  0
H  H31  1  0.31317031  0.86186474  0.72486272  1  0.03438  0  0.092578  0.089711  0  0.980616  0
H  H32  1  0.91794441  0.23588076  0.67180024  1  0.052603  0  0.092067  0.093952  0  0.988079  0
H  H33  1  0.86396499  0.31465219  0.72737893  1  0.007071  0  0.088376  0.082374  0  0.981877  0
H  H34  1  0.77602393  0.40769808  0.63471017  1  -0.005775  0  0.088341  0.082709  0  0.980812  0
H  H35  1  0.82875299  0.32885305  0.57949057  1  0.053775  0  0.091986  0.0939  0  0.987152  0
H  H36  1  0.63482066  0.39876401  0.77189983  1  0.01206  0  0.088291  0.08296  0  0.981766  0
H  H37  1  0.59034175  0.31481827  0.80963388  1  0.032407  0  0.09153  0.093119  0  0.988645  0
H  H38  1  0.67951225  0.22036243  0.90162603  1  0.048103  0  0.091554  0.093176  0  0.985434  0
H  H39  1  0.72340893  0.30459357  0.86414303  1  0.008383  0  0.088676  0.084112  0  0.982697  0
H  H40  1  0.76495624  0.20813182  0.63445760  1  0.03531  0  0.09256  0.089588  0  0.980325  0
H  H41  1  0.66705615  0.20172177  0.72972450  1  0.049937  0  0.092248  0.088684  0  0.979662  0
H  H42  1  0.75679097  0.10782399  0.82038301  1  0.016051  0  0.091644  0.086903  0  0.980123  0
H  H43  1  0.85479743  0.11500981  0.72543454  1  0.018764  0  0.092897  0.090223  0  0.980855  0
H  H44  1  0.23534451  0.92760906  0.17012885  1  0.061794  0  0.091934  0.093062  0  0.986864  0
H  H45  1  0.31550864  0.87400361  0.08997791  1  0.011625  0  0.088369  0.082303  0  0.981601  0
H  H46  1  0.40616741  0.78323401  0.18010183  1  0.031916  0  0.088249  0.082151  0  0.982648  0
H  H47  1  0.32633556  0.83616866  0.26078052  1  0.029512  0  0.09189  0.093459  0  0.985967  0
H  H48  1  0.39461943  0.64564045  0.18711378  1  0.018326  0  0.08836  0.083031  0  0.981988  0
H  H49  1  0.30775214  0.60372708  0.27320333  1  0.035341  0  0.091671  0.093525  0  0.988324  0
H  H50  1  0.21505741  0.69507033  0.18484019  1  0.045529  0  0.091143  0.09277  0  0.986736  0
H  H51  1  0.30248663  0.73552545  0.09817106  1  0.023517  0  0.088682  0.084143  0  0.981972  0
H  H52  1  0.20081880  0.77637948  0.38349763  1  0.04038  0  0.092557  0.089567  0  0.980222  0
H  H53  1  0.19263644  0.68100883  0.38820979  1  0.067877  0  0.092068  0.088098  0  0.98076  0
H  H54  1  0.10137526  0.77296202  0.29892069  1  0.018613  0  0.091768  0.08718  0  0.979718  0
H  H55  1  0.11038187  0.86841976  0.29308785  1  0.061841  0  0.092611  0.089713  0  0.980198  0
H  H56  1  0.91410024  0.19725223  0.21475471  1  0.006191  0  0.091865  0.09372  0  0.988174  0
H  H57  1  0.86274422  0.11555091  0.29418439  1  0.009754  0  0.088668  0.083103  0  0.981668  0
H  H58  1  0.77156194  0.20415540  0.38617260  1  0.016494  0  0.087731  0.082152  0  0.980685  0
H  H59  1  0.82283700  0.28594869  0.30715695  1  0.021772  0  0.091947  0.093859  0  0.988414  0
H  H60  1  0.63132827  0.21105140  0.37745183  1  0.019816  0  0.088278  0.083013  0  0.981963  0
H  H61  1  0.58700755  0.29748814  0.29270528  1  0.032907  0  0.091635  0.093271  0  0.98746  0
H  H62  1  0.67829041  0.20910696  0.19997763  1  0.043051  0  0.091667  0.092484  0  0.986365  0
H  H63  1  0.72191509  0.12263072  0.28513095  1  -0.002658  0  0.088734  0.083984  0  0.982425  0
H  H64  1  0.75930800  0.40912148  0.18514884  1  0.033348  0  0.092598  0.089555  0  0.981195  0
H  H65  1  0.66215780  0.41397971  0.17891209  1  0.037  0  0.091757  0.087555  0  0.98127  0
H  H66  1  0.75303191  0.32543016  0.08708752  1  0.014023  0  0.092078  0.087733  0  0.980562  0
H  H67  1  0.85029791  0.32049663  0.09319912  1  0.014738  0  0.092179  0.088744  0  0.981707  0
H  H68  1  0.92410868  0.68760614  0.16749102  1  0.061901  0  0.091719  0.093179  0  0.987673  0
H  H69  1  0.86843521  0.73853836  0.08935833  1  0.000144  0  0.088096  0.082842  0  0.980821  0
H  H70  1  0.77972567  0.64662277  0.18105946  1  0.0115  0  0.08826  0.082387  0  0.982938  0
H  H71  1  0.83468159  0.59578734  0.25985758  1  0.034866  0  0.09176  0.092828  0  0.987392  0
H  H72  1  0.63911155  0.78512175  0.19095625  1  0.007655  0  0.088577  0.083481  0  0.982074  0
H  H73  1  0.59705001  0.82788552  0.27726675  1  0.04542  0  0.091865  0.093649  0  0.98887  0
H  H74  1  0.68660427  0.91938639  0.18730061  1  0.019241  0  0.091769  0.093237  0  0.986731  0
H  H75  1  0.72706672  0.87783388  0.10050811  1  0.008543  0  0.088303  0.082681  0  0.981171  0
H  H76  1  0.77550213  0.65780803  0.38230359  1  0.017793  0  0.092661  0.089293  0  0.979954  0
H  H77  1  0.67780243  0.75373638  0.39011425  1  0.029233  0  0.091879  0.088224  0  0.979365  0
H  H78  1  0.76740193  0.84459685  0.29894724  1  0.039667  0  0.09209  0.088344  0  0.979545  0
H  H79  1  0.86508782  0.74873384  0.29078030  1  0.035235  0  0.092347  0.088789  0  0.980632  0
C  C80  1  0.14232725  0.15338634  0.84657950  1  1.535193  0  0.233845  0.602021  0  4.098275  0
C  C81  1  0.20336986  0.21053402  0.78709323  1  0.039093  0  -0.016795  0.021202  0  3.806525  0
C  C82  1  0.26765049  0.18599119  0.70133135  1  -0.013268  0  -0.161949  -0.174995  0  3.872601  0
C  C83  1  0.32715170  0.24643311  0.64028720  1  -0.003417  0  -0.161512  -0.174784  0  3.875274  0
C  C84  1  0.30451948  0.31196058  0.68451589  1  0.035645  0  -0.016492  0.020934  0  3.806217  0
C  C85  1  0.31878812  0.25903187  0.77582308  1  0.027528  0  -0.16414  -0.175551  0  3.883437  0
C  C86  1  0.25849241  0.19961775  0.83669978  1  -0.015639  0  -0.163921  -0.175062  0  3.882586  0
C  C87  1  0.20378934  0.37022033  0.69944206  1  -0.042728  0  -0.153963  -0.168122  0  3.843885  0
C  C88  1  0.14371594  0.30991514  0.76004020  1  -0.045517  0  -0.153622  -0.167697  0  3.843318  0
C  C89  1  0.36175847  0.37297818  0.62482915  1  1.547064  0  0.234447  0.601012  0  4.09801  0
C  C90  1  0.14785178  0.86904238  0.84694404  1  1.550003  0  0.233602  0.599913  0  4.097126  0
C  C91  1  0.20344552  0.80921836  0.78864783  1  0.026285  0  -0.015947  0.022402  0  3.802622  0
C  C92  1  0.17786944  0.85297737  0.70370247  1  -0.024811  0  -0.161997  -0.175491  0  3.872444  0
C  C93  1  0.23724163  0.79288396  0.64390178  1  -0.018077  0  -0.162005  -0.175958  0  3.872426  0
C  C94  1  0.30365365  0.70782757  0.68775112  1  0.053231  0  -0.016382  0.022189  0  3.809106  0
C  C95  1  0.25060036  0.65688773  0.77985878  1  -0.060523  0  -0.163957  -0.177781  0  3.882469  0
C  C96  1  0.19133042  0.71689032  0.83974277  1  0.018027  0  -0.163802  -0.177009  0  3.878186  0
C  C97  1  0.36360449  0.73593316  0.70049736  1  0.001379  0  -0.154413  -0.169906  0  3.846389  0
C  C98  1  0.30408992  0.79613540  0.76045424  1  -0.077535  0  -0.154144  -0.168942  0  3.847691  0
C  C99  1  0.36519590  0.64964321  0.62804099  1  1.52972  0  0.234216  0.601853  0  4.100345  0
C  C100  1  0.86370134  0.14739401  0.84962506  1  1.584925  0  0.234085  0.602069  0  4.10251  0
C  C101  1  0.80454492  0.21114340  0.79077006  1  0.038623  0  -0.016392  0.02166  0  3.809034  0
C  C102  1  0.85164885  0.27524486  0.70673068  1  -0.029247  0  -0.161699  -0.175315  0  3.871326  0
C  C103  1  0.79277301  0.33705717  0.64556352  1  -0.009397  0  -0.161874  -0.175008  0  3.874673  0
C  C104  1  0.70484003  0.31606500  0.68797053  1  0.050512  0  -0.016769  0.021882  0  3.807094  0
C  C105  1  0.65361651  0.32837512  0.78031570  1  0.004065  0  -0.163268  -0.176029  0  3.880628  0
C  C106  1  0.71256965  0.26597686  0.84128584  1  -0.036183  0  -0.164265  -0.177865  0  3.886263  0
C  C107  1  0.72949553  0.21707652  0.70033784  1  -0.054107  0  -0.15392  -0.169586  0  3.845382  0
C  C108  1  0.78911566  0.15484754  0.76093949  1  -0.010525  0  -0.154272  -0.167797  0  3.847122  0
C  C109  1  0.64664656  0.37341704  0.62787459  1  1.548764  0  0.234466  0.602418  0  4.097247  0
C  C110  1  0.14689691  0.87700334  0.12639557  1  1.524503  0  0.234565  0.602801  0  4.098879  0
C  C111  1  0.20866362  0.81767213  0.18299602  1  0.063797  0  -0.017074  0.020529  0  3.807782  0
C  C112  1  0.27426090  0.86188190  0.16094259  1  -0.042493  0  -0.161499  -0.174011  0  3.873149  0
C  C113  1  0.33451283  0.80141058  0.22085989  1  -0.023698  0  -0.162133  -0.174217  0  3.874101  0
C  C114  1  0.31071263  0.71542150  0.28377788  1  0.073574  0  -0.016237  0.021109  0  3.805243  0
C  C115  1  0.32326522  0.66567232  0.22815265  1  -0.002324  0  -0.163906  -0.176978  0  3.884192  0
C  C116  1  0.26235998  0.72586873  0.16915721  1  -0.046356  0  -0.164099  -0.176614  0  3.884825  0
C  C117  1  0.21021215  0.74198458  0.34244770  1  -0.097626  0  -0.153695  -0.168035  0  3.843568  0
C  C118  1  0.14963442  0.80316346  0.28257588  1  -0.045864  0  -0.154223  -0.168884  0  3.843743  0
C  C119  1  0.36738612  0.65552984  0.34540174  1  1.500978  0  0.233372  0.601237  0  4.097304  0
C  C120  1  0.86223940  0.15306859  0.12864188  1  1.537749  0  0.233949  0.600659  0  4.100176  0
C  C121  1  0.80219931  0.20896879  0.19088603  1  0.056255  0  -0.017002  0.022074  0  3.805239  0
C  C122  1  0.84863853  0.18690236  0.25442108  1  0.004206  0  -0.162679  -0.175896  0  3.879171  0
C  C123  1  0.78823809  0.24567631  0.31544776  1  0.000423  0  -0.162643  -0.175485  0  3.877588  0
C  C124  1  0.70020994  0.30840443  0.29390384  1  0.071149  0  -0.016491  0.019981  0  3.811045  0
C  C125  1  0.65023777  0.25255295  0.30690942  1  0.002568  0  -0.162882  -0.175974  0  3.881975  0
C  C126  1  0.71056621  0.19384887  0.24571271  1  -0.023682  0  -0.163415  -0.175768  0  3.879066  0
C  C127  1  0.72463571  0.36808239  0.19471821  1  -0.063088  0  -0.153965  -0.168437  0  3.846742  0
C  C128  1  0.78523690  0.30903311  0.13351787  1  0.017399  0  -0.153673  -0.167646  0  3.845682  0
C  C129  1  0.64156082  0.36953066  0.35089602  1  1.515425  0  0.23294  0.600687  0  4.102111  0
C  C130  1  0.86985799  0.86824040  0.12581252  1  1.551459  0  0.233674  0.600296  0  4.101751  0
C  C131  1  0.81161175  0.80836474  0.18289002  1  0.042535  0  -0.01647  0.02164  0  3.80876  0
C  C132  1  0.85725336  0.72153827  0.16003070  1  -0.026892  0  -0.162063  -0.175085  0  3.873732  0
C  C133  1  0.79815651  0.66067387  0.22096186  1  -0.024611  0  -0.162721  -0.175285  0  3.876204  0
C  C134  1  0.71153863  0.70598538  0.28529778  1  0.027842  0  -0.016175  0.021673  0  3.804688  0
C  C135  1  0.65945184  0.79672649  0.23116277  1  -0.022717  0  -0.163286  -0.175834  0  3.883227  0
C  C136  1  0.71834341  0.85754325  0.17115964  1  0.008691  0  -0.16356  -0.175596  0  3.882312  0
C  C137  1  0.73897166  0.72249685  0.34287294  1  0.008587  0  -0.153651  -0.168223  0  3.842823  0
C  C138  1  0.79862368  0.78312346  0.28202573  1  -0.056474  0  -0.153997  -0.16869  0  3.843668  0
C  C139  1  0.65246828  0.64691966  0.34756380  1  1.579703  0  0.233387  0.600687  0  4.099914  0
O  O140  1  0.00605206  0.01195948  0.98716524  1  -1.214636  0  -0.573326  -1.024382  0  2.543696  0
O  O141  1  0.12043501  0.13197492  0.93066726  1  -1.15786  0  -0.315133  -0.549454  0  2.35563  0
O  O142  1  0.11686350  0.13249120  0.80741325  1  -1.174872  0  -0.316269  -0.549856  0  2.35158  0
O  O143  1  0.37943678  0.39879456  0.54077780  1  -1.160507  0  -0.315834  -0.548917  0  2.337708  0
O  O144  1  0.38688477  0.39457056  0.66362570  1  -1.191294  0  -0.31511  -0.548409  0  2.365725  0
O  O145  1  0.12778384  0.83059591  0.93117275  1  -1.175471  0  -0.314131  -0.54585  0  2.352881  0
O  O146  1  0.12704631  0.95326311  0.80703289  1  -1.167588  0  -0.315809  -0.549811  0  2.348247  0
O  O147  1  0.39147801  0.68997919  0.54421951  1  -1.177321  0  -0.317282  -0.551665  0  2.352905  0
O  O148  1  0.38728445  0.56528193  0.66634410  1  -1.171072  0  -0.314653  -0.546132  0  2.360798  0
O  O149  1  0.82444832  0.12690111  0.93387351  1  -1.196639  0  -0.315002  -0.547868  0  2.35506  0
O  O150  1  0.94813019  0.11802233  0.80983464  1  -1.190947  0  -0.31713  -0.551424  0  2.354318  0
O  O151  1  0.68740058  0.39515993  0.54381639  1  -1.179631  0  -0.31568  -0.550119  0  2.345237  0
O  O152  1  0.56154857  0.39324576  0.66624029  1  -1.187139  0  -0.315867  -0.549004  0  2.357623  0
O  O153  1  0.12464458  0.83714791  0.10316099  1  -1.181404  0  -0.316501  -0.549974  0  2.371348  0
O  O154  1  0.12098434  0.96136770  0.10779762  1  -1.171711  0  -0.315197  -0.549484  0  2.336734  0
O  O155  1  0.39260794  0.69373632  0.36766462  1  -1.165066  0  -0.314628  -0.547852  0  2.343931  0
O  O156  1  0.38370259  0.57168088  0.37146210  1  -1.173487  0  -0.315998  -0.550235  0  2.358232  0
O  O157  1  0.82324745  0.13031776  0.10475415  1  -1.186997  0  -0.314531  -0.546438  0  2.353971  0
O  O158  1  0.94716795  0.13424028  0.10405983  1  -1.172272  0  -0.315893  -0.551187  0  2.349685  0
O  O159  1  0.68267781  0.39226886  0.37238261  1  -1.173534  0  -0.316237  -0.549803  0  2.35989  0
O  O160  1  0.55640441  0.39468168  0.37101509  1  -1.169661  0  -0.314924  -0.547505  0  2.347753  0
O  O161  1  0.82918283  0.95227753  0.10940620  1  -1.175555  0  -0.316502  -0.551274  0  2.353066  0
O  O162  1  0.95494448  0.82967554  0.10020228  1  -1.183285  0  -0.314864  -0.54579  0  2.358055  0
O  O163  1  0.69203482  0.56252075  0.36886765  1  -1.193816  0  -0.314695  -0.546332  0  2.34419  0
O  O164  1  0.56771149  0.68655817  0.37497414  1  -1.184028  0  -0.315774  -0.551248  0  2.360154  0
O  O165  1  0.50650878  0.51110476  0.48645404  1  -1.184987  0  -0.573138  -1.025097  0  2.546531  0
