# generated using pymatgen
data_Zr3H34C49(ClO8)2
_symmetry_space_group_name_H-M   'P 1'
_cell_length_a   19.08668327
_cell_length_b   19.07629103
_cell_length_c   19.08045485
_cell_angle_alpha   59.79046641
_cell_angle_beta   59.96492760
_cell_angle_gamma   60.00203420
_symmetry_Int_Tables_number   1
_chemical_formula_structural   Zr3H34C49(ClO8)2
_chemical_formula_sum   'Zr6 H68 C98 Cl4 O32'
_cell_volume   4903.40144443
_cell_formula_units_Z   2
loop_
 _symmetry_equiv_pos_site_id
 _symmetry_equiv_pos_as_xyz
  1  'x, y, z'
loop_
 _atom_site_type_symbol
 _atom_site_label
 _atom_site_symmetry_multiplicity
 _atom_site_fract_x
 _atom_site_fract_y
 _atom_site_fract_z
 _atom_site_occupancy
 _atom_site_pbe_bader_charge
 _atom_site_pbe_bader_spin_density
 _atom_site_pbe_cm5_charge
 _atom_site_pbe_ddec_charge
 _atom_site_pbe_ddec_spin_density
 _atom_site_pbe_ddec_sum_bond_order
 _atom_site_pbe_magmom
Zr  Zr0  1  0.90414877  0.41059145  0.59219858  1  2.631867  0  1.631437  2.366846  0  2.777968  0
Zr  Zr1  1  0.09300508  0.59155759  0.41122171  1  2.631797  0  1.63155  2.366956  0  2.777655  0
Zr  Zr2  1  0.08958526  0.40612618  0.59669608  1  2.634836  0  1.626572  2.372558  0  2.752683  0
Zr  Zr3  1  0.90761701  0.59601058  0.40669322  1  2.635319  0  1.626824  2.373298  0  2.752558  0
Zr  Zr4  1  0.90609865  0.59354213  0.59413515  1  2.63531  0  1.628136  2.368138  0  2.762743  0
Zr  Zr5  1  0.09090021  0.40875134  0.40943223  1  2.632609  0  1.631973  2.368412  0  2.77469  0
H  H6  1  0.92263286  0.42783598  0.72103859  1  0.6012  0  0.330634  0.421623  0  0.860849  0
H  H7  1  0.92848380  0.72036950  0.42836542  1  0.592213  0  0.330754  0.421816  0  0.859293  0
H  H8  1  0.21724076  0.42515268  0.43201080  1  0.596282  0  0.331706  0.423652  0  0.857824  0
H  H9  1  0.92563181  0.43134739  0.42570612  1  0.602828  0  0.331941  0.423338  0  0.857493  0
H  H10  1  0.46411412  0.60175342  0.05423405  1  0.060578  0  0.098382  0.098395  0  1.021133  0
H  H11  1  0.55882307  0.37734942  0.97351575  1  0.08118  0  0.098538  0.09919  0  1.019727  0
H  H12  1  0.64823896  0.63485917  0.78652530  1  0.120653  0  0.106554  0.110678  0  1.001335  0
H  H13  1  0.51307970  0.64380516  0.91159379  1  0.06927  0  0.101875  0.102956  0  1.003903  0
H  H14  1  0.29451226  0.41761410  0.16352925  1  0.079458  0  0.105815  0.109746  0  1.006585  0
H  H15  1  0.41764181  0.41936375  0.02691365  1  0.035595  0  0.101069  0.101767  0  1.006537  0
H  H16  1  0.08964931  0.97350075  0.37717518  1  0.055367  0  0.099033  0.100392  0  1.019242  0
H  H17  1  0.87948446  0.05416068  0.60149760  1  0.066107  0  0.098419  0.098127  0  1.021115  0
H  H18  1  0.12422040  0.16307561  0.41816224  1  0.08157  0  0.105854  0.110053  0  1.006574  0
H  H19  1  0.13587091  0.02669678  0.41946911  1  0.07387  0  0.101305  0.102232  0  1.005868  0
H  H20  1  0.93001166  0.78646015  0.63507604  1  0.113711  0  0.106602  0.110591  0  1.001236  0
H  H21  1  0.93128739  0.91156681  0.64380835  1  0.056393  0  0.101867  0.103104  0  1.00372  0
H  H22  1  0.46642684  0.06039178  0.37871096  1  0.07417  0  0.098181  0.098427  0  1.020404  0
H  H23  1  0.55407558  0.96969321  0.59674870  1  0.058402  0  0.098036  0.09829  0  1.020959  0
H  H24  1  0.65816564  0.79474695  0.42021928  1  0.103576  0  0.106023  0.110694  0  1.002289  0
H  H25  1  0.52073177  0.91682372  0.42299075  1  0.049891  0  0.100918  0.101528  0  1.005837  0
H  H26  1  0.28492173  0.14884956  0.63612917  1  0.061159  0  0.104952  0.109757  0  1.001922  0
H  H27  1  0.41036909  0.01404060  0.64380235  1  0.045242  0  0.100897  0.101978  0  1.006956  0
H  H28  1  0.88008760  0.59740910  0.96942209  1  0.03288  0  0.098266  0.098336  0  1.021215  0
H  H29  1  0.09537636  0.37902625  0.05988341  1  0.029763  0  0.098381  0.098714  0  1.020627  0
H  H30  1  0.93037010  0.63581605  0.14931768  1  0.096164  0  0.104995  0.109732  0  1.002859  0
H  H31  1  0.93210179  0.64386815  0.01432830  1  0.071869  0  0.1007  0.101551  0  1.008168  0
H  H32  1  0.12681578  0.41988695  0.79514217  1  0.102439  0  0.10596  0.110742  0  1.002637  0
H  H33  1  0.13971099  0.42290898  0.91688574  1  0.049525  0  0.101277  0.10231  0  1.006124  0
H  H34  1  0.12196094  0.81475726  0.16997547  1  0.116878  0  0.101808  0.110722  0  1.042617  0
H  H35  1  0.89773422  0.81184951  0.17285182  1  0.109151  0  0.103056  0.115371  0  1.033059  0
H  H36  1  0.89322372  0.16943888  0.81534038  1  0.111472  0  0.101947  0.110978  0  1.042392  0
H  H37  1  0.11770909  0.17211010  0.81222204  1  0.123639  0  0.102745  0.114672  0  1.033107  0
H  H38  1  0.46954072  0.37831486  0.59774918  1  0.047631  0  0.098318  0.09859  0  1.020912  0
H  H39  1  0.55442939  0.59724189  0.37876034  1  0.056028  0  0.098242  0.098073  0  1.021643  0
H  H40  1  0.65368306  0.43020777  0.63009179  1  0.117112  0  0.106458  0.11103  0  1.002934  0
H  H41  1  0.51819183  0.42929375  0.64218684  1  0.060048  0  0.101058  0.10153  0  1.005256  0
H  H42  1  0.28592823  0.62951902  0.43077323  1  0.081589  0  0.106361  0.110925  0  1.002878  0
H  H43  1  0.41017555  0.64172113  0.42985934  1  0.061326  0  0.100909  0.101313  0  1.005145  0
H  H44  1  0.38690650  0.65146677  0.16295979  1  0.012246  0  0.084991  0.115476  0  1.010105  0
H  H45  1  0.33175236  0.58821460  0.26433412  1  0.074576  0  0.095592  0.140751  0  0.998571  0
H  H46  1  0.27445375  0.67427512  0.19588503  1  0.064705  0  0.094283  0.138061  0  1.001006  0
H  H47  1  0.67142710  0.29557210  0.89800371  1  -0.00384  0  0.083693  0.114405  0  1.015134  0
H  H48  1  0.76792599  0.32166754  0.83374217  1  0.035916  0  0.09232  0.13693  0  1.008504  0
H  H49  1  0.69614580  0.35034070  0.78479150  1  0.039932  0  0.09637  0.139194  0  0.991481  0
H  H50  1  0.13395940  0.89809404  0.29545359  1  0.015441  0  0.083503  0.114247  0  1.01596  0
H  H51  1  0.07619260  0.83310586  0.32197595  1  0.054028  0  0.092556  0.137211  0  1.009219  0
H  H52  1  0.16837362  0.78497317  0.35023023  1  0.051429  0  0.096089  0.13878  0  0.991312  0
H  H53  1  0.79790035  0.16335366  0.65055391  1  0.030736  0  0.084794  0.115515  0  1.00981  0
H  H54  1  0.81590721  0.26430840  0.58861403  1  0.080753  0  0.095444  0.140645  0  0.999956  0
H  H55  1  0.85468690  0.19445688  0.67517035  1  0.073236  0  0.094205  0.137981  0  1.001294  0
H  H56  1  0.38853444  0.17159920  0.29875578  1  0.016334  0  0.085856  0.116175  0  1.008482  0
H  H57  1  0.32661047  0.26908576  0.32299206  1  0.07041  0  0.095071  0.140434  0  1.007429  0
H  H58  1  0.27587290  0.19747812  0.35504465  1  0.054906  0  0.096226  0.137928  0  0.996066  0
H  H59  1  0.66766274  0.89712021  0.63992483  1  0.020567  0  0.08633  0.116836  0  1.007838  0
H  H60  1  0.76632663  0.83631204  0.58023090  1  0.053105  0  0.095088  0.140029  0  1.003007  0
H  H61  1  0.69591758  0.78385534  0.67048052  1  0.059173  0  0.096365  0.138275  0  0.99399  0
H  H62  1  0.79596943  0.64123012  0.89658067  1  0.01548  0  0.086121  0.116748  0  1.007605  0
H  H63  1  0.81699789  0.58068196  0.83702671  1  0.067021  0  0.095164  0.140243  0  1.001726  0
H  H64  1  0.85047882  0.67050860  0.78328088  1  0.051757  0  0.096744  0.138502  0  0.995275  0
H  H65  1  0.14229050  0.29891985  0.17093784  1  0.011697  0  0.085851  0.116266  0  1.008669  0
H  H66  1  0.08196749  0.32268066  0.26869359  1  0.075863  0  0.094996  0.14005  0  1.006974  0
H  H67  1  0.17213013  0.35511598  0.19763713  1  0.049411  0  0.096243  0.138035  0  0.995558  0
H  H68  1  0.39437642  0.29463207  0.64543704  1  -0.006635  0  0.085749  0.115925  0  1.008509  0
H  H69  1  0.33499238  0.31628971  0.58429496  1  0.075884  0  0.095577  0.140846  0  0.997591  0
H  H70  1  0.28115383  0.34839674  0.67471060  1  0.055966  0  0.096729  0.138724  0  0.994507  0
H  H71  1  0.66566716  0.64484033  0.29510080  1  0.03242  0  0.085844  0.115733  0  1.008154  0
H  H72  1  0.76452698  0.58356516  0.31677089  1  0.061623  0  0.095509  0.140779  0  0.997053  0
H  H73  1  0.69595369  0.67398532  0.34889349  1  0.045365  0  0.0968  0.138737  0  0.994615  0
C  C74  1  0.75747062  0.50390484  0.73179711  1  1.535244  0  0.233239  0.642107  0  4.102241  0
C  C75  1  0.00658418  0.73139764  0.50432458  1  1.551739  0  0.233656  0.64238  0  4.09997  0
C  C76  1  0.23305789  0.50458407  0.26484270  1  1.525925  0  0.233663  0.641127  0  4.100972  0
C  C77  1  0.99741774  0.26421331  0.50527970  1  1.542546  0  0.233616  0.641918  0  4.098989  0
C  C78  1  0.00010630  0.26025758  0.73357867  1  1.569994  0  0.236849  0.639664  0  4.100836  0
C  C79  1  0.75929515  0.51094092  0.49895813  1  1.551874  0  0.234213  0.642931  0  4.093894  0
C  C80  1  0.00598639  0.73299482  0.26084347  1  1.553018  0  0.237155  0.639958  0  4.09861  0
C  C81  1  0.23072519  0.49841271  0.51157698  1  1.537822  0  0.234237  0.642494  0  4.094394  0
C  C82  1  0.99794244  0.50376017  0.73642091  1  1.538533  0  0.234747  0.644823  0  4.096786  0
C  C83  1  0.22775694  0.25897679  0.50610194  1  1.528577  0  0.234123  0.643007  0  4.097777  0
C  C84  1  0.00742709  0.50554723  0.25938723  1  1.53664  0  0.233752  0.642057  0  4.09629  0
C  C85  1  0.76199945  0.73591437  0.50405641  1  1.545673  0  0.234784  0.644079  0  4.095941  0
C  C86  1  0.30830833  0.50994361  0.18417687  1  -0.037488  0  -0.021445  -0.115635  0  3.9202  0
C  C87  1  0.67741109  0.50306288  0.80769376  1  -0.04445  0  -0.021377  -0.115159  0  3.923414  0
C  C88  1  0.35540890  0.56432571  0.15299300  1  0.033289  0  0.006556  0.181375  0  3.921336  0
C  C89  1  0.42562479  0.56251253  0.07705274  1  -0.048727  0  -0.093727  -0.201684  0  3.934499  0
C  C90  1  0.65152472  0.42918738  0.85934029  1  -0.04682  0  0.004291  0.177164  0  3.926654  0
C  C91  1  0.57702556  0.43504689  0.93110212  1  -0.014381  0  -0.093955  -0.200474  0  3.935642  0
C  C92  1  0.62708908  0.57895073  0.82820745  1  -0.049331  0  -0.083373  -0.079384  0  4.011898  0
C  C93  1  0.55228284  0.58340282  0.89861401  1  -0.007562  0  -0.095008  -0.145426  0  4.002067  0
C  C94  1  0.33249618  0.45808124  0.13813389  1  -0.044504  0  -0.084324  -0.080363  0  4.016002  0
C  C95  1  0.40168690  0.45864743  0.06237983  1  0.030786  0  -0.095674  -0.146051  0  4.00889  0
C  C96  1  0.45023272  0.51094661  0.03070911  1  -0.064253  0  -0.002147  0.085855  0  4.014394  0
C  C97  1  0.52658711  0.51032233  0.95242777  1  -0.059473  0  -0.003213  0.084657  0  4.013954  0
C  C98  1  0.01140371  0.80751534  0.50323953  1  -0.014274  0  -0.021182  -0.114788  0  3.921838  0
C  C99  1  0.99739093  0.18372183  0.51035694  1  -0.032642  0  -0.021303  -0.115492  0  3.919529  0
C  C100  1  0.05938893  0.85921912  0.42923818  1  -0.037236  0  0.004785  0.178553  0  3.92476  0
C  C101  1  0.05627593  0.93105092  0.43496285  1  -0.037658  0  -0.094804  -0.203374  0  3.936293  0
C  C102  1  0.92696142  0.15269797  0.56446335  1  0.01273  0  0.005689  0.17976  0  3.921855  0
C  C103  1  0.93445456  0.07688855  0.56244958  1  -0.060421  0  -0.093351  -0.200326  0  3.934351  0
C  C104  1  0.07112367  0.13772870  0.45846166  1  -0.021396  0  -0.084269  -0.080177  0  4.016429  0
C  C105  1  0.07705543  0.06212607  0.45879046  1  -0.045557  0  -0.095861  -0.14719  0  4.00916  0
C  C106  1  0.96533976  0.82813709  0.57907726  1  -0.094953  0  -0.083518  -0.079174  0  4.011199  0
C  C107  1  0.96535525  0.89854966  0.58342440  1  -0.031424  0  -0.094935  -0.146139  0  4.00225  0
C  C108  1  0.01029667  0.95233425  0.51026677  1  0.025904  0  -0.002508  0.086303  0  4.014627  0
C  C109  1  0.00781061  0.03054786  0.51092488  1  -0.028168  0  -0.002717  0.085615  0  4.015505  0
C  C110  1  0.30328996  0.17868393  0.50493078  1  0.004703  0  -0.021441  -0.116898  0  3.922363  0
C  C111  1  0.68161626  0.81146516  0.50870675  1  -0.017012  0  -0.020665  -0.114772  0  3.921178  0
C  C112  1  0.35327189  0.15287712  0.43120371  1  0.023349  0  0.004562  0.178831  0  3.922318  0
C  C113  1  0.42528716  0.07848372  0.43636158  1  -0.060568  0  -0.093215  -0.201448  0  3.935508  0
C  C114  1  0.65214484  0.86030728  0.56062233  1  -0.029438  0  0.005209  0.17845  0  3.926661  0
C  C115  1  0.57569809  0.92987012  0.55942297  1  -0.005815  0  -0.09403  -0.20278  0  3.937997  0
C  C116  1  0.63383567  0.83375591  0.45920506  1  -0.054395  0  -0.083758  -0.078281  0  4.009339  0
C  C117  1  0.55760014  0.90238274  0.46030854  1  -0.013993  0  -0.095163  -0.146085  0  4.005069  0
C  C118  1  0.32540423  0.12805397  0.58016001  1  -0.018928  0  -0.084715  -0.080044  0  4.014122  0
C  C119  1  0.39602441  0.05341242  0.58391669  1  -0.050476  0  -0.095777  -0.147064  0  4.005846  0
C  C120  1  0.44843993  0.02808251  0.51081482  1  -0.046459  0  -0.003222  0.08509  0  4.016082  0
C  C121  1  0.52727380  0.95230440  0.51064361  1  -0.052723  0  -0.002469  0.086831  0  4.014098  0
C  C122  1  0.99833426  0.50869146  0.81170498  1  0.039576  0  -0.021433  -0.115391  0  3.921681  0
C  C123  1  0.01361105  0.50470824  0.17880252  1  -0.052572  0  -0.021627  -0.116473  0  3.921902  0
C  C124  1  0.92724416  0.56095354  0.86031470  1  -0.018404  0  0.004942  0.176989  0  3.928253  0
C  C125  1  0.93548483  0.55985801  0.92973194  1  0.021904  0  -0.093634  -0.201424  0  3.937094  0
C  C126  1  0.06337407  0.43117465  0.15270070  1  0.050107  0  0.005107  0.180143  0  3.922473  0
C  C127  1  0.06063747  0.43654546  0.07818221  1  -0.0798  0  -0.093752  -0.2035  0  3.936311  0
C  C128  1  0.96680267  0.57998623  0.12829653  1  -0.027053  0  -0.08528  -0.080798  0  4.01652  0
C  C129  1  0.96711308  0.58396474  0.05352725  1  -0.11432  0  -0.09528  -0.146702  0  4.007293  0
C  C130  1  0.07332243  0.45910587  0.83398702  1  -0.108114  0  -0.083113  -0.077491  0  4.009598  0
C  C131  1  0.07997728  0.46034816  0.90243970  1  -0.001687  0  -0.096066  -0.147626  0  4.006473  0
C  C132  1  0.01022060  0.51090854  0.95221513  1  -0.067483  0  -0.002659  0.08624  0  4.012999  0
C  C133  1  0.01326373  0.51101439  0.02794318  1  0.068214  0  -0.002851  0.086825  0  4.013705  0
C  C134  1  0.07371833  0.84325707  0.14004221  1  -0.04008  0  -0.081172  -0.1297  0  3.930257  0
C  C135  1  0.07593438  0.91494968  0.06455589  1  0.071068  0  -0.008305  0.033006  0  4.015907  0
C  C136  1  0.14139019  0.95373269  0.02332146  1  0.107594  0  0.008621  0.034948  0  4.032574  0
C  C137  1  0.94672549  0.84156066  0.14150380  1  0.03302  0  -0.080362  -0.12606  0  3.922244  0
C  C138  1  0.94647834  0.91318353  0.06604665  1  -0.006829  0  -0.008865  0.033437  0  4.013992  0
C  C139  1  0.88253141  0.95028573  0.02644072  1  0.125733  0  0.008832  0.0345  0  4.033666  0
C  C140  1  0.94295199  0.13944633  0.84380110  1  0.023256  0  -0.081278  -0.130135  0  3.929641  0
C  C141  1  0.94446308  0.06400099  0.91554216  1  -0.059545  0  -0.008496  0.033461  0  4.014691  0
C  C142  1  0.88137640  0.02285214  0.95440324  1  0.08296  0  0.008305  0.035133  0  4.031986  0
C  C143  1  0.07030776  0.14078545  0.84197231  1  -0.021805  0  -0.079826  -0.124757  0  3.921045  0
C  C144  1  0.07434946  0.06535895  0.91362987  1  0.049065  0  -0.008168  0.034173  0  4.014163  0
C  C145  1  0.14076730  0.02575291  0.95075376  1  0.070689  0  0.008527  0.034539  0  4.032069  0
C  C146  1  0.00922780  0.80765147  0.17842183  1  0.004899  0  -0.013283  -0.020938  0  3.981952  0
C  C147  1  0.01105409  0.95177129  0.02696874  1  -0.00354  0  0.005792  0.016062  0  3.9231  0
C  C148  1  0.00471886  0.17776338  0.80814990  1  -0.010203  0  -0.013822  -0.021814  0  3.982445  0
C  C149  1  0.01017167  0.02636911  0.95231439  1  0.0096  0  0.005632  0.014883  0  3.923957  0
C  C150  1  0.30613329  0.49890664  0.51622408  1  -0.012373  0  -0.021105  -0.115839  0  3.920108  0
C  C151  1  0.67874207  0.51562636  0.49942710  1  0.007869  0  -0.021512  -0.115733  0  3.920999  0
C  C152  1  0.35708868  0.42672525  0.56592575  1  -0.045971  0  0.004391  0.1776  0  3.925721  0
C  C153  1  0.42791175  0.43461578  0.56248026  1  -1.8e-05  0  -0.093497  -0.202612  0  3.934147  0
C  C154  1  0.65029225  0.56532101  0.42722006  1  -0.039143  0  0.004585  0.177097  0  3.926059  0
C  C155  1  0.57500544  0.56193861  0.43507284  1  -0.005338  0  -0.093496  -0.201734  0  3.934052  0
C  C156  1  0.63051821  0.46697268  0.57550812  1  -0.070482  0  -0.083832  -0.079021  0  4.013764  0
C  C157  1  0.55546299  0.46590648  0.58176106  1  0.020645  0  -0.09565  -0.146009  0  4.007736  0
C  C158  1  0.32693301  0.57497337  0.46752635  1  -0.017875  0  -0.083745  -0.078451  0  4.012897  0
C  C159  1  0.39675434  0.58127441  0.46648444  1  -0.023141  0  -0.09568  -0.146367  0  4.008232  0
C  C160  1  0.44942453  0.51012349  0.51368391  1  -0.073419  0  -0.00298  0.085776  0  4.012682  0
C  C161  1  0.52675180  0.51315159  0.51058330  1  -0.114378  0  -0.002813  0.085365  0  4.011903  0
C  C162  1  0.33635919  0.62248005  0.19642318  1  -0.071173  0  -0.241246  -0.413324  0  3.973482  0
C  C163  1  0.69937119  0.34460211  0.84347320  1  0.003428  0  -0.241453  -0.412853  0  3.975727  0
C  C164  1  0.11192452  0.84335515  0.34463874  1  -0.041693  0  -0.241648  -0.413079  0  3.977052  0
C  C165  1  0.84434291  0.19611159  0.62257218  1  -0.109167  0  -0.24072  -0.413021  0  3.975242  0
C  C166  1  0.33546146  0.20043743  0.34741469  1  -0.048867  0  -0.240312  -0.412486  0  3.975027  0
C  C167  1  0.69804285  0.84381874  0.61543425  1  -0.046528  0  -0.240016  -0.41207  0  3.975009  0
C  C168  1  0.84310778  0.61600057  0.84370474  1  -0.060438  0  -0.240105  -0.412041  0  3.976381  0
C  C169  1  0.11751114  0.34737327  0.20013568  1  -0.048837  0  -0.240122  -0.412348  0  3.974457  0
C  C170  1  0.34136264  0.34190596  0.62027233  1  -0.019388  0  -0.239138  -0.410655  0  3.972357  0
C  C171  1  0.69657899  0.61960661  0.34239325  1  -0.042829  0  -0.239182  -0.410231  0  3.971921  0
Cl  Cl172  1  0.21977295  0.07082511  0.90231950  1  -0.187196  0  -0.001493  -0.061667  0  1.5339  0
Cl  Cl173  1  0.22086453  0.90782308  0.06710637  1  -0.188523  0  0.004361  -0.056672  0  1.550033  0
Cl  Cl174  1  0.80400580  0.06667907  0.90851952  1  -0.190474  0  0.004377  -0.056874  0  1.549904  0
Cl  Cl175  1  0.80687639  0.90188517  0.07152807  1  -0.184103  0  -0.001367  -0.061522  0  1.535687  0
O  O176  1  0.79058948  0.44484680  0.69969190  1  -1.175282  0  -0.35977  -0.61543  0  2.337802  0
O  O177  1  0.06475385  0.69917077  0.44536137  1  -1.176868  0  -0.359688  -0.615509  0  2.33508  0
O  O178  1  0.20155501  0.56193468  0.29864692  1  -1.185244  0  -0.359262  -0.61472  0  2.339225  0
O  O179  1  0.93781421  0.29784487  0.56279089  1  -1.185925  0  -0.358835  -0.614683  0  2.336807  0
O  O180  1  0.05804368  0.29224465  0.70529596  1  -1.184667  0  -0.357558  -0.614779  0  2.295176  0
O  O181  1  0.79334972  0.56852562  0.43938323  1  -1.186473  0  -0.356581  -0.615192  0  2.319583  0
O  O182  1  0.94438114  0.70468495  0.29278582  1  -1.176104  0  -0.357725  -0.614993  0  2.294137  0
O  O183  1  0.19872318  0.43878827  0.56914340  1  -1.18657  0  -0.356636  -0.614956  0  2.32092  0
O  O184  1  0.93885587  0.56214879  0.70414557  1  -1.178241  0  -0.358751  -0.615843  0  2.333615  0
O  O185  1  0.19606902  0.29365638  0.44626400  1  -1.18283  0  -0.360699  -0.61551  0  2.3433  0
O  O186  1  0.06412132  0.44558818  0.29420625  1  -1.173536  0  -0.359899  -0.614508  0  2.341732  0
O  O187  1  0.79480704  0.70352277  0.56259589  1  -1.182151  0  -0.359057  -0.61599  0  2.333411  0
O  O188  1  0.19983848  0.28896641  0.56549472  1  -1.178991  0  -0.352381  -0.623288  0  2.263923  0
O  O189  1  0.94584992  0.56482621  0.28949317  1  -1.195098  0  -0.352771  -0.623815  0  2.26396  0
O  O190  1  0.79338351  0.70802393  0.44227008  1  -1.187345  0  -0.35557  -0.625175  0  2.271209  0
O  O191  1  0.05618859  0.44190876  0.70859311  1  -1.188551  0  -0.355373  -0.625597  0  2.271184  0
O  O192  1  0.93862305  0.29269697  0.70526295  1  -1.179411  0  -0.343782  -0.607655  0  2.272538  0
O  O193  1  0.20300808  0.55753229  0.44959663  1  -1.18  0  -0.354793  -0.624696  0  2.286745  0
O  O194  1  0.06339808  0.70463393  0.29323664  1  -1.180664  0  -0.34379  -0.608139  0  2.271  0
O  O195  1  0.78986743  0.44892289  0.55806225  1  -1.197279  0  -0.354697  -0.62467  0  2.287445  0
O  O196  1  0.05639710  0.29517298  0.44380842  1  -1.184114  0  -0.353537  -0.625692  0  2.282047  0
O  O197  1  0.78857504  0.56252367  0.70399367  1  -1.177774  0  -0.350987  -0.623492  0  2.273126  0
O  O198  1  0.94472814  0.70352014  0.56302309  1  -1.192151  0  -0.351793  -0.62447  0  2.27274  0
O  O199  1  0.20471595  0.44303844  0.29578557  1  -1.183625  0  -0.353349  -0.625072  0  2.281992  0
O  O200  1  0.94623179  0.45157560  0.44703360  1  -1.230728  0  -0.696725  -1.071396  0  2.373834  0
O  O201  1  0.15508032  0.44642667  0.45226242  1  -1.223031  0  -0.696362  -1.071588  0  2.374189  0
O  O202  1  0.94878599  0.65806973  0.44867349  1  -1.221862  0  -0.694886  -1.069964  0  2.365149  0
O  O203  1  0.94434081  0.44812204  0.65872726  1  -1.231594  0  -0.694578  -1.069114  0  2.366108  0
O  O204  1  0.03702447  0.53756519  0.54193197  1  -1.201301  0  -0.793084  -1.147316  0  2.140728  0
O  O205  1  0.88341922  0.54128932  0.53816176  1  -1.198438  0  -0.793313  -1.147745  0  2.14109  0
O  O206  1  0.03827889  0.54009723  0.38617731  1  -1.197621  0  -0.792713  -1.148488  0  2.132375  0
O  O207  1  0.03536702  0.38560030  0.54077085  1  -1.198666  0  -0.792549  -1.148685  0  2.133844  0
