# generated using pymatgen
data_Al2H18C29O10
_symmetry_space_group_name_H-M   'P 1'
_cell_length_a   6.91193050
_cell_length_b   16.71680178
_cell_length_c   19.65145889
_cell_angle_alpha   71.09188978
_cell_angle_beta   89.76600393
_cell_angle_gamma   89.80457342
_symmetry_Int_Tables_number   1
_chemical_formula_structural   Al2H18C29O10
_chemical_formula_sum   'Al4 H36 C58 O20'
_cell_volume   2148.08737524
_cell_formula_units_Z   2
loop_
 _symmetry_equiv_pos_site_id
 _symmetry_equiv_pos_as_xyz
  1  'x, y, z'
loop_
 _atom_site_type_symbol
 _atom_site_label
 _atom_site_symmetry_multiplicity
 _atom_site_fract_x
 _atom_site_fract_y
 _atom_site_fract_z
 _atom_site_occupancy
 _atom_site_pbe_bader_charge
 _atom_site_pbe_bader_spin_density
 _atom_site_pbe_cm5_charge
 _atom_site_pbe_ddec_charge
 _atom_site_pbe_ddec_spin_density
 _atom_site_pbe_ddec_sum_bond_order
 _atom_site_pbe_magmom
Al  Al0  1  0.09656770  0.50070187  0.50021731  1  2.506004  0  0.405664  1.641103  0  2.551504  0
Al  Al1  1  0.59649890  0.49903830  0.50083895  1  2.505228  0  0.404882  1.641769  0  2.560962  0
Al  Al2  1  0.62968654  0.99883168  0.00062870  1  2.505711  0  0.40756  1.646125  0  2.553936  0
Al  Al3  1  0.12960331  0.00090704  0.00003741  1  2.506635  0  0.407788  1.646902  0  2.550668  0
H  H4  1  0.55288267  0.30156847  0.69554902  1  0.07786  0  0.100645  0.097919  0  1.101784  0
H  H5  1  0.04752864  0.69672012  0.30515050  1  0.13098  0  0.100314  0.097334  0  1.101435  0
H  H6  1  0.57192459  0.18523201  0.81417987  1  0.104814  0  0.101747  0.099988  0  1.079897  0
H  H7  1  0.06581902  0.81380152  0.18703593  1  0.082206  0  0.101707  0.098167  0  1.08471  0
H  H8  1  0.32340618  0.15955910  0.77787247  1  0.061257  0  0.103958  0.118288  0  0.973167  0
H  H9  1  0.81570913  0.83893853  0.22000883  1  0.052029  0  0.104642  0.119238  0  0.971811  0
H  H10  1  0.32349249  0.23535941  0.82454787  1  0.055892  0  0.101605  0.113182  0  0.979027  0
H  H11  1  0.81812878  0.76216418  0.17423501  1  0.041469  0  0.101532  0.11282  0  0.978172  0
H  H12  1  0.30433411  0.27891160  0.65884001  1  0.05199  0  0.102813  0.115285  0  0.973851  0
H  H13  1  0.79772448  0.72103485  0.33974614  1  0.070831  0  0.102053  0.113962  0  0.976598  0
H  H14  1  0.30246141  0.35427467  0.70550711  1  0.061777  0  0.105521  0.120685  0  0.966853  0
H  H15  1  0.79878438  0.64446992  0.29431232  1  0.086461  0  0.105703  0.121432  0  0.965777  0
H  H16  1  0.11561127  0.41229343  0.33006489  1  0.053007  0  0.108318  0.115561  0  0.998773  0
H  H17  1  0.08587075  0.59216057  0.67170201  1  0.090514  0  0.108968  0.116582  0  0.99715  0
H  H18  1  0.42174628  0.19079167  0.36339466  1  0.091765  0  0.103062  0.104529  0  1.012378  0
H  H19  1  0.79627345  0.80501144  0.63283766  1  0.06224  0  0.103272  0.105005  0  1.011654  0
H  H20  1  0.42733017  0.11485842  0.27630027  1  0.066393  0  0.10538  0.109396  0  0.987447  0
H  H21  1  0.80736938  0.87967069  0.72073477  1  0.069205  0  0.105148  0.109117  0  0.987636  0
H  H22  1  0.59030223  0.08093493  0.17511118  1  0.122816  0  0.10995  0.119445  0  0.995852  0
H  H23  1  0.65921911  0.91432693  0.82404557  1  0.091388  0  0.109585  0.119266  0  0.995165  0
H  H24  1  0.14808832  0.18654715  0.09994361  1  0.08181  0  0.106278  0.112367  0  1.001741  0
H  H25  1  0.09919674  0.81575638  0.90368854  1  0.095148  0  0.106717  0.113144  0  1.002383  0
H  H26  1  0.29487796  0.29324327  0.14753717  1  0.06598  0  0.104575  0.108416  0  0.989128  0
H  H27  1  0.93729125  0.71144808  0.85698238  1  0.074286  0  0.104717  0.109937  0  0.988457  0
H  H28  1  0.28318253  0.37575456  0.23175874  1  0.0456  0  0.105851  0.110243  0  0.984252  0
H  H29  1  0.93134886  0.63043453  0.77164138  1  0.077817  0  0.105503  0.109234  0  0.98589  0
H  H30  1  0.49117459  0.21726394  0.45337600  1  0.050438  0  0.092437  0.126896  0  1.008104  0
H  H31  1  0.58418797  0.29764173  0.48455355  1  0.071344  0  0.098538  0.138075  0  1.009565  0
H  H32  1  0.40742445  0.32283377  0.41584054  1  0.039143  0  0.097649  0.137436  0  0.997304  0
H  H33  1  0.71566188  0.77967265  0.54353158  1  0.038647  0  0.092417  0.126712  0  1.008153  0
H  H34  1  0.79415092  0.67321317  0.58059549  1  0.052097  0  0.098718  0.138687  0  0.996234  0
H  H35  1  0.61340295  0.70035825  0.51319972  1  0.033223  0  0.098595  0.136518  0  1.011408  0
H  H36  1  0.34318750  0.39420796  0.50125319  1  0.595489  0  0.337438  0.410734  0  0.89198  0
H  H37  1  0.84569518  0.60772832  0.49456055  1  0.614053  0  0.336679  0.409921  0  0.893969  0
H  H38  1  0.38156512  0.10991570  0.98785653  1  0.593617  0  0.345775  0.422056  0  0.864682  0
H  H39  1  0.88324973  0.88970704  0.01309658  1  0.586548  0  0.345232  0.422233  0  0.864951  0
C  C40  1  0.34959675  0.58654096  0.57654115  1  1.531338  0  0.270567  0.658009  0  4.06488  0
C  C41  1  0.84665390  0.41356314  0.42405506  1  1.58302  0  0.270891  0.658834  0  4.062048  0
C  C42  1  0.34412911  0.61436455  0.38919552  1  1.561862  0  0.267528  0.647582  0  4.095574  0
C  C43  1  0.85003944  0.38519163  0.61149071  1  1.554756  0  0.267842  0.647412  0  4.094388  0
C  C44  1  0.03069361  0.28418838  0.71427331  1  0.022905  0  -0.004663  0.065891  0  3.922926  0
C  C45  1  0.52516183  0.71422438  0.28522444  1  0.032637  0  -0.004913  0.066334  0  3.923797  0
C  C46  1  0.85715240  0.31618656  0.68159844  1  -0.104114  0  -0.014729  -0.08762  0  4.004631  0
C  C47  1  0.35203093  0.68243815  0.31855533  1  -0.096576  0  -0.014846  -0.089009  0  4.008061  0
C  C48  1  0.69075995  0.27822829  0.71953904  1  0.022044  0  -0.089369  -0.106567  0  3.990323  0
C  C49  1  0.18527019  0.72007164  0.28085932  1  -0.04542  0  -0.090512  -0.106452  0  3.993177  0
C  C50  1  0.70121583  0.21366421  0.78545112  1  -0.088422  0  -0.090076  -0.110609  0  3.99843  0
C  C51  1  0.19524096  0.78489143  0.21514757  1  -0.038855  0  -0.090099  -0.109813  0  4.001859  0
C  C52  1  0.87812621  0.18178616  0.81816596  1  -0.032737  0  -0.013355  -0.086929  0  4.002195  0
C  C53  1  0.37176419  0.81661312  0.18173488  1  0.017757  0  -0.013709  -0.087108  0  4.000997  0
C  C54  1  0.04144729  0.21905836  0.77994444  1  0.012039  0  -0.004437  0.065165  0  3.913496  0
C  C55  1  0.53532400  0.77877584  0.21914012  1  -0.018294  0  -0.005358  0.064596  0  3.916679  0
C  C56  1  0.25834442  0.21857485  0.78019550  1  -0.020148  0  -0.150753  -0.204818  0  3.887511  0
C  C57  1  0.75214644  0.77952482  0.21838591  1  -0.035595  0  -0.150461  -0.203641  0  3.88581  0
C  C58  1  0.24577909  0.29287232  0.70581138  1  -0.009217  0  -0.150972  -0.203969  0  3.892955  0
C  C59  1  0.74030410  0.70600831  0.29329548  1  -0.075843  0  -0.150942  -0.205034  0  3.89294  0
C  C60  1  0.00082784  0.36786868  0.32951556  1  -0.02931  0  -0.083993  -0.14883  0  3.976472  0
C  C61  1  0.20457991  0.63513791  0.67135132  1  -0.079086  0  -0.084111  -0.149696  0  3.975668  0
C  C62  1  0.84595617  0.35825837  0.37762156  1  -0.001396  0  -0.019149  -0.108046  0  3.975865  0
C  C63  1  0.35591325  0.64280756  0.62212702  1  0.004083  0  -0.018772  -0.107015  0  3.976468  0
C  C64  1  0.69454987  0.30052981  0.38064345  1  -0.02972  0  0.004889  0.118245  0  3.881396  0
C  C65  1  0.51213855  0.69867382  0.61792192  1  0.038375  0  0.005294  0.118552  0  3.880303  0
C  C66  1  0.69794246  0.25523512  0.33074245  1  0.025082  0  -0.009827  0.009591  0  3.981924  0
C  C67  1  0.51788877  0.74367069  0.66797322  1  -0.02174  0  -0.009898  0.009391  0  3.98471  0
C  C68  1  0.85511664  0.26616397  0.28075854  1  -0.004526  0  0.002296  0.00579  0  3.927161  0
C  C69  1  0.36507637  0.73423647  0.71947512  1  0.041528  0  0.002678  0.006504  0  3.927998  0
C  C70  1  0.00935132  0.32293124  0.28066886  1  -0.005514  0  -0.012771  0.066283  0  4.070394  0
C  C71  1  0.20532072  0.67974888  0.72055101  1  -0.051867  0  -0.012366  0.06632  0  4.067047  0
C  C72  1  0.54543121  0.19843006  0.32740452  1  -0.110341  0  -0.092133  -0.127449  0  4.022473  0
C  C73  1  0.67590019  0.79842938  0.67012516  1  -0.025826  0  -0.092609  -0.128383  0  4.019844  0
C  C74  1  0.54771744  0.15597654  0.27861430  1  -0.021218  0  -0.088677  -0.130093  0  4.017093  0
C  C75  1  0.68308390  0.84013072  0.71939353  1  -0.067587  0  -0.088937  -0.129571  0  4.01855  0
C  C76  1  0.70476114  0.16485684  0.22899913  1  0.018477  0  -0.009986  0.071591  0  4.054192  0
C  C77  1  0.53103816  0.83251829  0.77074719  1  -0.002616  0  -0.00915  0.071964  0  4.055309  0
C  C78  1  0.86008664  0.22029665  0.23106755  1  -0.047409  0  0.003693  0.002492  0  3.905374  0
C  C79  1  0.37015013  0.77934698  0.76971371  1  -0.060043  0  0.003481  0.002419  0  3.907627  0
C  C80  1  0.02077369  0.22938480  0.18291346  1  -0.001072  0  -0.00932  0.07208  0  4.046228  0
C  C81  1  0.21392327  0.77177069  0.81945636  1  -0.020746  0  -0.008948  0.073308  0  4.04974  0
C  C82  1  0.17293009  0.28691039  0.18434725  1  -0.069522  0  -0.090265  -0.132967  0  4.021455  0
C  C83  1  0.05589189  0.71658476  0.81899731  1  -0.054158  0  -0.090675  -0.13577  0  4.021429  0
C  C84  1  0.16665703  0.33219023  0.23092254  1  0.016293  0  -0.088978  -0.128368  0  4.014326  0
C  C85  1  0.05246739  0.67206908  0.77181799  1  -0.025974  0  -0.088453  -0.126039  0  4.015192  0
C  C86  1  0.71010372  0.12175026  0.17851122  1  -0.092275  0  -0.081686  -0.147088  0  3.933916  0
C  C87  1  0.53539186  0.87504789  0.82167563  1  -0.012892  0  -0.082183  -0.148787  0  3.93599  0
C  C88  1  0.86970692  0.12944898  0.13275880  1  -0.01221  0  -0.019841  -0.045106  0  4.028361  0
C  C89  1  0.37970442  0.86912903  0.86877991  1  -0.036276  0  -0.019508  -0.043595  0  4.026691  0
C  C90  1  0.02460773  0.18187489  0.13573238  1  -0.047775  0  -0.081222  -0.144926  0  3.940102  0
C  C91  1  0.21969626  0.81877899  0.86696678  1  -0.019204  0  -0.082217  -0.146961  0  3.940035  0
C  C92  1  0.37471178  0.88566672  0.11145424  1  1.567317  0  0.268879  0.65155  0  4.089712  0
C  C93  1  0.88304201  0.11365658  0.88894782  1  1.563043  0  0.268596  0.65131  0  4.091168  0
C  C94  1  0.38318559  0.91706113  0.92103290  1  1.55725  0  0.270214  0.652363  0  4.074423  0
C  C95  1  0.87269872  0.08201294  0.08011500  1  1.57102  0  0.270005  0.653291  0  4.074461  0
C  C96  1  0.53631207  0.28366851  0.43658559  1  -0.089233  0  -0.238721  -0.414926  0  3.973705  0
C  C97  1  0.66669520  0.71377579  0.56076144  1  -0.044728  0  -0.238252  -0.414809  0  3.973724  0
O  O98  1  0.50728838  0.59032778  0.41937420  1  -1.255455  0  -0.234378  -0.593717  0  2.345395  0
O  O99  1  0.01420698  0.41521451  0.58562504  1  -1.259459  0  -0.233126  -0.590125  0  2.349758  0
O  O100  1  0.18412168  0.56965023  0.55597671  1  -1.253455  0  -0.236635  -0.598107  0  2.321133  0
O  O101  1  0.68261518  0.43908286  0.43881644  1  -1.257956  0  -0.232369  -0.591988  0  2.364478  0
O  O102  1  0.17747175  0.58666508  0.41389347  1  -1.263905  0  -0.238089  -0.594042  0  2.336317  0
O  O103  1  0.68462552  0.40771328  0.58288972  1  -1.259026  0  -0.237923  -0.594749  0  2.334225  0
O  O104  1  0.01125011  0.43197590  0.44415182  1  -1.257376  0  -0.236877  -0.598545  0  2.333358  0
O  O105  1  0.51200696  0.55847699  0.56312803  1  -1.255424  0  -0.231648  -0.589358  0  2.372195  0
O  O106  1  0.34621496  0.44894960  0.50828080  1  -1.406734  0  -0.452635  -0.983137  0  2.142611  0
O  O107  1  0.84579249  0.55071228  0.49227856  1  -1.425718  0  -0.452841  -0.984137  0  2.146999  0
O  O108  1  0.22009696  0.93109266  0.94566564  1  -1.256459  0  -0.236928  -0.598592  0  2.339795  0
O  O109  1  0.70880439  0.05786359  0.06445998  1  -1.258399  0  -0.235669  -0.597547  0  2.347224  0
O  O110  1  0.53995998  0.90751776  0.08210636  1  -1.256431  0  -0.233918  -0.590033  0  2.318853  0
O  O111  1  0.04990921  0.08570565  0.91310479  1  -1.257644  0  -0.233021  -0.588642  0  2.325175  0
O  O112  1  0.54882840  0.93942438  0.93690655  1  -1.255298  0  -0.237136  -0.597316  0  2.331913  0
O  O113  1  0.03693457  0.07025135  0.05489800  1  -1.253883  0  -0.237277  -0.598535  0  2.324695  0
O  O114  1  0.72043505  0.08979716  0.91972248  1  -1.262677  0  -0.23679  -0.597038  0  2.347173  0
O  O115  1  0.21074154  0.91642742  0.08640476  1  -1.262914  0  -0.235834  -0.595311  0  2.354267  0
O  O116  1  0.37996814  0.05064589  0.99186573  1  -1.402156  0  -0.450555  -0.985441  0  2.14006  0
O  O117  1  0.88071992  0.94907273  0.00873540  1  -1.39468  0  -0.450301  -0.986223  0  2.14123  0
