# generated using pymatgen
data_LiH7(C2O3)2
_symmetry_space_group_name_H-M   'P 1'
_cell_length_a   5.83076183
_cell_length_b   5.95923647
_cell_length_c   18.70976880
_cell_angle_alpha   90.00043008
_cell_angle_beta   90.63992602
_cell_angle_gamma   90.00054018
_symmetry_Int_Tables_number   1
_chemical_formula_structural   LiH7(C2O3)2
_chemical_formula_sum   'Li4 H28 C16 O24'
_cell_volume   650.06570411
_cell_formula_units_Z   4
loop_
 _symmetry_equiv_pos_site_id
 _symmetry_equiv_pos_as_xyz
  1  'x, y, z'
loop_
 _atom_site_type_symbol
 _atom_site_label
 _atom_site_symmetry_multiplicity
 _atom_site_fract_x
 _atom_site_fract_y
 _atom_site_fract_z
 _atom_site_occupancy
 _atom_site_hle17_bader_spin_density
 _atom_site_hle17_ddec_charge
 _atom_site_hle17_ddec_spin_density
 _atom_site_hle17_ddec_sum_bond_order
 _atom_site_hle17_magmom
 _atom_site_hse06_10hf_bader_spin_density
 _atom_site_hse06_10hf_ddec_charge
 _atom_site_hse06_10hf_ddec_spin_density
 _atom_site_hse06_10hf_ddec_sum_bond_order
 _atom_site_hse06_10hf_magmom
 _atom_site_hse06_bader_spin_density
 _atom_site_hse06_ddec_charge
 _atom_site_hse06_ddec_spin_density
 _atom_site_hse06_ddec_sum_bond_order
 _atom_site_hse06_magmom
 _atom_site_pbe_bader_spin_density
 _atom_site_pbe_cm5_charge
 _atom_site_pbe_ddec_charge
 _atom_site_pbe_ddec_spin_density
 _atom_site_pbe_ddec_sum_bond_order
 _atom_site_pbe_magmom
Li  Li0  1  0.79181822  0.39187587  0.27554655  1  0  0.86297  0  0.364855  0  0  0.827406  0  0.460753  0  0  0.83613  0  0.444712  0  0  0.484687  0.821116  0  0.472182  0
Li  Li1  1  0.70819821  0.89186845  0.22445413  1  0  0.862969  0  0.364898  0  0  0.827419  0  0.460762  0  0  0.836148  0  0.444719  0  0  0.484707  0.821124  0  0.472193  0
Li  Li2  1  0.20818917  0.60813314  0.72445115  1  0  0.862972  0  0.364893  0  0  0.827419  0  0.460754  0  0  0.836148  0  0.444711  0  0  0.484679  0.821126  0  0.472183  0
Li  Li3  1  0.29180400  0.10813552  0.77554515  1  0  0.862986  0  0.364867  0  0  0.827447  0  0.460701  0  0  0.836173  0  0.444661  0  0  0.484698  0.821152  0  0.472132  0
H  H4  1  0.92644310  0.24700889  0.40918338  1  0  0.134198  0  0.940832  0  0  0.140945  0  1.003184  0  0  0.145305  0  1.000637  0  0  0.125189  0.137585  0  1.005575  0
H  H5  1  0.57354263  0.74700368  0.09081948  1  0  0.134351  0  0.94094  0  0  0.141069  0  1.003305  0  0  0.145487  0  1.000688  0  0  0.125215  0.137697  0  1.005707  0
H  H6  1  0.07356424  0.75298670  0.59081699  1  0  0.134222  0  0.940819  0  0  0.140956  0  1.003201  0  0  0.145332  0  1.000635  0  0  0.125197  0.137584  0  1.005604  0
H  H7  1  0.42644242  0.25297848  0.90918024  1  0  0.134215  0  0.940831  0  0  0.140943  0  1.003226  0  0  0.145361  0  1.000611  0  0  0.125177  0.137572  0  1.005627  0
H  H8  1  0.01333550  0.23932425  0.53100303  1  0  0.12196  0  0.947021  0  0  0.131472  0  1.005874  0  0  0.134588  0  1.005322  0  0  0.113692  0.129258  0  1.006366  0
H  H9  1  0.48666920  0.73931863  0.96899950  1  0  0.121965  0  0.947031  0  0  0.131491  0  1.00586  0  0  0.134607  0  1.005302  0  0  0.113686  0.129276  0  1.006352  0
H  H10  1  0.98668039  0.76068309  0.46899845  1  0  0.122017  0  0.947002  0  0  0.131536  0  1.005815  0  0  0.134654  0  1.005255  0  0  0.113715  0.129321  0  1.006309  0
H  H11  1  0.51332443  0.26067360  0.03100026  1  0  0.122019  0  0.946983  0  0  0.131537  0  1.005818  0  0  0.134655  0  1.005261  0  0  0.11366  0.12932  0  1.00631  0
H  H12  1  0.54149117  0.23950830  0.16949843  1  0  0.435831  0  0.867547  0  0  0.402765  0  0.934108  0  0  0.413803  0  0.917889  0  0  0.303954  0.394961  0  0.945576  0
H  H13  1  0.95851512  0.73952416  0.33050185  1  0  0.435779  0  0.867618  0  0  0.4027  0  0.934212  0  0  0.413729  0  0.918005  0  0  0.303923  0.394895  0  0.945684  0
H  H14  1  0.45851449  0.76049232  0.83049980  1  0  0.435825  0  0.867568  0  0  0.402762  0  0.934124  0  0  0.413796  0  0.917911  0  0  0.303956  0.394958  0  0.945592  0
H  H15  1  0.04148883  0.26048485  0.66949636  1  0  0.435797  0  0.867593  0  0  0.402694  0  0.934229  0  0  0.413732  0  0.918009  0  0  0.303905  0.394887  0  0.945704  0
H  H16  1  0.80265915  0.23504719  0.14823861  1  0  0.428906  0  0.874923  0  0  0.395185  0  0.943215  0  0  0.406118  0  0.927211  0  0  0.300646  0.38743  0  0.95457  0
H  H17  1  0.69735052  0.73506131  0.35176168  1  0  0.428937  0  0.874873  0  0  0.395204  0  0.943167  0  0  0.406133  0  0.92717  0  0  0.300639  0.387452  0  0.954519  0
H  H18  1  0.19734479  0.76495343  0.85176014  1  0  0.428947  0  0.874855  0  0  0.395211  0  0.943152  0  0  0.40614  0  0.927156  0  0  0.30066  0.38746  0  0.954504  0
H  H19  1  0.30265684  0.26494938  0.64823762  1  0  0.428897  0  0.874926  0  0  0.39519  0  0.943209  0  0  0.406128  0  0.927197  0  0  0.300645  0.387432  0  0.954566  0
H  H20  1  0.15505513  0.26264621  0.22679826  1  0  0.427189  0  0.874059  0  0  0.3963  0  0.937162  0  0  0.407242  0  0.920995  0  0  0.30194  0.388535  0  0.948645  0
H  H21  1  0.34495205  0.76265126  0.27320494  1  0  0.427215  0  0.874016  0  0  0.39633  0  0.937127  0  0  0.407269  0  0.920964  0  0  0.301894  0.388558  0  0.948623  0
H  H22  1  0.84494368  0.73736112  0.77319993  1  0  0.427131  0  0.874136  0  0  0.396245  0  0.937233  0  0  0.407183  0  0.921073  0  0  0.301908  0.38848  0  0.948714  0
H  H23  1  0.65505017  0.23735775  0.72679434  1  0  0.427164  0  0.874091  0  0  0.396296  0  0.937169  0  0  0.407239  0  0.921  0  0  0.301895  0.388525  0  0.948661  0
H  H24  1  0.24263943  0.28523100  0.30541918  1  0  0.433673  0  0.857214  0  0  0.403816  0  0.918777  0  0  0.414243  0  0.903295  0  0  0.301961  0.396369  0  0.929842  0
H  H25  1  0.25738175  0.78520984  0.19458147  1  0  0.43382  0  0.856988  0  0  0.403899  0  0.918674  0  0  0.414337  0  0.903177  0  0  0.301985  0.396452  0  0.929741  0
H  H26  1  0.75736282  0.71477466  0.69457796  1  0  0.433713  0  0.857149  0  0  0.403841  0  0.918737  0  0  0.414271  0  0.90325  0  0  0.301969  0.396393  0  0.929804  0
H  H27  1  0.74262049  0.21478071  0.80541673  1  0  0.433863  0  0.856957  0  0  0.403919  0  0.918679  0  0  0.414357  0  0.903182  0  0  0.301968  0.396465  0  0.929751  0
H  H28  1  0.40019646  0.24638685  0.50027558  1  0  0.383675  0  0.93583  0  0  0.348386  0  1.019808  0  0  0.360744  0  1.004354  0  0  0.294288  0.339847  0  1.027269  0
H  H29  1  0.09979457  0.74637864  0.99972796  1  0  0.383609  0  0.935957  0  0  0.348386  0  1.019835  0  0  0.360742  0  1.004368  0  0  0.294278  0.339848  0  1.0273  0
H  H30  1  0.59981086  0.75362216  0.49972586  1  0  0.38373  0  0.935791  0  0  0.348428  0  1.019786  0  0  0.360785  0  1.004298  0  0  0.294339  0.339891  0  1.02725  0
H  H31  1  0.90019391  0.25361023  0.00027178  1  0  0.383629  0  0.935934  0  0  0.34836  0  1.019878  0  0  0.360713  0  1.004411  0  0  0.294248  0.339824  0  1.02734  0
C  C32  1  0.55668175  0.25967500  0.40785372  1  0  0.707577  0  3.82283  0  0  0.652529  0  4.130091  0  0  0.687298  0  4.118883  0  0  0.2369  0.628862  0  4.137317  0
C  C33  1  0.94331444  0.75965290  0.09214762  1  0  0.707303  0  3.822721  0  0  0.652379  0  4.129811  0  0  0.687147  0  4.118612  0  0  0.236853  0.628711  0  4.137037  0
C  C34  1  0.44333936  0.74033569  0.59214405  1  0  0.707526  0  3.822893  0  0  0.652478  0  4.130151  0  0  0.687242  0  4.118947  0  0  0.236838  0.628813  0  4.137373  0
C  C35  1  0.05666373  0.24032758  0.90785366  1  0  0.707403  0  3.822735  0  0  0.652403  0  4.129939  0  0  0.687169  0  4.118742  0  0  0.236756  0.628737  0  4.137165  0
C  C36  1  0.78180619  0.24942849  0.44580814  1  0  -0.181418  0  3.625017  0  0  -0.201865  0  3.889902  0  0  -0.207591  0  3.902428  0  0  -0.070841  -0.197984  0  3.881736  0
C  C37  1  0.71818633  0.74941692  0.05419957  1  0  -0.18154  0  3.624937  0  0  -0.202001  0  3.889841  0  0  -0.207774  0  3.902339  0  0  -0.070874  -0.198109  0  3.881681  0
C  C38  1  0.21819936  0.75057045  0.55419596  1  0  -0.181213  0  3.624371  0  0  -0.201695  0  3.889267  0  0  -0.207429  0  3.901782  0  0  -0.07076  -0.197805  0  3.881105  0
C  C39  1  0.28179698  0.25056357  0.94580120  1  0  -0.181141  0  3.624465  0  0  -0.201629  0  3.889389  0  0  -0.2074  0  3.901892  0  0  -0.07071  -0.19774  0  3.881227  0
C  C40  1  0.83203458  0.24433665  0.51630108  1  0  -0.14726  0  3.616373  0  0  -0.170183  0  3.883332  0  0  -0.174187  0  3.897057  0  0  -0.071405  -0.167493  0  3.873961  0
C  C41  1  0.66795403  0.74433535  0.98370119  1  0  -0.147344  0  3.615981  0  0  -0.170236  0  3.883017  0  0  -0.174243  0  3.896764  0  0  -0.071433  -0.167551  0  3.873648  0
C  C42  1  0.16797621  0.75566565  0.48369824  1  0  -0.147507  0  3.616183  0  0  -0.170367  0  3.883147  0  0  -0.174378  0  3.896886  0  0  -0.071495  -0.167681  0  3.873777  0
C  C43  1  0.33202586  0.25565185  0.01629956  1  0  -0.147534  0  3.616157  0  0  -0.170443  0  3.883178  0  0  -0.174448  0  3.896906  0  0  -0.071447  -0.167751  0  3.873804  0
C  C44  1  0.67918970  0.24373435  0.57973799  1  0  0.698568  0  3.861976  0  0  0.637397  0  4.171854  0  0  0.671969  0  4.162372  0  0  0.223514  0.614008  0  4.1776  0
C  C45  1  0.82080404  0.74373615  0.92026485  1  0  0.698848  0  3.861627  0  0  0.637578  0  4.17171  0  0  0.67214  0  4.162226  0  0  0.223548  0.614192  0  4.177461  0
C  C46  1  0.32081758  0.75627634  0.42026559  1  0  0.698665  0  3.861791  0  0  0.637455  0  4.171741  0  0  0.672011  0  4.162269  0  0  0.223486  0.614068  0  4.177488  0
C  C47  1  0.17918617  0.25625943  0.07973436  1  0  0.698686  0  3.862002  0  0  0.637522  0  4.171868  0  0  0.672093  0  4.16238  0  0  0.22351  0.614134  0  4.177617  0
O  O48  1  0.55261148  0.27510062  0.34128394  1  0  -0.631489  0  1.948235  0  0  -0.580359  0  2.174356  0  0  -0.601537  0  2.161813  0  0  -0.31536  -0.565653  0  2.182785  0
O  O49  1  0.94737959  0.77507854  0.15872382  1  0  -0.631455  0  1.947852  0  0  -0.580319  0  2.17392  0  0  -0.601506  0  2.161375  0  0  -0.315403  -0.56561  0  2.182349  0
O  O50  1  0.44739585  0.72491342  0.65871697  1  0  -0.631555  0  1.948152  0  0  -0.58037  0  2.17422  0  0  -0.601552  0  2.16168  0  0  -0.315353  -0.56566  0  2.182645  0
O  O51  1  0.05260538  0.22490362  0.84128017  1  0  -0.631519  0  1.947993  0  0  -0.580365  0  2.174099  0  0  -0.601554  0  2.161557  0  0  -0.315335  -0.565653  0  2.182522  0
O  O52  1  0.36426162  0.25367551  0.44353060  1  0  -0.561005  0  2.108732  0  0  -0.50106  0  2.332851  0  0  -0.525994  0  2.319916  0  0  -0.319795  -0.483813  0  2.339646  0
O  O53  1  0.13573172  0.75365825  0.05647357  1  0  -0.560725  0  2.10893  0  0  -0.50092  0  2.333035  0  0  -0.525856  0  2.320098  0  0  -0.319701  -0.483674  0  2.339832  0
O  O54  1  0.63573025  0.74633182  0.55647129  1  0  -0.560931  0  2.109042  0  0  -0.501018  0  2.333251  0  0  -0.525949  0  2.320293  0  0  -0.319757  -0.483775  0  2.340048  0
O  O55  1  0.86425673  0.24632056  0.94352777  1  0  -0.560912  0  2.109041  0  0  -0.500982  0  2.33312  0  0  -0.525915  0  2.320181  0  0  -0.319707  -0.483738  0  2.339916  0
O  O56  1  0.45901057  0.24245124  0.57099560  1  0  -0.636202  0  2.081412  0  0  -0.563258  0  2.301189  0  0  -0.591518  0  2.292396  0  0  -0.303593  -0.543706  0  2.306041  0
O  O57  1  0.04098729  0.74244412  0.92900743  1  0  -0.636351  0  2.081293  0  0  -0.563354  0  2.300983  0  0  -0.591593  0  2.292178  0  0  -0.303626  -0.543807  0  2.305839  0
O  O58  1  0.54099507  0.75756616  0.42900369  1  0  -0.636373  0  2.081402  0  0  -0.563367  0  2.301116  0  0  -0.591614  0  2.292316  0  0  -0.303673  -0.543822  0  2.305972  0
O  O59  1  0.95900459  0.25755147  0.07099393  1  0  -0.636282  0  2.081262  0  0  -0.563364  0  2.30103  0  0  -0.591601  0  2.29222  0  0  -0.303635  -0.543815  0  2.305883  0
O  O60  1  0.77270720  0.24371370  0.64063198  1  0  -0.597021  0  2.00771  0  0  -0.526352  0  2.221423  0  0  -0.551967  0  2.211011  0  0  -0.26708  -0.508521  0  2.228311  0
O  O61  1  0.72729338  0.74370982  0.85937195  1  0  -0.597115  0  2.007672  0  0  -0.52644  0  2.221416  0  0  -0.552046  0  2.211007  0  0  -0.267096  -0.508613  0  2.228301  0
O  O62  1  0.22729499  0.75630705  0.35936890  1  0  -0.596996  0  2.007452  0  0  -0.526371  0  2.221213  0  0  -0.551955  0  2.210794  0  0  -0.267005  -0.508537  0  2.228098  0
O  O63  1  0.27270197  0.25629080  0.14062728  1  0  -0.596999  0  2.007712  0  0  -0.526336  0  2.221377  0  0  -0.551969  0  2.21098  0  0  -0.267044  -0.508513  0  2.228265  0
O  O64  1  0.69909523  0.21581325  0.18977880  1  0  -0.963866  0  1.792897  0  0  -0.918098  0  1.976483  0  0  -0.934172  0  1.941371  0  0  -0.681886  -0.906751  0  2.00114  0
O  O65  1  0.80091763  0.71582220  0.31022361  1  0  -0.963813  0  1.792855  0  0  -0.917992  0  1.976416  0  0  -0.934074  0  1.94134  0  0  -0.681859  -0.906646  0  2.001059  0
O  O66  1  0.30090871  0.78418737  0.81021995  1  0  -0.963896  0  1.792844  0  0  -0.918119  0  1.976482  0  0  -0.934193  0  1.941378  0  0  -0.681893  -0.906781  0  2.001137  0
O  O67  1  0.19909312  0.28418681  0.68977732  1  0  -0.963824  0  1.792884  0  0  -0.91806  0  1.976438  0  0  -0.934138  0  1.94132  0  0  -0.681848  -0.90671  0  2.001104  0
O  O68  1  0.10079916  0.27736156  0.27656313  1  0  -0.916274  0  1.754558  0  0  -0.875024  0  1.925881  0  0  -0.890465  0  1.891731  0  0  -0.656783  -0.864036  0  1.949972  0
O  O69  1  0.39922022  0.77735243  0.22343803  1  0  -0.916475  0  1.754304  0  0  -0.875183  0  1.925583  0  0  -0.89065  0  1.891446  0  0  -0.656779  -0.864188  0  1.949679  0
O  O70  1  0.89920996  0.72264409  0.72343405  1  0  -0.916246  0  1.754514  0  0  -0.874993  0  1.92586  0  0  -0.890448  0  1.891729  0  0  -0.656759  -0.864004  0  1.949949  0
O  O71  1  0.60078544  0.22264987  0.77656073  1  0  -0.916469  0  1.754317  0  0  -0.875179  0  1.925596  0  0  -0.890644  0  1.891451  0  0  -0.656776  -0.864178  0  1.949711  0
