# generated using pymatgen
data_ZnH16C18(NO3)2
_symmetry_space_group_name_H-M   'P 1'
_cell_length_a   7.38207423
_cell_length_b   10.40726528
_cell_length_c   11.33186788
_cell_angle_alpha   89.99948026
_cell_angle_beta   89.99981901
_cell_angle_gamma   91.15584642
_symmetry_Int_Tables_number   1
_chemical_formula_structural   ZnH16C18(NO3)2
_chemical_formula_sum   'Zn2 H32 C36 N4 O12'
_cell_volume   870.41859151
_cell_formula_units_Z   2
loop_
 _symmetry_equiv_pos_site_id
 _symmetry_equiv_pos_as_xyz
  1  'x, y, z'
loop_
 _atom_site_type_symbol
 _atom_site_label
 _atom_site_symmetry_multiplicity
 _atom_site_fract_x
 _atom_site_fract_y
 _atom_site_fract_z
 _atom_site_occupancy
 _atom_site_hle17_bader_spin_density
 _atom_site_hle17_ddec_charge
 _atom_site_hle17_ddec_spin_density
 _atom_site_hle17_ddec_sum_bond_order
 _atom_site_hle17_magmom
 _atom_site_hse06_10hf_bader_spin_density
 _atom_site_hse06_10hf_ddec_charge
 _atom_site_hse06_10hf_ddec_spin_density
 _atom_site_hse06_10hf_ddec_sum_bond_order
 _atom_site_hse06_10hf_magmom
 _atom_site_hse06_bader_spin_density
 _atom_site_hse06_ddec_charge
 _atom_site_hse06_ddec_spin_density
 _atom_site_hse06_ddec_sum_bond_order
 _atom_site_hse06_magmom
 _atom_site_pbe_bader_spin_density
 _atom_site_pbe_cm5_charge
 _atom_site_pbe_ddec_charge
 _atom_site_pbe_ddec_spin_density
 _atom_site_pbe_ddec_sum_bond_order
 _atom_site_pbe_magmom
Zn  Zn0  1  0.75000392  0.74999812  0.72388113  1  0  1.052771  0  1.803376  0  0  0.87994  0  2.248347  0  0  0.924801  0  2.197876  0  0  0.676338  0.848544  0  2.282614  0
Zn  Zn1  1  0.24999403  0.24999989  0.27611821  1  0  1.052843  0  1.80328  0  0  0.880001  0  2.24823  0  0  0.924864  0  2.197757  0  0  0.676359  0.848608  0  2.282488  0
H  H2  1  0.05774608  0.55297699  0.94194383  1  0  0.084546  0  0.98113  0  0  0.095572  0  1.044164  0  0  0.098079  0  1.043373  0  0  0.097505  0.093381  0  1.045883  0
H  H3  1  0.44225628  0.94701772  0.94194618  1  0  0.08457  0  0.981159  0  0  0.095629  0  1.04414  0  0  0.098135  0  1.04335  0  0  0.09751  0.093435  0  1.045865  0
H  H4  1  0.94225424  0.44701332  0.05805022  1  0  0.084437  0  0.9812  0  0  0.09556  0  1.044144  0  0  0.098065  0  1.043353  0  0  0.097443  0.093361  0  1.045878  0
H  H5  1  0.55773744  0.05297648  0.05805581  1  0  0.08459  0  0.981149  0  0  0.095584  0  1.044212  0  0  0.09809  0  1.043421  0  0  0.097527  0.093394  0  1.045929  0
H  H6  1  0.15609619  0.64767184  0.13370941  1  0  0.089692  0  0.944545  0  0  0.101866  0  1.002743  0  0  0.105352  0  1.000614  0  0  0.098952  0.099472  0  1.004258  0
H  H7  1  0.34389899  0.85232228  0.13371100  1  0  0.089706  0  0.944506  0  0  0.101853  0  1.002739  0  0  0.105339  0  1.000612  0  0  0.098932  0.09946  0  1.004258  0
H  H8  1  0.84389995  0.35231561  0.86628994  1  0  0.08968  0  0.944393  0  0  0.101843  0  1.002618  0  0  0.105328  0  1.000492  0  0  0.098914  0.09945  0  1.004136  0
H  H9  1  0.65609579  0.14766518  0.86629099  1  0  0.089618  0  0.944553  0  0  0.101765  0  1.002789  0  0  0.105251  0  1.000661  0  0  0.098929  0.099374  0  1.004308  0
H  H10  1  0.62762559  0.57011063  0.91769825  1  0  0.085228  0  0.958536  0  0  0.095005  0  1.021206  0  0  0.097187  0  1.019758  0  0  0.115668  0.093327  0  1.02255  0
H  H11  1  0.87238708  0.92989230  0.91769207  1  0  0.085185  0  0.95848  0  0  0.094896  0  1.021229  0  0  0.097078  0  1.019779  0  0  0.115605  0.093216  0  1.022579  0
H  H12  1  0.37238336  0.42989114  0.08230109  1  0  0.085206  0  0.958509  0  0  0.094965  0  1.02121  0  0  0.097121  0  1.019793  0  0  0.115643  0.093293  0  1.022548  0
H  H13  1  0.12761793  0.07011239  0.08230639  1  0  0.085214  0  0.958535  0  0  0.09495  0  1.021241  0  0  0.097116  0  1.019809  0  0  0.115635  0.09327  0  1.02259  0
H  H14  1  0.61400940  0.56475894  0.13927146  1  0  0.113889  0  0.964296  0  0  0.121334  0  1.030217  0  0  0.124469  0  1.029549  0  0  0.108027  0.118896  0  1.031286  0
H  H15  1  0.88600698  0.93524784  0.13926521  1  0  0.113878  0  0.964184  0  0  0.121335  0  1.030102  0  0  0.124467  0  1.029445  0  0  0.108027  0.118904  0  1.031169  0
H  H16  1  0.38600111  0.43524763  0.86073142  1  0  0.11401  0  0.964061  0  0  0.121466  0  1.029957  0  0  0.124603  0  1.029291  0  0  0.108062  0.118982  0  1.031081  0
H  H17  1  0.11400365  0.06476161  0.86073502  1  0  0.113755  0  0.964337  0  0  0.121239  0  1.030248  0  0  0.124375  0  1.029575  0  0  0.107977  0.118807  0  1.031315  0
H  H18  1  0.03846292  0.78776009  0.30497286  1  0  0.099505  0  0.948413  0  0  0.113702  0  1.003836  0  0  0.116266  0  1.003473  0  0  0.108345  0.111906  0  1.004204  0
H  H19  1  0.46154553  0.71224569  0.30496831  1  0  0.09959  0  0.948334  0  0  0.113742  0  1.003828  0  0  0.116346  0  1.003422  0  0  0.108367  0.111945  0  1.004197  0
H  H20  1  0.96153802  0.21224463  0.69503002  1  0  0.099448  0  0.948422  0  0  0.11363  0  1.003888  0  0  0.116217  0  1.003502  0  0  0.108323  0.111829  0  1.00426  0
H  H21  1  0.53845825  0.28776189  0.69502574  1  0  0.099464  0  0.948384  0  0  0.113641  0  1.003867  0  0  0.116229  0  1.003479  0  0  0.108325  0.111846  0  1.004237  0
H  H22  1  0.02851286  0.78104635  0.52522167  1  0  0.085976  0  0.95044  0  0  0.09366  0  1.014361  0  0  0.096341  0  1.011793  0  0  0.118663  0.091668  0  1.01625  0
H  H23  1  0.47148518  0.71896117  0.52522146  1  0  0.085971  0  0.950409  0  0  0.093605  0  1.014363  0  0  0.096285  0  1.011797  0  0  0.118668  0.091614  0  1.016249  0
H  H24  1  0.97147705  0.21895364  0.47478033  1  0  0.085966  0  0.950378  0  0  0.093645  0  1.014302  0  0  0.096328  0  1.011733  0  0  0.118654  0.09165  0  1.016192  0
H  H25  1  0.52850075  0.28104077  0.47477524  1  0  0.085975  0  0.950501  0  0  0.093574  0  1.014482  0  0  0.096255  0  1.011914  0  0  0.118679  0.091587  0  1.016357  0
H  H26  1  0.04859896  0.91763081  0.69079395  1  0  0.416396  0  0.902657  0  0  0.379559  0  0.97679  0  0  0.391548  0  0.959967  0  0  0.278366  0.371177  0  0.98853  0
H  H27  1  0.45140917  0.58237692  0.69079405  1  0  0.416437  0  0.902616  0  0  0.379603  0  0.976747  0  0  0.391594  0  0.959921  0  0  0.278396  0.371225  0  0.988481  0
H  H28  1  0.95140309  0.08236814  0.30920539  1  0  0.416402  0  0.902644  0  0  0.37956  0  0.976788  0  0  0.39155  0  0.959964  0  0  0.278396  0.371177  0  0.988531  0
H  H29  1  0.54859165  0.41762492  0.30920530  1  0  0.416403  0  0.902656  0  0  0.379568  0  0.976791  0  0  0.39156  0  0.959964  0  0  0.278397  0.371189  0  0.988526  0
H  H30  1  0.85115949  0.97546112  0.66062925  1  0  0.42446  0  0.816366  0  0  0.407428  0  0.869863  0  0  0.416004  0  0.86025  0  0  0.319094  0.401383  0  0.876639  0
H  H31  1  0.64884884  0.52453958  0.66063312  1  0  0.42447  0  0.816334  0  0  0.407447  0  0.869812  0  0  0.416022  0  0.860202  0  0  0.31913  0.401401  0  0.8766  0
H  H32  1  0.14884133  0.02454071  0.33937009  1  0  0.424455  0  0.816386  0  0  0.407423  0  0.86988  0  0  0.415999  0  0.860271  0  0  0.319107  0.401379  0  0.876665  0
H  H33  1  0.35115728  0.47545933  0.33936799  1  0  0.424445  0  0.816382  0  0  0.407416  0  0.86987  0  0  0.415992  0  0.860259  0  0  0.319117  0.401368  0  0.876656  0
C  C34  1  0.13405124  0.62950456  0.72284980  1  0  0.66509  0  3.902227  0  0  0.611452  0  4.208577  0  0  0.645539  0  4.199382  0  0  0.206138  0.588073  0  4.214537  0
C  C35  1  0.36595788  0.87049804  0.72285296  1  0  0.665073  0  3.902398  0  0  0.611496  0  4.208647  0  0  0.645573  0  4.199467  0  0  0.206066  0.588112  0  4.214613  0
C  C36  1  0.86594539  0.37049443  0.27714778  1  0  0.665126  0  3.902316  0  0  0.611482  0  4.208667  0  0  0.645556  0  4.19949  0  0  0.206129  0.588098  0  4.214631  0
C  C37  1  0.63404282  0.12950091  0.27714992  1  0  0.665003  0  3.902641  0  0  0.611396  0  4.208942  0  0  0.645469  0  4.199767  0  0  0.206048  0.588012  0  4.214908  0
C  C38  1  0.19474636  0.69426784  0.83595086  1  0  -0.081445  0  3.731339  0  0  -0.062005  0  3.957514  0  0  -0.066484  0  3.977883  0  0  -0.017087  -0.058627  0  3.943252  0
C  C39  1  0.30526088  0.80573460  0.83595204  1  0  -0.081476  0  3.731404  0  0  -0.062063  0  3.957586  0  0  -0.066541  0  3.977956  0  0  -0.017097  -0.058683  0  3.943328  0
C  C40  1  0.80525146  0.30572728  0.16404849  1  0  -0.081719  0  3.731467  0  0  -0.062286  0  3.957699  0  0  -0.066761  0  3.978071  0  0  -0.017142  -0.058908  0  3.943436  0
C  C41  1  0.69473830  0.19426051  0.16405084  1  0  -0.081347  0  3.731392  0  0  -0.061914  0  3.957551  0  0  -0.066387  0  3.977921  0  0  -0.017013  -0.058537  0  3.943295  0
C  C42  1  0.14309302  0.63929218  0.94392099  1  0  -0.087301  0  3.772644  0  0  -0.110755  0  4.024541  0  0  -0.11182  0  4.045384  0  0  -0.094033  -0.109975  0  4.01146  0
C  C43  1  0.35690421  0.86070927  0.94392336  1  0  -0.087309  0  3.772706  0  0  -0.110759  0  4.024552  0  0  -0.111828  0  4.045403  0  0  -0.094013  -0.10998  0  4.011485  0
C  C44  1  0.85690349  0.36070392  0.05607659  1  0  -0.087052  0  3.772639  0  0  -0.110563  0  4.024483  0  0  -0.111634  0  4.04534  0  0  -0.09394  -0.109777  0  4.011401  0
C  C45  1  0.64309087  0.13928491  0.05608040  1  0  -0.087384  0  3.772659  0  0  -0.11082  0  4.024557  0  0  -0.111883  0  4.045397  0  0  -0.094075  -0.110036  0  4.011483  0
C  C46  1  0.19730022  0.69344184  0.05102289  1  0  -0.079413  0  3.788139  0  0  -0.095168  0  4.047587  0  0  -0.096156  0  4.066727  0  0  -0.098426  -0.094574  0  4.034715  0
C  C47  1  0.30270231  0.80655690  0.05102319  1  0  -0.079404  0  3.788212  0  0  -0.095147  0  4.047665  0  0  -0.096137  0  4.066806  0  0  -0.098438  -0.094558  0  4.034801  0
C  C48  1  0.80269210  0.30655141  0.94897822  1  0  -0.079555  0  3.788342  0  0  -0.095321  0  4.047835  0  0  -0.096311  0  4.066978  0  0  -0.098498  -0.094731  0  4.034967  0
C  C49  1  0.69729273  0.19343633  0.94897792  1  0  -0.079126  0  3.788192  0  0  -0.094843  0  4.047578  0  0  -0.095831  0  4.066721  0  0  -0.098314  -0.094257  0  4.034718  0
C  C50  1  0.68008709  0.64963442  0.97083032  1  0  0.135365  0  3.695275  0  0  0.102826  0  3.946226  0  0  0.109191  0  3.96543  0  0  0.049527  0.099249  0  3.933312  0
C  C51  1  0.81992384  0.85036511  0.97082669  1  0  0.13539  0  3.695102  0  0  0.1029  0  3.946048  0  0  0.109264  0  3.965259  0  0  0.049553  0.099323  0  3.933141  0
C  C52  1  0.31991242  0.35036839  0.02916991  1  0  0.13547  0  3.695195  0  0  0.102908  0  3.946149  0  0  0.10929  0  3.965364  0  0  0.049571  0.099328  0  3.933223  0
C  C53  1  0.18008507  0.14963570  0.02917354  1  0  0.135358  0  3.695276  0  0  0.102868  0  3.946171  0  0  0.109244  0  3.965383  0  0  0.04957  0.099294  0  3.933263  0
C  C54  1  0.67420981  0.64701479  0.09331658  1  0  -0.159445  0  3.703562  0  0  -0.176591  0  3.95401  0  0  -0.184743  0  3.976131  0  0  -0.080248  -0.171373  0  3.940189  0
C  C55  1  0.82579974  0.85298577  0.09331467  1  0  -0.159378  0  3.703185  0  0  -0.176529  0  3.953593  0  0  -0.184686  0  3.975719  0  0  -0.080228  -0.171321  0  3.939782  0
C  C56  1  0.32579253  0.35299088  0.90668277  1  0  -0.159558  0  3.703331  0  0  -0.176701  0  3.953745  0  0  -0.18486  0  3.975864  0  0  -0.080228  -0.171451  0  3.939962  0
C  C57  1  0.17420794  0.14701794  0.90668556  1  0  -0.159281  0  3.703317  0  0  -0.176505  0  3.953802  0  0  -0.184657  0  3.975925  0  0  -0.08021  -0.171296  0  3.939992  0
C  C58  1  0.75000267  0.75000190  0.15696224  1  0  0.098877  0  3.760035  0  0  0.106479  0  3.993516  0  0  0.110685  0  4.014905  0  0  0.016064  0.102981  0  3.979281  0
C  C59  1  0.24999967  0.25000377  0.84303799  1  0  0.098816  0  3.759975  0  0  0.106419  0  3.993468  0  0  0.110628  0  4.01485  0  0  0.016015  0.102912  0  3.979215  0
C  C60  1  0.75000526  0.75000604  0.28706436  1  0  0.110513  0  3.750591  0  0  0.123668  0  3.980875  0  0  0.127398  0  4.002899  0  0  0.019112  0.121559  0  3.966436  0
C  C61  1  0.25000127  0.25000248  0.71293411  1  0  0.110397  0  3.75033  0  0  0.12358  0  3.98061  0  0  0.127309  0  4.002634  0  0  0.019033  0.121514  0  3.966113  0
C  C62  1  0.91021136  0.77131246  0.35071027  1  0  -0.141985  0  3.690817  0  0  -0.162203  0  3.936404  0  0  -0.169318  0  3.956582  0  0  -0.076088  -0.15792  0  3.92335  0
C  C63  1  0.58980003  0.72869515  0.35070726  1  0  -0.142018  0  3.690858  0  0  -0.162217  0  3.936435  0  0  -0.169368  0  3.956602  0  0  -0.076055  -0.157935  0  3.923383  0
C  C64  1  0.08979098  0.22869321  0.64929173  1  0  -0.141839  0  3.690727  0  0  -0.162073  0  3.936323  0  0  -0.169212  0  3.956501  0  0  -0.076017  -0.157797  0  3.923248  0
C  C65  1  0.41020498  0.27130954  0.64928944  1  0  -0.141825  0  3.69068  0  0  -0.16205  0  3.93627  0  0  -0.169186  0  3.956443  0  0  -0.076013  -0.157785  0  3.923213  0
C  C66  1  0.90515165  0.76831951  0.47320289  1  0  0.149542  0  3.683312  0  0  0.118105  0  3.932111  0  0  0.126415  0  3.947957  0  0  0.055116  0.112756  0  3.921483  0
C  C67  1  0.59485642  0.73168690  0.47320425  1  0  0.14954  0  3.683145  0  0  0.118173  0  3.931901  0  0  0.126481  0  3.947759  0  0  0.055073  0.11283  0  3.921272  0
C  C68  1  0.09484384  0.23168428  0.52679646  1  0  0.149483  0  3.68335  0  0  0.118078  0  3.932114  0  0  0.126385  0  3.94797  0  0  0.055105  0.112732  0  3.921484  0
C  C69  1  0.40514030  0.26831401  0.52679509  1  0  0.149535  0  3.683377  0  0  0.118185  0  3.93217  0  0  0.126493  0  3.948021  0  0  0.055097  0.112833  0  3.921555  0
N  N70  1  0.75000177  0.75000100  0.53363447  1  0  -0.330408  0  3.290237  0  0  -0.251036  0  3.54799  0  0  -0.269466  0  3.563926  0  0  -0.318726  -0.238644  0  3.537087  0
N  N71  1  0.24999220  0.24999896  0.46636575  1  0  -0.330384  0  3.29039  0  0  -0.251019  0  3.548124  0  0  -0.269449  0  3.564062  0  0  -0.318736  -0.238629  0  3.537226  0
N  N72  1  0.75000346  0.74999720  0.91009756  1  0  -0.327279  0  3.297485  0  0  -0.244194  0  3.558324  0  0  -0.262954  0  3.576032  0  0  -0.321225  -0.231492  0  3.545382  0
N  N73  1  0.24999999  0.25000270  0.08990266  1  0  -0.327351  0  3.297634  0  0  -0.244196  0  3.558406  0  0  -0.262953  0  3.576097  0  0  -0.321249  -0.231495  0  3.545467  0
O  O74  1  0.96436649  0.61448587  0.70640686  1  0  -0.650613  0  2.015985  0  0  -0.593389  0  2.277005  0  0  -0.619512  0  2.263492  0  0  -0.332245  -0.574712  0  2.285612  0
O  O75  1  0.53564443  0.88551725  0.70640883  1  0  -0.650635  0  2.016155  0  0  -0.593432  0  2.277141  0  0  -0.61955  0  2.263631  0  0  -0.332248  -0.574747  0  2.285742  0
O  O76  1  0.03563293  0.38551501  0.29358543  1  0  -0.650645  0  2.016011  0  0  -0.593402  0  2.276988  0  0  -0.619524  0  2.263487  0  0  -0.332228  -0.574722  0  2.285592  0
O  O77  1  0.46435770  0.11448362  0.29359317  1  0  -0.650656  0  2.016228  0  0  -0.593433  0  2.277202  0  0  -0.619555  0  2.2637  0  0  -0.332257  -0.574749  0  2.285804  0
O  O78  1  0.25465092  0.59043965  0.65220571  1  0  -0.619894  0  1.948568  0  0  -0.570577  0  2.169099  0  0  -0.59503  0  2.158808  0  0  -0.325143  -0.553471  0  2.176293  0
O  O79  1  0.24536180  0.90957611  0.65221409  1  0  -0.619831  0  1.948463  0  0  -0.570536  0  2.168968  0  0  -0.594986  0  2.158685  0  0  -0.325055  -0.553433  0  2.176172  0
O  O80  1  0.74534855  0.40956219  0.34779452  1  0  -0.619828  0  1.948551  0  0  -0.570512  0  2.169075  0  0  -0.594961  0  2.15879  0  0  -0.325138  -0.553407  0  2.176272  0
O  O81  1  0.75463767  0.09042573  0.34779056  1  0  -0.619802  0  1.948594  0  0  -0.570493  0  2.169105  0  0  -0.594942  0  2.158823  0  0  -0.325083  -0.553389  0  2.176306  0
O  O82  1  0.91595370  0.92553733  0.71906901  1  0  -0.831885  0  1.906635  0  0  -0.777309  0  2.12268  0  0  -0.798612  0  2.093469  0  0  -0.567915  -0.762169  0  2.142663  0
O  O83  1  0.58405310  0.57446569  0.71906907  1  0  -0.831921  0  1.906603  0  0  -0.777359  0  2.122646  0  0  -0.798661  0  2.093434  0  0  -0.567971  -0.762214  0  2.142629  0
O  O84  1  0.08404560  0.07446067  0.28092769  1  0  -0.831884  0  1.906668  0  0  -0.777315  0  2.122717  0  0  -0.798613  0  2.093505  0  0  -0.567945  -0.76217  0  2.142707  0
O  O85  1  0.41594624  0.42553327  0.28092939  1  0  -0.831881  0  1.906645  0  0  -0.777304  0  2.122671  0  0  -0.798604  0  2.093456  0  0  -0.567969  -0.762163  0  2.142658  0
