# generated using pymatgen
data_Li2H8C6N2O7
_symmetry_space_group_name_H-M   'P 1'
_cell_length_a   6.61574563
_cell_length_b   11.75775375
_cell_length_c   12.11604886
_cell_angle_alpha   89.99998798
_cell_angle_beta   98.81119042
_cell_angle_gamma   90.00000897
_symmetry_Int_Tables_number   1
_chemical_formula_structural   Li2H8C6N2O7
_chemical_formula_sum   'Li8 H32 C24 N8 O28'
_cell_volume   931.34021857
_cell_formula_units_Z   4
loop_
 _symmetry_equiv_pos_site_id
 _symmetry_equiv_pos_as_xyz
  1  'x, y, z'
loop_
 _atom_site_type_symbol
 _atom_site_label
 _atom_site_symmetry_multiplicity
 _atom_site_fract_x
 _atom_site_fract_y
 _atom_site_fract_z
 _atom_site_occupancy
 _atom_site_hle17_bader_spin_density
 _atom_site_hle17_ddec_charge
 _atom_site_hle17_ddec_spin_density
 _atom_site_hle17_ddec_sum_bond_order
 _atom_site_hle17_magmom
 _atom_site_hse06_10hf_bader_spin_density
 _atom_site_hse06_10hf_ddec_charge
 _atom_site_hse06_10hf_ddec_spin_density
 _atom_site_hse06_10hf_ddec_sum_bond_order
 _atom_site_hse06_10hf_magmom
 _atom_site_hse06_bader_spin_density
 _atom_site_hse06_ddec_charge
 _atom_site_hse06_ddec_spin_density
 _atom_site_hse06_ddec_sum_bond_order
 _atom_site_hse06_magmom
 _atom_site_pbe_bader_spin_density
 _atom_site_pbe_cm5_charge
 _atom_site_pbe_ddec_charge
 _atom_site_pbe_ddec_spin_density
 _atom_site_pbe_ddec_sum_bond_order
 _atom_site_pbe_magmom
Li  Li0  1  0.08258377  0.17363773  0.27070739  1  0  0.8198  0  0.431012  0  0  0.751345  0  0.576732  0  0  0.764199  0  0.556835  0  0  0.493964  0.742288  0  0.590688  0
Li  Li1  1  0.41741686  0.67363717  0.22929218  1  0  0.819808  0  0.430992  0  0  0.751357  0  0.576716  0  0  0.764209  0  0.556825  0  0  0.493974  0.742318  0  0.590634  0
Li  Li2  1  0.91741588  0.82636274  0.72929333  1  0  0.819802  0  0.431001  0  0  0.751358  0  0.576706  0  0  0.76421  0  0.556813  0  0  0.493972  0.742314  0  0.590634  0
Li  Li3  1  0.58258585  0.32636245  0.77070797  1  0  0.819804  0  0.430998  0  0  0.751355  0  0.576713  0  0  0.764206  0  0.556823  0  0  0.493974  0.742308  0  0.590645  0
Li  Li4  1  0.31941128  0.49021349  0.57959018  1  0  0.854977  0  0.391265  0  0  0.819591  0  0.488332  0  0  0.828198  0  0.472761  0  0  0.502223  0.813257  0  0.499733  0
Li  Li5  1  0.18058923  0.99021286  0.92041006  1  0  0.854981  0  0.391258  0  0  0.819605  0  0.488309  0  0  0.828212  0  0.47274  0  0  0.502226  0.813272  0  0.49971  0
Li  Li6  1  0.68058989  0.50978613  0.42040984  1  0  0.854979  0  0.391263  0  0  0.819601  0  0.488316  0  0  0.828207  0  0.472747  0  0  0.502232  0.813267  0  0.499718  0
Li  Li7  1  0.81941195  0.00978676  0.07959079  1  0  0.854975  0  0.391267  0  0  0.819598  0  0.488319  0  0  0.828204  0  0.47275  0  0  0.502221  0.813264  0  0.499718  0
H  H8  1  0.31968533  0.88643457  0.58010445  1  0  0.130362  0  0.949128  0  0  0.139843  0  1.010143  0  0  0.144071  0  1.008079  0  0  0.125262  0.13678  0  1.011853  0
H  H9  1  0.18031056  0.38643682  0.91989461  1  0  0.1304  0  0.94912  0  0  0.139935  0  1.010072  0  0  0.144162  0  1.008008  0  0  0.125283  0.136869  0  1.011779  0
H  H10  1  0.68031125  0.11356334  0.41989520  1  0  0.130359  0  0.949148  0  0  0.13984  0  1.010148  0  0  0.144069  0  1.008085  0  0  0.12526  0.13678  0  1.011859  0
H  H11  1  0.81968909  0.61356280  0.08010694  1  0  0.130482  0  0.949031  0  0  0.139972  0  1.010016  0  0  0.144199  0  1.007952  0  0  0.125332  0.136911  0  1.011725  0
H  H12  1  0.16893701  0.91820684  0.17585273  1  0  0.067521  0  0.980026  0  0  0.069566  0  1.052814  0  0  0.073336  0  1.047928  0  0  0.145394  0.066674  0  1.056594  0
H  H13  1  0.33106060  0.41820911  0.32414571  1  0  0.067557  0  0.979982  0  0  0.069597  0  1.052781  0  0  0.073366  0  1.047899  0  0  0.145429  0.06671  0  1.056556  0
H  H14  1  0.83105957  0.08179193  0.82414692  1  0  0.067521  0  0.979988  0  0  0.069584  0  1.052786  0  0  0.073353  0  1.047902  0  0  0.14542  0.066693  0  1.056569  0
H  H15  1  0.66894058  0.58179221  0.67585514  1  0  0.067531  0  0.979926  0  0  0.069577  0  1.052716  0  0  0.073346  0  1.047834  0  0  0.145404  0.066684  0  1.056495  0
H  H16  1  0.03825752  0.45438437  0.40489302  1  0  0.43425  0  0.86074  0  0  0.407546  0  0.917728  0  0  0.416703  0  0.904169  0  0  0.308663  0.401049  0  0.927355  0
H  H17  1  0.46174317  0.95438469  0.09510731  1  0  0.434255  0  0.860747  0  0  0.407549  0  0.917735  0  0  0.416706  0  0.904176  0  0  0.308675  0.401052  0  0.927362  0
H  H18  1  0.96174366  0.54561525  0.59510700  1  0  0.43426  0  0.86074  0  0  0.407556  0  0.917728  0  0  0.416713  0  0.904168  0  0  0.308675  0.401059  0  0.927354  0
H  H19  1  0.53825648  0.04561578  0.90489341  1  0  0.434252  0  0.860757  0  0  0.407545  0  0.917747  0  0  0.416702  0  0.904187  0  0  0.308671  0.401049  0  0.927373  0
H  H20  1  0.13313199  0.33623425  0.45665118  1  0  0.439416  0  0.859076  0  0  0.409374  0  0.920263  0  0  0.420179  0  0.904353  0  0  0.303684  0.401764  0  0.931453  0
H  H21  1  0.36686867  0.83623457  0.04334836  1  0  0.439375  0  0.859135  0  0  0.409327  0  0.920337  0  0  0.420132  0  0.904425  0  0  0.303665  0.401716  0  0.931527  0
H  H22  1  0.86686918  0.66376537  0.54334802  1  0  0.439377  0  0.859131  0  0  0.409325  0  0.92034  0  0  0.420132  0  0.904426  0  0  0.303665  0.401715  0  0.931529  0
H  H23  1  0.63313098  0.16376505  0.95665237  1  0  0.439393  0  0.859108  0  0  0.409346  0  0.920306  0  0  0.420151  0  0.904395  0  0  0.303689  0.401737  0  0.931495  0
H  H24  1  0.19229670  0.52071163  0.77683925  1  0  0.428437  0  0.874223  0  0  0.395289  0  0.942411  0  0  0.405771  0  0.927058  0  0  0.297702  0.387931  0  0.95317  0
H  H25  1  0.30770217  0.02071223  0.72316012  1  0  0.428448  0  0.874211  0  0  0.395294  0  0.942406  0  0  0.405776  0  0.927055  0  0  0.297693  0.387935  0  0.953167  0
H  H26  1  0.80769988  0.47928799  0.22316122  1  0  0.428429  0  0.874232  0  0  0.395288  0  0.942417  0  0  0.405769  0  0.927065  0  0  0.297684  0.387926  0  0.953182  0
H  H27  1  0.69229748  0.97928994  0.27683977  1  0  0.428447  0  0.874211  0  0  0.395299  0  0.942394  0  0  0.405779  0  0.927044  0  0  0.297701  0.38794  0  0.953153  0
H  H28  1  0.17869471  0.39758523  0.72426938  1  0  0.425903  0  0.875341  0  0  0.397918  0  0.934388  0  0  0.408484  0  0.918663  0  0  0.299992  0.390454  0  0.945492  0
H  H29  1  0.32130577  0.89758549  0.77573005  1  0  0.425896  0  0.875356  0  0  0.397911  0  0.934404  0  0  0.408478  0  0.918676  0  0  0.299985  0.390446  0  0.945509  0
H  H30  1  0.82130646  0.60241524  0.27573064  1  0  0.425897  0  0.875347  0  0  0.397912  0  0.934392  0  0  0.408477  0  0.918669  0  0  0.299994  0.390448  0  0.945497  0
H  H31  1  0.67869541  0.10241583  0.22427080  1  0  0.425911  0  0.87534  0  0  0.397954  0  0.934364  0  0  0.408526  0  0.918626  0  0  0.299995  0.39049  0  0.945468  0
H  H32  1  0.75838686  0.28625877  0.19855182  1  0  0.430812  0  0.869498  0  0  0.397934  0  0.935208  0  0  0.409407  0  0.918597  0  0  0.299559  0.38982  0  0.946937  0
H  H33  1  0.74160892  0.78625818  0.30144826  1  0  0.430804  0  0.869521  0  0  0.397902  0  0.93527  0  0  0.409377  0  0.918657  0  0  0.299532  0.389786  0  0.947005  0
H  H34  1  0.24160973  0.71374255  0.80144865  1  0  0.430626  0  0.869774  0  0  0.397809  0  0.935394  0  0  0.409283  0  0.918782  0  0  0.299489  0.389692  0  0.947129  0
H  H35  1  0.25839071  0.21374229  0.69854999  1  0  0.430779  0  0.869544  0  0  0.397882  0  0.935288  0  0  0.409356  0  0.918674  0  0  0.299528  0.389766  0  0.947022  0
H  H36  1  0.74132856  0.27081788  0.32806545  1  0  0.433146  0  0.863208  0  0  0.40277  0  0.926001  0  0  0.413223  0  0.910727  0  0  0.302286  0.395392  0  0.936758  0
H  H37  1  0.75867180  0.77081732  0.17193501  1  0  0.433142  0  0.863215  0  0  0.402757  0  0.926024  0  0  0.41321  0  0.910749  0  0  0.302281  0.395378  0  0.936782  0
H  H38  1  0.25866956  0.72918344  0.67193515  1  0  0.433108  0  0.863237  0  0  0.402713  0  0.926066  0  0  0.413166  0  0.91079  0  0  0.302287  0.395334  0  0.936823  0
H  H39  1  0.24133089  0.22918315  0.82806431  1  0  0.433127  0  0.863212  0  0  0.40274  0  0.926029  0  0  0.413192  0  0.910755  0  0  0.302292  0.395362  0  0.936785  0
C  C40  1  0.37891292  0.68446659  0.46372104  1  0  0.670887  0  3.882322  0  0  0.622431  0  4.175786  0  0  0.655437  0  4.164925  0  0  0.243728  0.600084  0  4.182441  0
C  C41  1  0.12108771  0.18446806  0.03627852  1  0  0.671142  0  3.882049  0  0  0.622723  0  4.175469  0  0  0.655731  0  4.164601  0  0  0.243862  0.600374  0  4.182129  0
C  C42  1  0.62108825  0.31553218  0.53627898  1  0  0.670975  0  3.882128  0  0  0.622565  0  4.175549  0  0  0.655574  0  4.164683  0  0  0.243807  0.600218  0  4.182205  0
C  C43  1  0.87891348  0.81553326  0.96372315  1  0  0.670953  0  3.882222  0  0  0.622481  0  4.175679  0  0  0.655489  0  4.164816  0  0  0.243807  0.600134  0  4.18233  0
C  C44  1  0.20807185  0.10772206  0.50064405  1  0  0.627676  0  3.933269  0  0  0.571517  0  4.240977  0  0  0.602785  0  4.23497  0  0  0.220205  0.550418  0  4.244317  0
C  C45  1  0.29192856  0.60772313  0.99935461  1  0  0.627657  0  3.93331  0  0  0.57152  0  4.241042  0  0  0.602788  0  4.235032  0  0  0.220218  0.550421  0  4.244383  0
C  C46  1  0.79192473  0.89227671  0.49935560  1  0  0.627541  0  3.933432  0  0  0.571423  0  4.241055  0  0  0.602681  0  4.235064  0  0  0.220159  0.550326  0  4.244393  0
C  C47  1  0.70806955  0.39227649  0.00064517  1  0  0.627751  0  3.933075  0  0  0.571628  0  4.240753  0  0  0.602897  0  4.234744  0  0  0.220285  0.55053  0  4.244097  0
C  C48  1  0.30690618  0.80093697  0.42033677  1  0  0.165946  0  3.680963  0  0  0.169039  0  3.923114  0  0  0.174513  0  3.937184  0  0  0.146762  0.165367  0  3.913829  0
C  C49  1  0.19309140  0.30093843  0.07966169  1  0  0.165968  0  3.680832  0  0  0.168983  0  3.923087  0  0  0.174456  0  3.937157  0  0  0.146759  0.165312  0  3.913805  0
C  C50  1  0.69309193  0.19906180  0.57966300  1  0  0.166059  0  3.680823  0  0  0.169035  0  3.923099  0  0  0.174506  0  3.937169  0  0  0.146763  0.165362  0  3.913816  0
C  C51  1  0.80690672  0.69906204  0.92033973  1  0  0.165957  0  3.680849  0  0  0.169107  0  3.922926  0  0  0.174578  0  3.936993  0  0  0.1468  0.165436  0  3.91364  0
C  C52  1  0.22632872  0.99672096  0.43786428  1  0  0.142239  0  3.723167  0  0  0.142827  0  3.976253  0  0  0.147132  0  3.992779  0  0  0.133072  0.140007  0  3.965237  0
C  C53  1  0.27366891  0.49672243  0.06213332  1  0  0.142226  0  3.723106  0  0  0.142762  0  3.976271  0  0  0.147067  0  3.992795  0  0  0.133024  0.13994  0  3.96526  0
C  C54  1  0.77366786  0.00327781  0.56213454  1  0  0.142261  0  3.723193  0  0  0.142873  0  3.976174  0  0  0.147184  0  3.992701  0  0  0.133037  0.140049  0  3.965161  0
C  C55  1  0.72633227  0.50327719  0.93786670  1  0  0.142109  0  3.723143  0  0  0.142666  0  3.97626  0  0  0.14697  0  3.992784  0  0  0.133  0.139843  0  3.965248  0
C  C56  1  0.28630881  0.89368257  0.48977815  1  0  -0.155662  0  3.633504  0  0  -0.188081  0  3.883346  0  0  -0.195592  0  3.902338  0  0  -0.062612  -0.183479  0  3.871164  0
C  C57  1  0.21368726  0.39368405  0.01022018  1  0  -0.155738  0  3.633436  0  0  -0.188163  0  3.883304  0  0  -0.195672  0  3.902294  0  0  -0.062635  -0.183555  0  3.87112  0
C  C58  1  0.71368777  0.10631620  0.51022150  1  0  -0.155735  0  3.63349  0  0  -0.188113  0  3.883327  0  0  -0.195624  0  3.902317  0  0  -0.062626  -0.183513  0  3.871149  0
C  C59  1  0.78631239  0.60631557  0.98978055  1  0  -0.155782  0  3.63346  0  0  -0.188207  0  3.883271  0  0  -0.195713  0  3.902259  0  0  -0.062684  -0.183605  0  3.871089  0
C  C60  1  0.20288993  0.91130670  0.26641761  1  0  0.334943  0  3.680802  0  0  0.289895  0  3.95763  0  0  0.303103  0  3.965317  0  0  0.207861  0.281145  0  3.952501  0
C  C61  1  0.29710768  0.41130899  0.23358166  1  0  0.334931  0  3.680714  0  0  0.289887  0  3.957512  0  0  0.303094  0  3.9652  0  0  0.207853  0.281146  0  3.95236  0
C  C62  1  0.79710818  0.08869207  0.73358217  1  0  0.335038  0  3.680571  0  0  0.289902  0  3.957507  0  0  0.30311  0  3.965196  0  0  0.207855  0.281161  0  3.95235  0
C  C63  1  0.70289197  0.58869233  0.76641906  1  0  0.334997  0  3.680741  0  0  0.289943  0  3.957574  0  0  0.30315  0  3.965262  0  0  0.207879  0.281196  0  3.952441  0
N  N64  1  0.26871853  0.81017344  0.30835536  1  0  -0.405255  0  3.066002  0  0  -0.362952  0  3.326352  0  0  -0.374573  0  3.33555  0  0  -0.343539  -0.355379  0  3.320377  0
N  N65  1  0.23128059  0.31017488  0.19164323  1  0  -0.405293  0  3.065887  0  0  -0.36295  0  3.326245  0  0  -0.374572  0  3.335444  0  0  -0.343551  -0.355375  0  3.320276  0
N  N66  1  0.73128264  0.18982618  0.69164384  1  0  -0.405348  0  3.065917  0  0  -0.36297  0  3.326327  0  0  -0.374589  0  3.335527  0  0  -0.343555  -0.355397  0  3.320356  0
N  N67  1  0.76871753  0.68982559  0.80835737  1  0  -0.405338  0  3.065965  0  0  -0.363052  0  3.326309  0  0  -0.374672  0  3.335506  0  0  -0.343565  -0.355479  0  3.320335  0
N  N68  1  0.18155468  0.00498477  0.32605463  1  0  -0.412855  0  3.112303  0  0  -0.370618  0  3.376764  0  0  -0.382357  0  3.3873  0  0  -0.348465  -0.362977  0  3.369868  0
N  N69  1  0.31844132  0.50498591  0.17394459  1  0  -0.412829  0  3.112235  0  0  -0.370575  0  3.376707  0  0  -0.382313  0  3.387245  0  0  -0.348442  -0.362938  0  3.369818  0
N  N70  1  0.81844191  0.99501400  0.67394501  1  0  -0.412879  0  3.112174  0  0  -0.370619  0  3.376646  0  0  -0.382361  0  3.387185  0  0  -0.348423  -0.362978  0  3.369752  0
N  N71  1  0.68155986  0.49501456  0.82605626  1  0  -0.412821  0  3.112275  0  0  -0.370571  0  3.376749  0  0  -0.382309  0  3.387287  0  0  -0.34849  -0.362931  0  3.369854  0
O  O72  1  0.24299474  0.10536021  0.60651024  1  0  -0.63214  0  2.037098  0  0  -0.568243  0  2.259419  0  0  -0.595039  0  2.253501  0  0  -0.295993  -0.549567  0  2.263156  0
O  O73  1  0.25700721  0.60536129  0.89348855  1  0  -0.632116  0  2.037065  0  0  -0.568276  0  2.259408  0  0  -0.595074  0  2.253489  0  0  -0.296009  -0.549599  0  2.263142  0
O  O74  1  0.75700185  0.89463856  0.39348941  1  0  -0.632115  0  2.037139  0  0  -0.568238  0  2.259438  0  0  -0.595034  0  2.253527  0  0  -0.295974  -0.549561  0  2.263172  0
O  O75  1  0.74298785  0.39463833  0.10651180  1  0  -0.632155  0  2.036973  0  0  -0.568313  0  2.259319  0  0  -0.595113  0  2.2534  0  0  -0.296042  -0.549637  0  2.263059  0
O  O76  1  0.45791174  0.62251514  0.39610156  1  0  -0.736822  0  2.000706  0  0  -0.692442  0  2.249873  0  0  -0.71407  0  2.23589  0  0  -0.39169  -0.677314  0  2.25914  0
O  O77  1  0.04209040  0.12251574  0.10389732  1  0  -0.736916  0  2.000568  0  0  -0.692555  0  2.249781  0  0  -0.714183  0  2.235791  0  0  -0.391748  -0.677423  0  2.259051  0
O  O78  1  0.54209096  0.37748448  0.60389776  1  0  -0.736843  0  2.000546  0  0  -0.692499  0  2.249796  0  0  -0.714129  0  2.235811  0  0  -0.39172  -0.677368  0  2.259061  0
O  O79  1  0.95790925  0.87748473  0.89610341  1  0  -0.736806  0  2.000601  0  0  -0.692437  0  2.249813  0  0  -0.714064  0  2.235826  0  0  -0.391714  -0.677309  0  2.25908  0
O  O80  1  0.35236253  0.65662963  0.56169806  1  0  -0.683595  0  1.975863  0  0  -0.632406  0  2.205081  0  0  -0.65587  0  2.192853  0  0  -0.347324  -0.615878  0  2.213029  0
O  O81  1  0.14764096  0.15663102  0.93830166  1  0  -0.683714  0  1.975796  0  0  -0.632559  0  2.205033  0  0  -0.656023  0  2.192801  0  0  -0.347382  -0.616032  0  2.212986  0
O  O82  1  0.64764018  0.34336914  0.43830291  1  0  -0.683651  0  1.975832  0  0  -0.6325  0  2.205056  0  0  -0.655963  0  2.192824  0  0  -0.347364  -0.615976  0  2.213008  0
O  O83  1  0.85236175  0.84337031  0.06169931  1  0  -0.683616  0  1.975849  0  0  -0.632466  0  2.205118  0  0  -0.655929  0  2.19289  0  0  -0.347372  -0.61594  0  2.213067  0
O  O84  1  0.15943424  0.19365089  0.43962059  1  0  -0.664203  0  2.024159  0  0  -0.608853  0  2.260044  0  0  -0.632396  0  2.250058  0  0  -0.340006  -0.59248  0  2.26644  0
O  O85  1  0.34057096  0.69365121  0.06037770  1  0  -0.664193  0  2.024269  0  0  -0.608827  0  2.260122  0  0  -0.632379  0  2.250165  0  0  -0.340014  -0.592455  0  2.266517  0
O  O86  1  0.84056845  0.80634873  0.56037873  1  0  -0.664151  0  2.024205  0  0  -0.608824  0  2.260077  0  0  -0.632361  0  2.250094  0  0  -0.340002  -0.592453  0  2.266471  0
O  O87  1  0.65943479  0.30634756  0.93962188  1  0  -0.664204  0  2.024167  0  0  -0.60885  0  2.260027  0  0  -0.632396  0  2.250057  0  0  -0.340006  -0.592479  0  2.266424  0
O  O88  1  0.15891182  0.47977014  0.70481786  1  0  -0.902255  0  1.802269  0  0  -0.852812  0  1.969626  0  0  -0.869696  0  1.937088  0  0  -0.630572  -0.84084  0  1.992423  0
O  O89  1  0.34108716  0.97976956  0.79518225  1  0  -0.902255  0  1.802253  0  0  -0.852811  0  1.969606  0  0  -0.869697  0  1.937075  0  0  -0.630552  -0.840839  0  1.992404  0
O  O90  1  0.84108783  0.52023033  0.29518286  1  0  -0.902231  0  1.802285  0  0  -0.852796  0  1.969619  0  0  -0.869677  0  1.937079  0  0  -0.630553  -0.840824  0  1.992418  0
O  O91  1  0.65891402  0.02023091  0.20481860  1  0  -0.902257  0  1.80226  0  0  -0.852845  0  1.969541  0  0  -0.869732  0  1.937007  0  0  -0.630565  -0.840872  0  1.992337  0
O  O92  1  0.14213849  0.42025625  0.46203299  1  0  -0.917571  0  1.806696  0  0  -0.872723  0  1.980917  0  0  -0.889712  0  1.949987  0  0  -0.658886  -0.860568  0  2.002594  0
O  O93  1  0.35786372  0.92025657  0.03796666  1  0  -0.917542  0  1.806744  0  0  -0.872696  0  1.980963  0  0  -0.889685  0  1.950035  0  0  -0.65888  -0.860539  0  2.00264  0
O  O94  1  0.85786268  0.57974337  0.53796704  1  0  -0.917545  0  1.806732  0  0  -0.872692  0  1.980948  0  0  -0.889684  0  1.950018  0  0  -0.658879  -0.860535  0  2.002623  0
O  O95  1  0.64213593  0.07974390  0.96203324  1  0  -0.917549  0  1.806729  0  0  -0.872692  0  1.980946  0  0  -0.889683  0  1.950018  0  0  -0.658897  -0.860537  0  2.002618  0
O  O96  1  0.78778893  0.23254357  0.26314808  1  0  -0.89597  0  1.845111  0  0  -0.837723  0  2.021198  0  0  -0.857201  0  1.98768  0  0  -0.611266  -0.823928  0  2.044634  0
O  O97  1  0.71221296  0.73254214  0.23685251  1  0  -0.89597  0  1.845142  0  0  -0.837711  0  2.021246  0  0  -0.857182  0  1.987733  0  0  -0.611238  -0.823917  0  2.044684  0
O  O98  1  0.21220920  0.76745775  0.73685334  1  0  -0.895773  0  1.845351  0  0  -0.837558  0  2.021354  0  0  -0.857035  0  1.98784  0  0  -0.611209  -0.823763  0  2.044787  0
O  O99  1  0.28778973  0.26745748  0.76314599  1  0  -0.895917  0  1.845141  0  0  -0.837653  0  2.021224  0  0  -0.857126  0  1.987716  0  0  -0.611247  -0.823858  0  2.044657  0
