# generated using pymatgen
data_Cu2H6C7N6O
_symmetry_space_group_name_H-M   'P 1'
_cell_length_a   11.33831412
_cell_length_b   14.21822829
_cell_length_c   15.37826929
_cell_angle_alpha   98.79983651
_cell_angle_beta   111.63683294
_cell_angle_gamma   113.50616364
_symmetry_Int_Tables_number   1
_chemical_formula_structural   Cu2H6C7N6O
_chemical_formula_sum   'Cu16 H48 C56 N48 O8'
_cell_volume   1977.98267442
_cell_formula_units_Z   8
loop_
 _symmetry_equiv_pos_site_id
 _symmetry_equiv_pos_as_xyz
  1  'x, y, z'
loop_
 _atom_site_type_symbol
 _atom_site_label
 _atom_site_symmetry_multiplicity
 _atom_site_fract_x
 _atom_site_fract_y
 _atom_site_fract_z
 _atom_site_occupancy
 _atom_site_pbe_bader_charge
 _atom_site_pbe_bader_spin_density
 _atom_site_pbe_cm5_charge
 _atom_site_pbe_ddec_charge
 _atom_site_pbe_ddec_spin_density
 _atom_site_pbe_ddec_sum_bond_order
 _atom_site_pbe_magmom
Cu  Cu0  1  0.90404845  0.24992264  0.24994108  1  0.659501  0  0.520883  0.362513  0  2.134328  0
Cu  Cu1  1  0.09595394  0.75007659  0.75005921  1  0.659466  0  0.52088  0.362489  0  2.134244  0
Cu  Cu2  1  0.91318667  0.03151988  0.54826038  1  0.62159  0  0.51834  0.25078  0  2.384773  0
Cu  Cu3  1  0.83327859  0.46832727  0.95167590  1  0.618352  0  0.518656  0.250808  0  2.387189  0
Cu  Cu4  1  0.08681939  0.96847771  0.45173940  1  0.621451  0  0.518398  0.250917  0  2.384753  0
Cu  Cu5  1  0.16671793  0.53167606  0.04832657  1  0.618232  0  0.518631  0.250713  0  2.387309  0
Cu  Cu6  1  0.20238723  0.31301488  0.67146201  1  0.625262  0  0.539989  0.280945  0  2.354318  0
Cu  Cu7  1  0.71793444  0.18692685  0.82846008  1  0.625055  0  0.540124  0.281247  0  2.353403  0
Cu  Cu8  1  0.79761731  0.68698761  0.32853865  1  0.625295  0  0.539987  0.280934  0  2.354378  0
Cu  Cu9  1  0.28206576  0.81307480  0.17153732  1  0.625065  0  0.540198  0.281302  0  2.353507  0
Cu  Cu10  1  0.41316532  0.62614953  0.48665499  1  0.757766  0  0.583845  0.396373  0  2.28822  0
Cu  Cu11  1  0.80031742  0.87376661  0.01334093  1  0.757053  0  0.584081  0.397164  0  2.287949  0
Cu  Cu12  1  0.58683431  0.37385704  0.51334486  1  0.757662  0  0.583873  0.396517  0  2.288059  0
Cu  Cu13  1  0.19968601  0.12623999  0.98666191  1  0.756966  0  0.584059  0.397085  0  2.287989  0
Cu  Cu14  1  0.65834114  0.74995806  0.75001553  1  0.817427  0  0.636457  0.369672  0  2.565049  0
Cu  Cu15  1  0.34164927  0.25004606  0.24998406  1  0.817313  0  0.636424  0.369682  0  2.564997  0
H  H16  1  0.75223148  0.98865524  0.23258428  1  0.089995  0  0.104316  0.168415  0  1.001295  0
H  H17  1  0.03081103  0.51127564  0.26717538  1  0.090595  0  0.104255  0.168366  0  1.001764  0
H  H18  1  0.24777921  0.01134073  0.76741656  1  0.090076  0  0.104338  0.168511  0  1.001249  0
H  H19  1  0.96918561  0.48872930  0.73282409  1  0.090641  0  0.104264  0.168403  0  1.001673  0
H  H20  1  0.64207903  0.03013966  0.26420376  1  0.073669  0  0.099171  0.150535  0  1.006522  0
H  H21  1  0.84751635  0.46964648  0.23556247  1  0.088593  0  0.099218  0.150741  0  1.007353  0
H  H22  1  0.35792666  0.96985302  0.73579527  1  0.073092  0  0.099148  0.150424  0  1.006642  0
H  H23  1  0.15247980  0.53035193  0.76443729  1  0.087201  0  0.099215  0.15074  0  1.007271  0
H  H24  1  0.70097896  0.94666114  0.32320185  1  0.059127  0  0.092366  0.135532  0  1.048789  0
H  H25  1  0.93076176  0.55309929  0.17649155  1  0.060051  0  0.092268  0.135367  0  1.049386  0
H  H26  1  0.29902916  0.05333237  0.67679796  1  0.059053  0  0.092324  0.135408  0  1.048964  0
H  H27  1  0.06922894  0.44690240  0.82350910  1  0.060202  0  0.092319  0.135433  0  1.049236  0
H  H28  1  0.50938175  0.66459584  0.87189540  1  0.094255  0  0.099844  0.141021  0  1.023436  0
H  H29  1  0.47319830  0.83541156  0.62800213  1  0.101985  0  0.099795  0.141293  0  1.023957  0
H  H30  1  0.49062303  0.33540989  0.12810250  1  0.094041  0  0.099829  0.141007  0  1.023458  0
H  H31  1  0.52680380  0.16459011  0.37199775  1  0.101968  0  0.09979  0.141271  0  1.023954  0
H  H32  1  0.53058460  0.54692235  0.86368337  1  0.065199  0  0.094529  0.136387  0  1.025257  0
H  H33  1  0.62036344  0.95318766  0.63638513  1  0.061794  0  0.094183  0.136153  0  1.024309  0
H  H34  1  0.46941435  0.45308170  0.13630945  1  0.065092  0  0.094503  0.13635  0  1.025238  0
H  H35  1  0.37963379  0.04681237  0.36361385  1  0.061767  0  0.094183  0.136159  0  1.024318  0
H  H36  1  0.36318231  0.53533008  0.85084441  1  0.037435  0  0.093222  0.133966  0  1.023032  0
H  H37  1  0.47715471  0.96460064  0.64896932  1  0.033684  0  0.093374  0.134085  0  1.023436  0
H  H38  1  0.63682166  0.46467733  0.14915739  1  0.037649  0  0.093229  0.133984  0  1.022993  0
H  H39  1  0.52284036  0.03539610  0.35102733  1  0.0337  0  0.093382  0.134064  0  1.023493  0
H  H40  1  0.57544002  0.69506012  0.35922152  1  0.089642  0  0.096599  0.145308  0  1.017848  0
H  H41  1  0.02121668  0.80479279  0.14079295  1  0.067855  0  0.096509  0.145285  0  1.018287  0
H  H42  1  0.42456175  0.30493098  0.64078207  1  0.089649  0  0.096635  0.145371  0  1.017756  0
H  H43  1  0.97878798  0.19521131  0.85920535  1  0.067842  0  0.096483  0.145254  0  1.018386  0
H  H44  1  0.72585387  0.82296500  0.38405621  1  0.070336  0  0.087174  0.119624  0  1.087436  0
H  H45  1  0.01883339  0.67689457  0.11594573  1  0.048001  0  0.08741  0.119786  0  1.086269  0
H  H46  1  0.27414980  0.17702608  0.61594530  1  0.069881  0  0.087211  0.119678  0  1.087407  0
H  H47  1  0.98116788  0.32310868  0.88404958  1  0.047766  0  0.087431  0.11979  0  1.086345  0
H  H48  1  0.55741304  0.81400645  0.36569089  1  0.046645  0  0.095307  0.141281  0  1.021175  0
H  H49  1  0.87781563  0.68588141  0.13444131  1  0.057443  0  0.095494  0.141338  0  1.021933  0
H  H50  1  0.44258765  0.18598295  0.63430633  1  0.046696  0  0.095284  0.141215  0  1.021218  0
H  H51  1  0.12219201  0.31412437  0.86556064  1  0.057506  0  0.095472  0.141306  0  1.021959  0
H  H52  1  0.46315594  0.35789507  0.86644071  1  0.052124  0  0.0945  0.13343  0  1.027315  0
H  H53  1  0.73893977  0.14223531  0.63346686  1  0.068704  0  0.094825  0.133582  0  1.026158  0
H  H54  1  0.53684682  0.64210905  0.13355902  1  0.051887  0  0.094525  0.133455  0  1.027274  0
H  H55  1  0.26108289  0.85778033  0.36654052  1  0.068281  0  0.094795  0.133548  0  1.02616  0
H  H56  1  0.47833449  0.28759025  0.95344776  1  0.064269  0  0.104126  0.158454  0  0.97623  0
H  H57  1  0.73745338  0.21262103  0.54651474  1  0.060013  0  0.10378  0.157583  0  0.976835  0
H  H58  1  0.52167290  0.71241223  0.04655108  1  0.064313  0  0.1041  0.158453  0  0.976286  0
H  H59  1  0.26256535  0.78739296  0.45349134  1  0.06007  0  0.103809  0.15762  0  0.976824  0
H  H60  1  0.40884668  0.37892797  0.95928084  1  0.027802  0  0.098285  0.149444  0  0.992716  0
H  H61  1  0.57074146  0.12123892  0.54064508  1  0.078156  0  0.09813  0.149022  0  0.99244  0
H  H62  1  0.59115517  0.62107044  0.04071919  1  0.027884  0  0.098295  0.149459  0  0.992714  0
H  H63  1  0.42927759  0.87876688  0.45935870  1  0.077862  0  0.098135  0.149072  0  0.992458  0
C  C64  1  0.73291035  0.01363208  0.29491413  1  -0.05109  0  -0.237668  -0.4733  0  3.919892  0
C  C65  1  0.92413585  0.48619595  0.20485919  1  -0.074888  0  -0.237651  -0.473735  0  3.920897  0
C  C66  1  0.26709832  0.98636228  0.70508854  1  -0.050574  0  -0.237677  -0.473195  0  3.9201  0
C  C67  1  0.07585919  0.51380655  0.79514146  1  -0.073663  0  -0.23769  -0.473791  0  3.920661  0
C  C68  1  0.86548109  0.11322201  0.37552867  1  0.97409  0  0.218003  0.390485  0  3.953054  0
C  C69  1  0.87658540  0.38659635  0.12431164  1  0.98382  0  0.218679  0.39183  0  3.950659  0
C  C70  1  0.13452431  0.88677313  0.62447125  1  0.974261  0  0.218137  0.390569  0  3.9531  0
C  C71  1  0.12341438  0.61340615  0.87568902  1  0.983875  0  0.218648  0.391766  0  3.950692  0
C  C72  1  0.04771377  0.27724606  0.45335333  1  0.9699  0  0.196455  0.205143  0  4.013503  0
C  C73  1  0.81706033  0.22258218  0.04655906  1  0.936846  0  0.196801  0.205737  0  4.012879  0
C  C74  1  0.95229122  0.72274988  0.54664529  1  0.969421  0  0.19656  0.205378  0  4.013358  0
C  C75  1  0.18294772  0.77742282  0.95344615  1  0.936678  0  0.196722  0.20567  0  4.012975  0
C  C76  1  0.15005362  0.38863006  0.46625147  1  0.958752  0  0.151096  0.257002  0  4.040623  0
C  C77  1  0.79516519  0.11123451  0.03371261  1  0.936143  0  0.150168  0.254868  0  4.044575  0
C  C78  1  0.84994781  0.61136914  0.53374660  1  0.958895  0  0.151148  0.256987  0  4.04057  0
C  C79  1  0.20484013  0.88877206  0.96628685  1  0.936897  0  0.150186  0.254867  0  4.045157  0
C  C80  1  0.26622666  0.46572182  0.56541822  1  0.900008  0  0.189268  0.195804  0  4.00077  0
C  C81  1  0.73508493  0.03417031  0.93453343  1  0.927753  0  0.189505  0.195495  0  4.001871  0
C  C82  1  0.73377056  0.53427820  0.43458010  1  0.900026  0  0.189221  0.195707  0  4.000857  0
C  C83  1  0.26491676  0.96583221  0.06546905  1  0.927384  0  0.18949  0.19541  0  4.001994  0
C  C84  1  0.39513153  0.54934461  0.72429349  1  0.97899  0  0.211184  0.380938  0  3.968806  0
C  C85  1  0.62156060  0.95061377  0.77565058  1  0.960615  0  0.210687  0.380522  0  3.969844  0
C  C86  1  0.60486362  0.45065948  0.27570415  1  0.979185  0  0.211133  0.380967  0  3.96876  0
C  C87  1  0.37843823  0.04938873  0.22434981  1  0.960636  0  0.210711  0.380561  0  3.969943  0
C  C88  1  0.45253062  0.57571080  0.83377656  1  -0.079126  0  -0.238975  -0.477647  0  3.978194  0
C  C89  1  0.54326727  0.92429646  0.66616032  1  -0.078587  0  -0.238399  -0.477965  0  3.979767  0
C  C90  1  0.54746941  0.42429492  0.16622068  1  -0.079039  0  -0.238916  -0.477596  0  3.978067  0
C  C91  1  0.45673091  0.07570358  0.33383956  1  -0.078546  0  -0.238376  -0.477911  0  3.979906  0
C  C92  1  0.63286329  0.78382371  0.39792766  1  -0.074851  0  -0.247511  -0.480208  0  3.968698  0
C  C93  1  0.95112312  0.71603417  0.10212366  1  -0.043044  0  -0.247884  -0.48073  0  3.969364  0
C  C94  1  0.36713711  0.21616816  0.60207176  1  -0.074419  0  -0.247549  -0.480298  0  3.96875  0
C  C95  1  0.04887625  0.28396913  0.89787504  1  -0.042954  0  -0.247892  -0.480714  0  3.969558  0
C  C96  1  0.68762726  0.81067974  0.50692555  1  0.97304  0  0.206428  0.377589  0  3.981299  0
C  C97  1  0.86993421  0.68917004  0.99313511  1  0.964114  0  0.206284  0.37793  0  3.98166  0
C  C98  1  0.31237405  0.18931786  0.49307488  1  0.972954  0  0.206444  0.377669  0  3.981417  0
C  C99  1  0.13006082  0.31083244  0.00686358  1  0.964337  0  0.206215  0.377847  0  3.981734  0
C  C100  1  0.82307370  0.89455314  0.66582474  1  0.869961  0  0.184555  0.178741  0  3.989421  0
C  C101  1  0.76257051  0.60532557  0.83421647  1  0.861037  0  0.184455  0.178533  0  3.988933  0
C  C102  1  0.17692758  0.10545016  0.33417447  1  0.869901  0  0.18445  0.178598  0  3.989652  0
C  C103  1  0.23741667  0.39467363  0.16578158  1  0.860832  0  0.184606  0.17886  0  3.988942  0
C  C104  1  0.93970300  0.97558708  0.76467532  1  0.960608  0  0.146078  0.244908  0  4.037269  0
C  C105  1  0.69943288  0.52437420  0.73536274  1  0.97572  0  0.146787  0.24477  0  4.03747  0
C  C106  1  0.06029597  0.02441714  0.23533314  1  0.960441  0  0.146067  0.244892  0  4.036895  0
C  C107  1  0.30055222  0.47562901  0.26462942  1  0.975615  0  0.146724  0.2447  0  4.037244  0
C  C108  1  0.05840938  0.07514972  0.77142453  1  0.926466  0  0.191997  0.193918  0  4.027591  0
C  C109  1  0.71190654  0.42487826  0.72858168  1  0.908395  0  0.191922  0.194531  0  4.028843  0
C  C110  1  0.94159218  0.92485112  0.22857445  1  0.926557  0  0.192032  0.193992  0  4.027705  0
C  C111  1  0.28808630  0.57512667  0.27141803  1  0.908578  0  0.191867  0.194532  0  4.028813  0
C  C112  1  0.26206261  0.22521035  0.83774509  1  0.968984  0  0.210133  0.367403  0  3.98568  0
C  C113  1  0.69921562  0.27487314  0.66222460  1  0.960006  0  0.209665  0.365701  0  3.988024  0
C  C114  1  0.73794222  0.77478969  0.16225467  1  0.968881  0  0.210177  0.367498  0  3.985657  0
C  C115  1  0.30078983  0.72513509  0.33777707  1  0.959756  0  0.209668  0.365661  0  3.988073  0
C  C116  1  0.41133272  0.31754580  0.90799008  1  1.1e-05  0  -0.230889  -0.46379  0  3.948857  0
C  C117  1  0.68592411  0.18260765  0.59194568  1  -0.078886  0  -0.230748  -0.46231  0  3.947952  0
C  C118  1  0.58867074  0.68245506  0.09200941  1  0.000123  0  -0.230921  -0.46386  0  3.949017  0
C  C119  1  0.31409395  0.81740389  0.40805989  1  -0.078215  0  -0.230738  -0.462362  0  3.947953  0
N  N120  1  0.93265713  0.20759031  0.36152739  1  -1.246822  0  -0.40327  -0.362961  0  3.67246  0
N  N121  1  0.86345904  0.29227375  0.13836591  1  -1.223346  0  -0.403381  -0.363211  0  3.671572  0
N  N122  1  0.06734719  0.79240317  0.63847007  1  -1.247061  0  -0.403332  -0.363004  0  3.672364  0
N  N123  1  0.13654604  0.70772958  0.86163631  1  -1.223319  0  -0.40339  -0.363183  0  3.671558  0
N  N124  1  0.93618872  0.12426233  0.47255726  1  -0.742894  0  -0.299472  -0.226489  0  3.648545  0
N  N125  1  0.83931707  0.37555303  0.02728993  1  -0.743124  0  -0.300247  -0.227249  0  3.647863  0
N  N126  1  0.06381639  0.87573525  0.52744226  1  -0.74252  0  -0.299567  -0.226604  0  3.648898  0
N  N127  1  0.16068205  0.62444702  0.97271087  1  -0.743136  0  -0.300268  -0.227254  0  3.647924  0
N  N128  1  0.05170571  0.22922867  0.52177472  1  -0.733557  0  -0.270778  -0.189317  0  3.501438  0
N  N129  1  0.80068802  0.27057010  0.97810904  1  -0.735243  0  -0.271188  -0.189949  0  3.500382  0
N  N130  1  0.94829940  0.77076893  0.47822610  1  -0.733095  0  -0.270791  -0.189431  0  3.501658  0
N  N131  1  0.19931694  0.72943160  0.02189358  1  -0.735394  0  -0.271112  -0.18987  0  3.500538  0
N  N132  1  0.28426111  0.45098544  0.65469638  1  -1.211353  0  -0.400508  -0.383582  0  3.641113  0
N  N133  1  0.67861332  0.04893382  0.84525070  1  -1.199462  0  -0.400592  -0.383273  0  3.639759  0
N  N134  1  0.71573773  0.54901705  0.34530336  1  -1.21142  0  -0.400498  -0.38351  0  3.641059  0
N  N135  1  0.32138890  0.95106951  0.15475073  1  -1.199504  0  -0.400639  -0.383313  0  3.639864  0
N  N136  1  0.36467649  0.56816788  0.58101616  1  -0.715428  0  -0.276405  -0.16996  0  3.632018  0
N  N137  1  0.71547259  0.93173107  0.91893253  1  -0.700269  0  -0.27681  -0.170285  0  3.633356  0
N  N138  1  0.63531502  0.43183211  0.41897994  1  -0.702497  0  -0.276389  -0.169938  0  3.632127  0
N  N139  1  0.28452571  0.06827063  0.08106956  1  -0.700274  0  -0.276789  -0.170183  0  3.63343  0
N  N140  1  0.44618709  0.62108574  0.68158764  1  -0.678465  0  -0.265166  -0.230424  0  3.461894  0
N  N141  1  0.64354946  0.87885219  0.81834810  1  -0.684404  0  -0.264537  -0.229101  0  3.459901  0
N  N142  1  0.55380277  0.37891751  0.31840778  1  -0.691505  0  -0.26515  -0.230496  0  3.462007  0
N  N143  1  0.35644652  0.12115032  0.18165346  1  -0.684455  0  -0.264495  -0.229091  0  3.459919  0
N  N144  1  0.71189375  0.79875205  0.65169413  1  -0.695384  0  -0.269894  -0.164449  0  3.576847  0
N  N145  1  0.76138284  0.70114087  0.84836693  1  -0.686691  0  -0.270136  -0.164713  0  3.576466  0
N  N146  1  0.28810670  0.20125292  0.34830833  1  -0.695423  0  -0.269739  -0.164225  0  3.576858  0
N  N147  1  0.23860839  0.29886159  0.15163006  1  -0.686249  0  -0.270218  -0.164846  0  3.576664  0
N  N148  1  0.62567438  0.74557494  0.55075724  1  -0.732031  0  -0.2697  -0.232892  0  3.461176  0
N  N149  1  0.82921045  0.75424573  0.94932463  1  -0.723306  0  -0.269277  -0.232628  0  3.460584  0
N  N150  1  0.37432474  0.25442511  0.44924356  1  -0.732051  0  -0.269746  -0.233025  0  3.461295  0
N  N151  1  0.17078851  0.24575839  0.05067471  1  -0.7234  0  -0.269229  -0.23256  0  3.460712  0
N  N152  1  0.81006784  0.90409417  0.57539063  1  -1.20896  0  -0.397818  -0.37165  0  3.618956  0
N  N153  1  0.83054520  0.59579949  0.92464975  1  -1.199124  0  -0.39805  -0.371471  0  3.618386  0
N  N154  1  0.18993306  0.09590422  0.42460783  1  -1.208823  0  -0.397838  -0.37171  0  3.618941  0
N  N155  1  0.16944454  0.40420218  0.07534998  1  -1.199283  0  -0.39798  -0.371436  0  3.618274  0
N  N156  1  0.18472754  0.14072524  0.85954337  1  -1.208948  0  -0.386889  -0.380582  0  3.601752  0
N  N157  1  0.68457962  0.35937188  0.64046992  1  -1.201915  0  -0.386658  -0.379139  0  3.600586  0
N  N158  1  0.81527687  0.85927562  0.14045704  1  -1.208977  0  -0.386911  -0.380597  0  3.601723  0
N  N159  1  0.31542476  0.64063470  0.35953058  1  -1.201729  0  -0.386622  -0.378976  0  3.600466  0
N  N160  1  0.18508931  0.21470863  0.74196078  1  -0.745667  0  -0.308063  -0.229322  0  3.661182  0
N  N161  1  0.72839424  0.28524401  0.75796266  1  -0.729978  0  -0.307723  -0.228341  0  3.65997  0
N  N162  1  0.81491700  0.78529223  0.25803885  1  -0.745609  0  -0.308083  -0.229449  0  3.661307  0
N  N163  1  0.27160389  0.71476176  0.24203797  1  -0.730062  0  -0.307832  -0.228454  0  3.660175  0
N  N164  1  0.05634104  0.11807285  0.69927019  1  -0.746771  0  -0.27659  -0.200901  0  3.507482  0
N  N165  1  0.73894519  0.38188484  0.80069859  1  -0.742213  0  -0.276998  -0.202254  0  3.507648  0
N  N166  1  0.94366540  0.88192965  0.30073034  1  -0.746809  0  -0.276559  -0.200853  0  3.507412  0
N  N167  1  0.26104712  0.61811925  0.19929892  1  -0.742288  0  -0.276983  -0.202288  0  3.507591  0
O  O168  1  0.13207143  0.41515089  0.39057266  1  -1.070923  0  -0.258086  -0.391651  0  2.26171  0
O  O169  1  0.82632539  0.08470880  0.10937367  1  -1.070856  0  -0.257761  -0.39051  0  2.264226  0
O  O170  1  0.86792376  0.58484748  0.60942423  1  -1.071054  0  -0.258133  -0.391675  0  2.261673  0
O  O171  1  0.17368093  0.91529216  0.89063508  1  -1.070876  0  -0.257738  -0.390454  0  2.264731  0
O  O172  1  0.94233704  0.96414672  0.84409200  1  -1.048062  0  -0.247387  -0.370324  0  2.218639  0
O  O173  1  0.63402404  0.53584483  0.65595730  1  -1.058679  0  -0.248087  -0.371032  0  2.218159  0
O  O174  1  0.05765005  0.03586381  0.15589712  1  -1.048142  0  -0.247529  -0.370508  0  2.218096  0
O  O175  1  0.36597195  0.46415772  0.34404817  1  -1.058725  0  -0.24804  -0.371091  0  2.217739  0
