# generated using pymatgen
data_HgH26C16(SBr)2
_symmetry_space_group_name_H-M   'P 1'
_cell_length_a   9.05479221
_cell_length_b   9.05478636
_cell_length_c   12.81038999
_cell_angle_alpha   93.53622495
_cell_angle_beta   93.53627195
_cell_angle_gamma   90.97528503
_symmetry_Int_Tables_number   1
_chemical_formula_structural   HgH26C16(SBr)2
_chemical_formula_sum   'Hg2 H52 C32 S4 Br4'
_cell_volume   1046.08924852
_cell_formula_units_Z   2
loop_
 _symmetry_equiv_pos_site_id
 _symmetry_equiv_pos_as_xyz
  1  'x, y, z'
loop_
 _atom_site_type_symbol
 _atom_site_label
 _atom_site_symmetry_multiplicity
 _atom_site_fract_x
 _atom_site_fract_y
 _atom_site_fract_z
 _atom_site_occupancy
 _atom_site_hle17_bader_spin_density
 _atom_site_hle17_ddec_charge
 _atom_site_hle17_ddec_spin_density
 _atom_site_hle17_ddec_sum_bond_order
 _atom_site_hle17_magmom
 _atom_site_hse06_10hf_bader_spin_density
 _atom_site_hse06_10hf_ddec_charge
 _atom_site_hse06_10hf_ddec_spin_density
 _atom_site_hse06_10hf_ddec_sum_bond_order
 _atom_site_hse06_10hf_magmom
 _atom_site_hse06_bader_spin_density
 _atom_site_hse06_ddec_charge
 _atom_site_hse06_ddec_spin_density
 _atom_site_hse06_ddec_sum_bond_order
 _atom_site_hse06_magmom
 _atom_site_pbe_bader_spin_density
 _atom_site_pbe_cm5_charge
 _atom_site_pbe_ddec_charge
 _atom_site_pbe_ddec_spin_density
 _atom_site_pbe_ddec_sum_bond_order
 _atom_site_pbe_magmom
Hg  Hg0  1  0.21698327  0.78301190  0.74999871  1  0  0.479601  0  2.171925  0  0  0.348969  0  2.670709  0  0  0.387702  0  2.647946  0  0  0.375661  0.322777  0  2.687191  0
Hg  Hg1  1  0.78301375  0.21697366  0.24999706  1  0  0.479654  0  2.171915  0  0  0.349001  0  2.670742  0  0  0.387736  0  2.647982  0  0  0.375675  0.322817  0  2.68721  0
H  H2  1  0.64902396  0.83639612  0.93886193  1  0  0.111688  0  0.932492  0  0  0.128586  0  0.989817  0  0  0.13007  0  0.988972  0  0  0.102415  0.127313  0  0.991049  0
H  H3  1  0.16362277  0.35096436  0.56113788  1  0  0.111702  0  0.932454  0  0  0.128615  0  0.989771  0  0  0.130094  0  0.988926  0  0  0.102409  0.127344  0  0.990999  0
H  H4  1  0.35096207  0.16362720  0.06113811  1  0  0.111714  0  0.932419  0  0  0.12865  0  0.989733  0  0  0.130133  0  0.988888  0  0  0.102438  0.127379  0  0.99096  0
H  H5  1  0.83639642  0.64902208  0.43886200  1  0  0.111713  0  0.932498  0  0  0.128593  0  0.989843  0  0  0.130074  0  0.989  0  0  0.102417  0.12732  0  0.991073  0
H  H6  1  0.45471194  0.86734875  0.94696508  1  0  0.091127  0  0.979959  0  0  0.100958  0  1.053747  0  0  0.102498  0  1.053044  0  0  0.086513  0.099735  0  1.054514  0
H  H7  1  0.13265904  0.54527214  0.55303166  1  0  0.091065  0  0.980202  0  0  0.100976  0  1.053861  0  0  0.102508  0  1.053162  0  0  0.086557  0.099755  0  1.054637  0
H  H8  1  0.54526941  0.13266686  0.05302818  1  0  0.091048  0  0.980269  0  0  0.100974  0  1.053937  0  0  0.102506  0  1.053242  0  0  0.086563  0.099752  0  1.05472  0
H  H9  1  0.86733788  0.45471010  0.44696708  1  0  0.091134  0  0.980025  0  0  0.100957  0  1.053817  0  0  0.102498  0  1.053101  0  0  0.086518  0.099732  0  1.054591  0
H  H10  1  0.31550646  0.69474631  0.03324389  1  0  0.086587  0  0.989975  0  0  0.093748  0  1.060516  0  0  0.096918  0  1.058955  0  0  0.086751  0.091268  0  1.061743  0
H  H11  1  0.30526067  0.68448738  0.46675185  1  0  0.086627  0  0.989978  0  0  0.093778  0  1.060517  0  0  0.096952  0  1.058949  0  0  0.086756  0.091297  0  1.061745  0
H  H12  1  0.68448497  0.30527253  0.96676088  1  0  0.086579  0  0.989817  0  0  0.093708  0  1.060413  0  0  0.096884  0  1.05884  0  0  0.086722  0.091227  0  1.06165  0
H  H13  1  0.69473679  0.31551256  0.53323831  1  0  0.086598  0  0.990084  0  0  0.093752  0  1.060612  0  0  0.096922  0  1.059054  0  0  0.086753  0.091271  0  1.061845  0
H  H14  1  0.71275925  0.55176649  0.89354772  1  0  0.091251  0  0.953815  0  0  0.104439  0  1.013216  0  0  0.106914  0  1.012412  0  0  0.0989  0.102649  0  1.01371  0
H  H15  1  0.44824878  0.28724023  0.60645252  1  0  0.091226  0  0.953892  0  0  0.104448  0  1.013257  0  0  0.106922  0  1.012451  0  0  0.098921  0.102647  0  1.013757  0
H  H16  1  0.28723331  0.44825345  0.10645714  1  0  0.091178  0  0.953925  0  0  0.104425  0  1.013266  0  0  0.1069  0  1.012465  0  0  0.098926  0.102626  0  1.013758  0
H  H17  1  0.55175417  0.71275855  0.39353783  1  0  0.091226  0  0.953806  0  0  0.104436  0  1.013189  0  0  0.106915  0  1.012377  0  0  0.098904  0.102613  0  1.013714  0
H  H18  1  0.61275505  0.04197108  0.58573915  1  0  0.113308  0  0.945942  0  0  0.137698  0  1.001604  0  0  0.138584  0  1.002332  0  0  0.091772  0.137272  0  1.000756  0
H  H19  1  0.95802999  0.38724665  0.91426070  1  0  0.113291  0  0.945876  0  0  0.137654  0  1.001586  0  0  0.13854  0  1.002316  0  0  0.091755  0.137231  0  1.000733  0
H  H20  1  0.38724899  0.95802659  0.41425978  1  0  0.113334  0  0.945841  0  0  0.137698  0  1.00155  0  0  0.138585  0  1.002279  0  0  0.091777  0.137275  0  1.000689  0
H  H21  1  0.04197647  0.61275764  0.08574252  1  0  0.113315  0  0.945935  0  0  0.137712  0  1.001592  0  0  0.138596  0  1.002322  0  0  0.0918  0.137286  0  1.000742  0
H  H22  1  0.44023914  0.94710749  0.59693742  1  0  0.098638  0  0.977054  0  0  0.114287  0  1.049266  0  0  0.115377  0  1.049807  0  0  0.077793  0.113396  0  1.049098  0
H  H23  1  0.05289801  0.55976019  0.90306219  1  0  0.098581  0  0.977023  0  0  0.114217  0  1.049257  0  0  0.115321  0  1.049786  0  0  0.077756  0.113328  0  1.049093  0
H  H24  1  0.55976175  0.05289575  0.40306473  1  0  0.098617  0  0.977087  0  0  0.114277  0  1.049289  0  0  0.115372  0  1.049826  0  0  0.077788  0.113382  0  1.049125  0
H  H25  1  0.94711280  0.44024184  0.09693488  1  0  0.098626  0  0.977072  0  0  0.114278  0  1.049282  0  0  0.11537  0  1.04982  0  0  0.077797  0.113387  0  1.049114  0
H  H26  1  0.60434800  0.84602728  0.57623920  1  0  0.111593  0  0.956083  0  0  0.132637  0  1.014638  0  0  0.133944  0  1.015417  0  0  0.086633  0.131517  0  1.01469  0
H  H27  1  0.15397348  0.39564744  0.92376012  1  0  0.111617  0  0.956097  0  0  0.132656  0  1.014653  0  0  0.133963  0  1.015435  0  0  0.086649  0.13154  0  1.014701  0
H  H28  1  0.39564944  0.15397157  0.42376105  1  0  0.111577  0  0.956079  0  0  0.132619  0  1.014645  0  0  0.133927  0  1.015424  0  0  0.086617  0.1315  0  1.014698  0
H  H29  1  0.84603277  0.60435021  0.07623813  1  0  0.111588  0  0.956179  0  0  0.132589  0  1.014788  0  0  0.133895  0  1.01557  0  0  0.086599  0.13147  0  1.014846  0
H  H30  1  0.81448325  0.03789221  0.72289546  1  0  0.112708  0  0.961691  0  0  0.138301  0  1.014841  0  0  0.139037  0  1.016059  0  0  0.090392  0.136783  0  1.016019  0
H  H31  1  0.96210454  0.18551447  0.77710721  1  0  0.112755  0  0.961795  0  0  0.138339  0  1.014934  0  0  0.139079  0  1.016147  0  0  0.090409  0.136811  0  1.016123  0
H  H32  1  0.18552173  0.96209993  0.27710795  1  0  0.112651  0  0.961757  0  0  0.138235  0  1.01492  0  0  0.138969  0  1.016142  0  0  0.09037  0.136723  0  1.016086  0
H  H33  1  0.03789069  0.81448440  0.22289842  1  0  0.11272  0  0.961672  0  0  0.138308  0  1.014817  0  0  0.139046  0  1.016035  0  0  0.090398  0.136774  0  1.016014  0
H  H34  1  0.80995943  0.84324933  0.72141705  1  0  0.103603  0  0.967008  0  0  0.121631  0  1.034767  0  0  0.123211  0  1.034533  0  0  0.080158  0.120224  0  1.035494  0
H  H35  1  0.15674571  0.19003290  0.77858430  1  0  0.103602  0  0.967072  0  0  0.121646  0  1.034809  0  0  0.123226  0  1.034575  0  0  0.080145  0.120241  0  1.035525  0
H  H36  1  0.19003777  0.15674178  0.27858443  1  0  0.103572  0  0.967083  0  0  0.1216  0  1.034844  0  0  0.123181  0  1.034608  0  0  0.080142  0.12019  0  1.035567  0
H  H37  1  0.84324703  0.80995714  0.22142006  1  0  0.103567  0  0.966987  0  0  0.121586  0  1.034757  0  0  0.123166  0  1.034525  0  0  0.080159  0.12018  0  1.035478  0
H  H38  1  0.79573843  0.95104571  0.84189763  1  0  0.108057  0  0.972667  0  0  0.123874  0  1.042788  0  0  0.125719  0  1.042305  0  0  0.07726  0.121879  0  1.043983  0
H  H39  1  0.04894866  0.20425399  0.65810365  1  0  0.108074  0  0.97268  0  0  0.123895  0  1.042795  0  0  0.125739  0  1.042316  0  0  0.07728  0.121902  0  1.043979  0
H  H40  1  0.20425987  0.04894538  0.15810467  1  0  0.108056  0  0.972711  0  0  0.123864  0  1.042842  0  0  0.125706  0  1.042361  0  0  0.077259  0.121866  0  1.044033  0
H  H41  1  0.95104404  0.79573495  0.34189988  1  0  0.108037  0  0.97262  0  0  0.123848  0  1.042744  0  0  0.125692  0  1.042264  0  0  0.077208  0.121854  0  1.043933  0
H  H42  1  0.57739702  0.18370813  0.76297529  1  0  0.11135  0  0.936897  0  0  0.13598  0  0.991496  0  0  0.137186  0  0.992055  0  0  0.091649  0.134879  0  0.991529  0
H  H43  1  0.81629495  0.42260286  0.73702373  1  0  0.111318  0  0.936918  0  0  0.135943  0  0.99152  0  0  0.137149  0  0.992078  0  0  0.091634  0.134844  0  0.991554  0
H  H44  1  0.42260709  0.81629176  0.23702373  1  0  0.111276  0  0.93684  0  0  0.135893  0  0.991475  0  0  0.137099  0  0.992033  0  0  0.091617  0.134796  0  0.991501  0
H  H45  1  0.18370808  0.57739814  0.26297608  1  0  0.111334  0  0.936899  0  0  0.135953  0  0.991512  0  0  0.137158  0  0.992072  0  0  0.091638  0.134851  0  0.99154  0
H  H46  1  0.55126984  0.08436042  0.87519260  1  0  0.107372  0  0.96868  0  0  0.128324  0  1.031649  0  0  0.129332  0  1.032619  0  0  0.086022  0.127614  0  1.030677  0
H  H47  1  0.91564193  0.44872981  0.62480640  1  0  0.107401  0  0.968646  0  0  0.128368  0  1.031589  0  0  0.129376  0  1.032558  0  0  0.086031  0.127661  0  1.03061  0
H  H48  1  0.44873541  0.91564056  0.12480731  1  0  0.107359  0  0.968662  0  0  0.12831  0  1.031647  0  0  0.129317  0  1.032618  0  0  0.086021  0.1276  0  1.03067  0
H  H49  1  0.08436097  0.55126676  0.37519321  1  0  0.107363  0  0.96866  0  0  0.128317  0  1.031647  0  0  0.129323  0  1.032618  0  0  0.086012  0.127603  0  1.030676  0
H  H50  1  0.40800789  0.08434518  0.77335325  1  0  0.101628  0  0.963012  0  0  0.119939  0  1.031856  0  0  0.121463  0  1.031294  0  0  0.081597  0.118512  0  1.032785  0
H  H51  1  0.91565898  0.59198999  0.72664650  1  0  0.101663  0  0.962961  0  0  0.11992  0  1.031852  0  0  0.121442  0  1.031289  0  0  0.081601  0.118495  0  1.032787  0
H  H52  1  0.59199514  0.91565582  0.22664735  1  0  0.101591  0  0.962996  0  0  0.119904  0  1.031838  0  0  0.121426  0  1.03128  0  0  0.081588  0.118476  0  1.032773  0
H  H53  1  0.08434834  0.40800654  0.27335331  1  0  0.101586  0  0.963023  0  0  0.119905  0  1.031862  0  0  0.121429  0  1.031299  0  0  0.081579  0.118477  0  1.032794  0
C  C54  1  0.53723581  0.79025872  0.91785719  1  0  -0.194461  0  3.659475  0  0  -0.236403  0  3.90505  0  0  -0.235377  0  3.916132  0  0  -0.14833  -0.236541  0  3.896714  0
C  C55  1  0.20975118  0.46275391  0.58214071  1  0  -0.194396  0  3.659578  0  0  -0.236488  0  3.905194  0  0  -0.235441  0  3.916249  0  0  -0.148357  -0.236645  0  3.89688  0
C  C56  1  0.46275434  0.20975460  0.08214259  1  0  -0.194357  0  3.659578  0  0  -0.236526  0  3.905243  0  0  -0.235492  0  3.916316  0  0  -0.148368  -0.236687  0  3.896934  0
C  C57  1  0.79025586  0.53723376  0.41785557  1  0  -0.194481  0  3.659545  0  0  -0.236428  0  3.905026  0  0  -0.235398  0  3.916109  0  0  -0.148301  -0.236573  0  3.896702  0
C  C58  1  0.51738851  0.64037922  0.95999753  1  0  0.094257  0  3.771863  0  0  0.114612  0  4.010667  0  0  0.113867  0  4.035826  0  0  -0.020032  0.114958  0  3.993298  0
C  C59  1  0.35963424  0.48260538  0.54000700  1  0  0.09404  0  3.772245  0  0  0.114551  0  4.010816  0  0  0.113804  0  4.035973  0  0  -0.020028  0.114899  0  3.993446  0
C  C60  1  0.48260631  0.35964180  0.04001216  1  0  0.094082  0  3.771843  0  0  0.114611  0  4.010433  0  0  0.113869  0  4.035592  0  0  -0.020047  0.114967  0  3.993054  0
C  C61  1  0.64036648  0.51739233  0.45998867  1  0  0.094187  0  3.772022  0  0  0.114674  0  4.010608  0  0  0.113933  0  4.035766  0  0  -0.020013  0.115024  0  3.993229  0
C  C62  1  0.39727296  0.60965176  0.01967638  1  0  -0.116479  0  3.756297  0  0  -0.135779  0  4.005103  0  0  -0.139312  0  4.028197  0  0  -0.096816  -0.133253  0  3.98883  0
C  C63  1  0.39035816  0.60272375  0.48032356  1  0  -0.116536  0  3.756263  0  0  -0.135862  0  4.004986  0  0  -0.139397  0  4.028081  0  0  -0.09687  -0.133335  0  3.988708  0
C  C64  1  0.60272510  0.39036701  0.98033257  1  0  -0.116324  0  3.756001  0  0  -0.13562  0  4.004697  0  0  -0.139155  0  4.027789  0  0  -0.096761  -0.133104  0  3.988445  0
C  C65  1  0.60965026  0.39727276  0.51966770  1  0  -0.116512  0  3.756009  0  0  -0.135849  0  4.004782  0  0  -0.139388  0  4.027873  0  0  -0.096801  -0.133321  0  3.988514  0
C  C66  1  0.61928380  0.52894964  0.94043860  1  0  -0.118461  0  3.762216  0  0  -0.13985  0  4.012112  0  0  -0.141738  0  4.033224  0  0  -0.095509  -0.139151  0  3.998298  0
C  C67  1  0.47105274  0.38071557  0.55956574  1  0  -0.118275  0  3.762097  0  0  -0.139724  0  4.01192  0  0  -0.141612  0  4.033031  0  0  -0.095548  -0.139016  0  3.9981  0
C  C68  1  0.38071313  0.47106804  0.05957181  1  0  -0.118305  0  3.762278  0  0  -0.139791  0  4.012116  0  0  -0.141673  0  4.033208  0  0  -0.095517  -0.139081  0  3.998277  0
C  C69  1  0.52894358  0.61928328  0.44042744  1  0  -0.118194  0  3.762123  0  0  -0.139649  0  4.011956  0  0  -0.141533  0  4.033058  0  0  -0.095446  -0.138924  0  3.998133  0
C  C70  1  0.59593379  0.94782605  0.73449967  1  0  0.235034  0  3.567543  0  0  0.270421  0  3.808629  0  0  0.273585  0  3.827789  0  0  -0.001319  0.267794  0  3.795543  0
C  C71  1  0.05217536  0.40406066  0.76550194  1  0  0.234898  0  3.567732  0  0  0.270352  0  3.808688  0  0  0.27352  0  3.827852  0  0  -0.00138  0.267722  0  3.795602  0
C  C72  1  0.40406586  0.05217278  0.26550146  1  0  0.235  0  3.567601  0  0  0.270359  0  3.808722  0  0  0.27353  0  3.827882  0  0  -0.001313  0.267727  0  3.795639  0
C  C73  1  0.94782640  0.59593482  0.23449835  1  0  0.235173  0  3.567587  0  0  0.270447  0  3.808846  0  0  0.273615  0  3.828005  0  0  -0.001275  0.267823  0  3.795752  0
C  C74  1  0.56002390  0.94469967  0.61635669  1  0  -0.35345  0  3.665012  0  0  -0.428902  0  3.894101  0  0  -0.432606  0  3.905625  0  0  -0.248665  -0.425827  0  3.885587  0
C  C75  1  0.05530284  0.43997387  0.88364121  1  0  -0.35337  0  3.665053  0  0  -0.428791  0  3.8941  0  0  -0.432509  0  3.905611  0  0  -0.248624  -0.425722  0  3.885594  0
C  C76  1  0.43997803  0.05530134  0.38364230  1  0  -0.353481  0  3.665069  0  0  -0.428922  0  3.894165  0  0  -0.432628  0  3.905676  0  0  -0.24868  -0.425847  0  3.885662  0
C  C77  1  0.94470344  0.56002488  0.11635709  1  0  -0.353473  0  3.665138  0  0  -0.428882  0  3.894243  0  0  -0.432586  0  3.905761  0  0  -0.248667  -0.425811  0  3.885731  0
C  C78  1  0.76325975  0.94344619  0.75774001  1  0  -0.363664  0  3.68149  0  0  -0.444759  0  3.916501  0  0  -0.448378  0  3.927334  0  0  -0.252135  -0.440561  0  3.909271  0
C  C79  1  0.05655088  0.23673608  0.74226232  1  0  -0.363685  0  3.681781  0  0  -0.444797  0  3.916699  0  0  -0.448422  0  3.927533  0  0  -0.252134  -0.44061  0  3.909498  0
C  C80  1  0.23674087  0.05654819  0.24226098  1  0  -0.363538  0  3.681673  0  0  -0.444604  0  3.916627  0  0  -0.448229  0  3.927476  0  0  -0.252085  -0.440418  0  3.909407  0
C  C81  1  0.94344521  0.76325503  0.25774145  1  0  -0.363675  0  3.681485  0  0  -0.444711  0  3.916537  0  0  -0.448315  0  3.927333  0  0  -0.252131  -0.440501  0  3.909297  0
C  C82  1  0.52840480  0.08189810  0.79007126  1  0  -0.348631  0  3.669663  0  0  -0.428653  0  3.902079  0  0  -0.432019  0  3.913523  0  0  -0.246021  -0.425274  0  3.893584  0
C  C83  1  0.91810201  0.47159310  0.70992835  1  0  -0.348616  0  3.669644  0  0  -0.428604  0  3.902043  0  0  -0.431965  0  3.913477  0  0  -0.245998  -0.425228  0  3.893553  0
C  C84  1  0.47159931  0.91810178  0.20992933  1  0  -0.348475  0  3.669492  0  0  -0.428479  0  3.901925  0  0  -0.431847  0  3.913369  0  0  -0.245987  -0.42511  0  3.893439  0
C  C85  1  0.08189978  0.52840349  0.29007200  1  0  -0.348577  0  3.669578  0  0  -0.428577  0  3.902019  0  0  -0.431943  0  3.913467  0  0  -0.245993  -0.4252  0  3.893532  0
S  S86  1  0.51533827  0.77218955  0.77480527  1  0  0.008439  0  2.449163  0  0  0.048329  0  2.804175  0  0  0.037899  0  2.808637  0  0  0.029935  0.05536  0  2.803581  0
S  S87  1  0.22781318  0.48465500  0.72519482  1  0  0.008502  0  2.449073  0  0  0.048368  0  2.804121  0  0  0.037935  0  2.808569  0  0  0.029958  0.055407  0  2.803528  0
S  S88  1  0.48465923  0.22781151  0.22519587  1  0  0.008468  0  2.449049  0  0  0.048397  0  2.804131  0  0  0.037968  0  2.808583  0  0  0.029954  0.055431  0  2.803541  0
S  S89  1  0.77219058  0.51533381  0.27480293  1  0  0.008368  0  2.449154  0  0  0.048284  0  2.804188  0  0  0.03784  0  2.808665  0  0  0.029905  0.055315  0  2.80359  0
Br  Br90  1  0.09863760  0.85992919  0.57259133  1  0  -0.431356  0  0.969101  0  0  -0.373992  0  1.249835  0  0  -0.390124  0  1.23301  0  0  -0.246829  -0.362005  0  1.263783  0
Br  Br91  1  0.14007097  0.90136183  0.92740720  1  0  -0.431367  0  0.969116  0  0  -0.373987  0  1.249838  0  0  -0.390116  0  1.233014  0  0  -0.246818  -0.361999  0  1.263784  0
Br  Br92  1  0.90136198  0.14006742  0.42740658  1  0  -0.43137  0  0.969113  0  0  -0.373987  0  1.249837  0  0  -0.390118  0  1.233012  0  0  -0.24682  -0.362003  0  1.263778  0
Br  Br93  1  0.85992417  0.09863481  0.07258584  1  0  -0.431384  0  0.969147  0  0  -0.374003  0  1.249866  0  0  -0.390136  0  1.23304  0  0  -0.246841  -0.362019  0  1.263805  0
