# generated using pymatgen
data_NiH4C5N3
_symmetry_space_group_name_H-M   'P 1'
_cell_length_a   5.31504555
_cell_length_b   9.35563281
_cell_length_c   11.41299530
_cell_angle_alpha   90.00092727
_cell_angle_beta   91.04846171
_cell_angle_gamma   90.00215238
_symmetry_Int_Tables_number   1
_chemical_formula_structural   NiH4C5N3
_chemical_formula_sum   'Ni4 H16 C20 N12'
_cell_volume   567.42318897
_cell_formula_units_Z   4
loop_
 _symmetry_equiv_pos_site_id
 _symmetry_equiv_pos_as_xyz
  1  'x, y, z'
loop_
 _atom_site_type_symbol
 _atom_site_label
 _atom_site_symmetry_multiplicity
 _atom_site_fract_x
 _atom_site_fract_y
 _atom_site_fract_z
 _atom_site_occupancy
 _atom_site_pbe_cm5_charge
 _atom_site_pbe_ddec_charge
 _atom_site_pbe_ddec_spin_density
 _atom_site_pbe_ddec_sum_bond_order
 _atom_site_pbe_magmom
Ni  Ni0  1  0.34692501  0.49984463  0.25362394  1  0.49139  0.264901  -1.002395  3.230268  -0.842
Ni  Ni1  1  0.65305799  0.99985530  0.24637684  1  0.491475  0.265008  -1.002198  3.230515  -0.842
Ni  Ni2  1  0.65302039  0.50014689  0.74637048  1  0.49151  0.265058  1.002253  3.23049  0.842
Ni  Ni3  1  0.34697208  0.00014478  0.75362532  1  0.491499  0.265061  1.002388  3.230372  0.842
H  H4  1  0.89907224  0.64658862  0.33022987  1  0.117997  0.099972  -0.000391  1.025841  -0.001
H  H5  1  0.10095221  0.14659685  0.16977138  1  0.117994  0.099985  -0.000391  1.025839  -0.001
H  H6  1  0.10094467  0.35340505  0.66976254  1  0.117977  0.099937  0.00039  1.025849  0.001
H  H7  1  0.89904211  0.85338613  0.83024624  1  0.117997  0.099983  0.00039  1.025861  0.001
H  H8  1  0.38531807  0.63967635  0.00857728  1  0.120203  0.100134  -0.000369  1.003743  0.0
H  H9  1  0.61469095  0.13967253  0.49142285  1  0.120162  0.100049  -0.00037  1.003855  0.0
H  H10  1  0.61465555  0.36033762  0.99142789  1  0.120219  0.100153  0.000369  1.003716  0.0
H  H11  1  0.38532220  0.86033610  0.50856777  1  0.120247  0.100156  0.000369  1.003752  0.0
H  H12  1  0.88722572  0.36246196  0.17145149  1  0.117458  0.096652  -0.000636  1.039079  -0.001
H  H13  1  0.11276504  0.86247195  0.32853859  1  0.117434  0.096624  -0.000637  1.039174  -0.001
H  H14  1  0.11275167  0.63755201  0.82854583  1  0.117458  0.096695  0.000635  1.039174  0.001
H  H15  1  0.88725375  0.13754309  0.67145733  1  0.117478  0.096698  0.000637  1.039146  0.001
H  H16  1  0.38732437  0.36224789  0.50068174  1  0.117737  0.096635  -0.000656  1.012079  0.0
H  H17  1  0.61266476  0.86223637  0.99932894  1  0.117759  0.096619  -0.000656  1.012101  0.0
H  H18  1  0.61268125  0.63774684  0.49930443  1  0.117795  0.096682  0.000655  1.012155  0.0
H  H19  1  0.38733520  0.13774981  0.00069048  1  0.117781  0.0967  0.000655  1.012083  0.0
C  C20  1  0.21320968  0.57662974  0.00496914  1  0.044176  0.035595  0.004661  3.917635  0.006
C  C21  1  0.78680163  0.07662719  0.49503272  1  0.044149  0.035483  0.004655  3.917846  0.006
C  C22  1  0.78677712  0.42337569  0.99502300  1  0.044158  0.035457  -0.004658  3.91765  -0.006
C  C23  1  0.21320774  0.92337396  0.50497364  1  0.044122  0.035485  -0.00466  3.917849  -0.006
C  C24  1  0.93987831  0.42339423  0.09453035  1  0.041547  0.019639  0.001218  3.937797  0.002
C  C25  1  0.06011380  0.92339782  0.40546501  1  0.041586  0.019663  0.001213  3.93798  0.002
C  C26  1  0.06011602  0.57661119  0.90546099  1  0.041476  0.019485  -0.001215  3.938102  -0.002
C  C27  1  0.93989181  0.07660653  0.59453956  1  0.041558  0.019669  -0.001215  3.937979  -0.002
C  C28  1  0.94716667  0.58166753  0.40646819  1  0.03763  0.020143  0.004202  3.934156  0.006
C  C29  1  0.05284492  0.08166675  0.09353287  1  0.037712  0.020144  0.004197  3.934283  0.006
C  C30  1  0.05283895  0.41833576  0.59352938  1  0.03771  0.020205  -0.004199  3.934162  -0.006
C  C31  1  0.94715128  0.91832478  0.90647600  1  0.037677  0.020131  -0.004201  3.934274  -0.006
C  C32  1  0.21412964  0.42430239  0.49985402  1  0.040923  0.028429  0.009967  3.935158  0.012
C  C33  1  0.78586628  0.92429713  0.00015278  1  0.040841  0.028342  0.009963  3.935233  0.012
C  C34  1  0.78587786  0.57569876  0.50014269  1  0.040895  0.028339  -0.009959  3.935498  -0.012
C  C35  1  0.21413180  0.07569653  0.99985699  1  0.040859  0.02828  -0.009968  3.935231  -0.012
C  C36  1  0.53551799  0.81239982  0.23997747  1  -0.045102  -0.132357  -0.03011  3.874191  -0.026
C  C37  1  0.46448328  0.31237946  0.26002073  1  -0.044968  -0.132334  -0.030103  3.874791  -0.026
C  C38  1  0.46452527  0.18760560  0.76001429  1  -0.045137  -0.132517  0.030112  3.875021  0.026
C  C39  1  0.53548846  0.68760458  0.73998355  1  -0.045166  -0.132619  0.030108  3.874996  0.026
N  N40  1  0.15615646  0.49954261  0.10106604  1  -0.328257  -0.14635  -0.031765  3.619841  -0.046
N  N41  1  0.84384535  0.99954700  0.39892876  1  -0.328259  -0.146321  -0.031773  3.619777  -0.046
N  N42  1  0.84383599  0.50044999  0.89892440  1  -0.328188  -0.146365  0.031765  3.61973  0.046
N  N43  1  0.15615838  0.00044452  0.60107755  1  -0.32821  -0.146399  0.031758  3.619855  0.046
N  N44  1  0.16496559  0.50626543  0.40436181  1  -0.335078  -0.158281  -0.033177  3.628269  -0.049
N  N45  1  0.83503822  0.00626878  0.09564247  1  -0.335041  -0.158113  -0.033188  3.62826  -0.049
N  N46  1  0.83505131  0.49374320  0.59563848  1  -0.335056  -0.158229  0.033177  3.628393  0.049
N  N47  1  0.16495234  0.99373343  0.90436022  1  -0.335061  -0.158257  0.03316  3.628107  0.049
N  N48  1  0.45870507  0.69352501  0.24167230  1  -0.420786  -0.325184  -0.021589  3.642547  -0.026
N  N49  1  0.54129175  0.19354187  0.25833640  1  -0.420828  -0.325053  -0.021573  3.64349  -0.026
N  N50  1  0.54124785  0.30647080  0.75832481  1  -0.420733  -0.324932  0.021577  3.643644  0.026
N  N51  1  0.45874397  0.80646463  0.74166669  1  -0.420716  -0.32488  0.021579  3.643287  0.026
