# generated using pymatgen
data_KTeH24C17SeN5O6
_symmetry_space_group_name_H-M   'P 1'
_cell_length_a   7.84328959
_cell_length_b   10.62656862
_cell_length_c   15.47170000
_cell_angle_alpha   104.72972250
_cell_angle_beta   90.01913198
_cell_angle_gamma   99.86989035
_symmetry_Int_Tables_number   1
_chemical_formula_structural   KTeH24C17SeN5O6
_chemical_formula_sum   'K2 Te2 H48 C34 Se2 N10 O12'
_cell_volume   1227.38066636
_cell_formula_units_Z   2
loop_
 _symmetry_equiv_pos_site_id
 _symmetry_equiv_pos_as_xyz
  1  'x, y, z'
loop_
 _atom_site_type_symbol
 _atom_site_label
 _atom_site_symmetry_multiplicity
 _atom_site_fract_x
 _atom_site_fract_y
 _atom_site_fract_z
 _atom_site_occupancy
 _atom_site_hle17_bader_spin_density
 _atom_site_hle17_ddec_charge
 _atom_site_hle17_ddec_spin_density
 _atom_site_hle17_ddec_sum_bond_order
 _atom_site_hle17_magmom
 _atom_site_hse06_10hf_bader_spin_density
 _atom_site_hse06_10hf_ddec_charge
 _atom_site_hse06_10hf_ddec_spin_density
 _atom_site_hse06_10hf_ddec_sum_bond_order
 _atom_site_hse06_10hf_magmom
 _atom_site_hse06_bader_spin_density
 _atom_site_hse06_ddec_charge
 _atom_site_hse06_ddec_spin_density
 _atom_site_hse06_ddec_sum_bond_order
 _atom_site_hse06_magmom
 _atom_site_pbe_bader_charge
 _atom_site_pbe_bader_spin_density
 _atom_site_pbe_cm5_charge
 _atom_site_pbe_ddec_charge
 _atom_site_pbe_ddec_spin_density
 _atom_site_pbe_ddec_sum_bond_order
 _atom_site_pbe_magmom
K  K0  1  0.96796875  0.30564833  0.68014884  1  0  0.887904  0  0.538454  0  0  0.809765  0  0.749143  0  0  0.827428  0  0.725626  0  0.876253  0  0.856369  0.796999  0  0.765755  0
K  K1  1  0.03202703  0.69434007  0.31985347  1  0  0.887913  0  0.538482  0  0  0.809787  0  0.749143  0  0  0.827404  0  0.725718  0  0.876243  0  0.856415  0.797021  0  0.765757  0
Te  Te2  1  0.87141989  0.91765386  0.88256291  1  0  0.676147  0  2.587728  0  0  0.617043  0  3.034775  0  0  0.624621  0  3.032197  0  1.191075  0  0.579154  0.60962  0  3.036707  0
Te  Te3  1  0.12856220  0.08234146  0.11744900  1  0  0.676068  0  2.587757  0  0  0.616971  0  3.034765  0  0  0.624562  0  3.03217  0  1.19123  0  0.579102  0.609541  0  3.036708  0
H  H4  1  0.89385988  0.23435441  0.37167571  1  0  0.047603  0  0.947141  0  0  0.058417  0  1.021579  0  0  0.05814  0  1.022135  0  0.065731  0  0.092673  0.058578  0  1.021254  0
H  H5  1  0.10615013  0.76564586  0.62832414  1  0  0.047593  0  0.947196  0  0  0.058442  0  1.021598  0  0  0.058162  0  1.022155  0  0.065727  0  0.092651  0.058603  0  1.021274  0
H  H6  1  0.99621808  0.38810348  0.44403905  1  0  0.062267  0  0.92847  0  0  0.073505  0  0.996768  0  0  0.074778  0  0.995417  0  0.097355  0  0.104923  0.072448  0  0.998005  0
H  H7  1  0.00378474  0.61189876  0.55596050  1  0  0.062263  0  0.928565  0  0  0.07356  0  0.996785  0  0  0.074844  0  0.995409  0  0.097034  0  0.104938  0.072499  0  0.99803  0
H  H8  1  0.66860547  0.35324846  0.43358881  1  0  0.04739  0  0.943968  0  0  0.05828  0  1.018652  0  0  0.058395  0  1.018719  0  0.024465  0  0.093967  0.058102  0  1.018749  0
H  H9  1  0.33139898  0.64674983  0.56640941  1  0  0.047412  0  0.943952  0  0  0.058278  0  1.01866  0  0  0.058393  0  1.018729  0  0.024767  0  0.093951  0.058106  0  1.018752  0
H  H10  1  0.66134753  0.21838026  0.48374034  1  0  0.049447  0  0.920617  0  0  0.063712  0  0.987258  0  0  0.064726  0  0.985842  0  0.043666  0  0.099723  0.062828  0  0.988461  0
H  H11  1  0.33865692  0.78161803  0.51625658  1  0  0.049471  0  0.920637  0  0  0.063707  0  0.987304  0  0  0.064722  0  0.985887  0  0.043576  0  0.099708  0.062823  0  0.988506  0
H  H12  1  0.51852902  0.33456829  0.60408105  1  0  0.063185  0  0.941882  0  0  0.074624  0  1.008565  0  0  0.075953  0  1.007504  0  0.083988  0  0.105759  0.07353  0  1.009505  0
H  H13  1  0.48147034  0.66543000  0.39591523  1  0  0.063164  0  0.941911  0  0  0.074608  0  1.008617  0  0  0.075936  0  1.007559  0  0.084052  0  0.105725  0.073524  0  1.00955  0
H  H14  1  0.53902857  0.48201747  0.56644251  1  0  0.038721  0  0.938398  0  0  0.051958  0  1.010543  0  0  0.052614  0  1.008996  0  0.023287  0  0.09335  0.051409  0  1.011734  0
H  H15  1  0.46097461  0.51798081  0.43355377  1  0  0.038712  0  0.938459  0  0  0.051989  0  1.010581  0  0  0.052646  0  1.009032  0  0.023386  0  0.093353  0.051439  0  1.011776  0
H  H16  1  0.73361969  0.60294722  0.70375843  1  0  0.059339  0  0.9642  0  0  0.066212  0  1.040699  0  0  0.067381  0  1.039558  0  0.079456  0  0.091566  0.065158  0  1.041974  0
H  H17  1  0.26637838  0.39705106  0.29623914  1  0  0.059317  0  0.964222  0  0  0.066178  0  1.040718  0  0  0.067348  0  1.039578  0  0.079454  0  0.091555  0.065125  0  1.041993  0
H  H18  1  0.51507352  0.54015104  0.72477603  1  0  0.058197  0  0.960793  0  0  0.072784  0  1.026342  0  0  0.072749  0  1.02638  0  0.053502  0  0.095296  0.072815  0  1.02639  0
H  H19  1  0.48492306  0.45984626  0.27522007  1  0  0.058194  0  0.960832  0  0  0.072758  0  1.026404  0  0  0.072724  0  1.026441  0  0.053482  0  0.095289  0.072788  0  1.026453  0
H  H20  1  0.57474673  0.51203685  0.86881931  1  0  0.046856  0  0.925733  0  0  0.061485  0  0.991592  0  0  0.061901  0  0.990441  0  0.044223  0  0.096297  0.061295  0  0.992192  0
H  H21  1  0.42525367  0.48796045  0.13117808  1  0  0.046884  0  0.925714  0  0  0.061498  0  0.991572  0  0  0.061913  0  0.990422  0  0.044203  0  0.096282  0.061308  0  0.992171  0
H  H22  1  0.79031805  0.59445938  0.86264951  1  0  0.042989  0  0.952377  0  0  0.053391  0  1.026253  0  0  0.05313  0  1.027288  0  0.034175  0  0.09014  0.053446  0  1.025898  0
H  H23  1  0.20968003  0.40553890  0.13734677  1  0  0.043009  0  0.952341  0  0  0.053399  0  1.026217  0  0  0.053135  0  1.027255  0  0.034152  0  0.09014  0.053453  0  1.025862  0
H  H24  1  0.75658090  0.44486673  0.96859753  1  0  0.047927  0  0.933948  0  0  0.063777  0  0.99917  0  0  0.0634  0  0.999519  0  0.053864  0  0.096379  0.064092  0  0.998848  0
H  H25  1  0.24342019  0.55513353  0.03140038  1  0  0.047881  0  0.933937  0  0  0.063758  0  0.999141  0  0  0.063389  0  0.99948  0  0.053864  0  0.096354  0.064052  0  0.99884  0
H  H26  1  0.69242361  0.30664689  0.87461269  1  0  0.05991  0  0.923094  0  0  0.074693  0  0.987415  0  0  0.074927  0  0.987542  0  0.070707  0  0.104322  0.074374  0  0.987553  0
H  H27  1  0.30757597  0.69335238  0.12538634  1  0  0.059918  0  0.923093  0  0  0.074706  0  0.987427  0  0  0.074938  0  0.987557  0  0.070726  0  0.10434  0.074388  0  0.98756  0
H  H28  1  0.92384482  0.21934719  0.90641852  1  0  0.041032  0  0.958458  0  0  0.050409  0  1.037067  0  0  0.050612  0  1.037145  0  0.052496  0  0.091472  0.05016  0  1.0374  0
H  H29  1  0.07615580  0.78065110  0.09358098  1  0  0.041031  0  0.958509  0  0  0.050399  0  1.037117  0  0  0.050603  0  1.037195  0  0.052496  0  0.091474  0.050151  0  1.037451  0
H  H30  1  0.02479203  0.35777267  0.99354265  1  0  0.047931  0  0.939959  0  0  0.060978  0  1.010007  0  0  0.060771  0  1.010396  0  0.004007  0  0.094059  0.061028  0  1.010063  0
H  H31  1  0.97520929  0.64222858  0.00645479  1  0  0.04792  0  0.939957  0  0  0.060972  0  1.009991  0  0  0.060766  0  1.01038  0  0.003988  0  0.094055  0.061022  0  1.010047  0
H  H32  1  0.27618863  0.38635351  0.88970863  1  0  0.046765  0  0.920222  0  0  0.061631  0  0.98544  0  0  0.062443  0  0.983985  0  0.042695  0  0.097579  0.061126  0  0.986409  0
H  H33  1  0.72380945  0.61364477  0.11028829  1  0  0.046774  0  0.920161  0  0  0.061636  0  0.985413  0  0  0.062447  0  0.983957  0  0.042665  0  0.097577  0.061132  0  0.986385  0
H  H34  1  0.24854812  0.23958553  0.92837820  1  0  0.055318  0  0.93075  0  0  0.066574  0  1.002539  0  0  0.066622  0  1.002576  0  0.070187  0  0.094423  0.066542  0  1.002635  0
H  H35  1  0.75145297  0.76041474  0.07162165  1  0  0.055313  0  0.930755  0  0  0.066581  0  1.002553  0  0  0.066628  0  1.002591  0  0.070137  0  0.094431  0.066554  0  1.002646  0
H  H36  1  0.37143031  0.11270490  0.79699717  1  0  0.048506  0  0.938442  0  0  0.058829  0  1.010478  0  0  0.059151  0  1.010309  0  0.058786  0  0.091239  0.058675  0  1.010393  0
H  H37  1  0.62856917  0.88728845  0.20300148  1  0  0.048562  0  0.938421  0  0  0.058878  0  1.010455  0  0  0.059201  0  1.010286  0  0.05883  0  0.091267  0.058725  0  1.01037  0
H  H38  1  0.42222332  0.26320516  0.76267326  1  0  0.062815  0  0.930338  0  0  0.075798  0  0.995304  0  0  0.076585  0  0.994811  0  0.063663  0  0.104641  0.075098  0  0.995878  0
H  H39  1  0.57777812  0.73679115  0.23732848  1  0  0.062842  0  0.930312  0  0  0.075801  0  0.995305  0  0  0.076585  0  0.994812  0  0.063648  0  0.104637  0.075103  0  0.995881  0
H  H40  1  0.40090645  0.05638952  0.63809725  1  0  0.056761  0  0.94774  0  0  0.070793  0  1.013963  0  0  0.070407  0  1.014566  0  0.054441  0  0.099403  0.070955  0  1.013683  0
H  H41  1  0.59909800  0.94360876  0.36190161  1  0  0.056791  0  0.947715  0  0  0.070839  0  1.013926  0  0  0.070452  0  1.014536  0  0.054488  0  0.0994  0.071002  0  1.013646  0
H  H42  1  0.17526922  0.01442983  0.65744211  1  0  0.058612  0  0.914588  0  0  0.073937  0  0.976039  0  0  0.07469  0  0.975155  0  0.051639  0  0.102412  0.073279  0  0.976825  0
H  H43  1  0.82473419  0.98556945  0.34255434  1  0  0.058601  0  0.914694  0  0  0.073935  0  0.976148  0  0  0.07469  0  0.975265  0  0.05161  0  0.102397  0.073277  0  0.976933  0
H  H44  1  0.14750315  0.02430281  0.50236046  1  0  0.062455  0  0.940046  0  0  0.072654  0  1.010527  0  0  0.074133  0  1.008943  0  0.069617  0  0.106508  0.071421  0  1.011918  0
H  H45  1  0.85251461  0.97570338  0.49763720  1  0  0.062399  0  0.9399  0  0  0.072583  0  1.010432  0  0  0.074055  0  1.008847  0  0.06911  0  0.106497  0.07135  0  1.011824  0
H  H46  1  0.36264030  0.10496648  0.49292706  1  0  0.046848  0  0.928841  0  0  0.059423  0  0.99918  0  0  0.059894  0  0.998348  0  0.046484  0  0.096259  0.058963  0  0.999965  0
H  H47  1  0.63737028  0.89504170  0.50707159  1  0  0.0469  0  0.928731  0  0  0.059486  0  0.999068  0  0  0.059953  0  0.998225  0  0.04658  0  0.096305  0.059024  0  0.999856  0
H  H48  1  0.24914838  0.31006774  0.48512361  1  0  0.050698  0  0.916076  0  0  0.067307  0  0.978235  0  0  0.067824  0  0.977602  0  0.049895  0  0.100823  0.066789  0  0.978934  0
H  H49  1  0.75085699  0.68993450  0.51487658  1  0  0.050718  0  0.916045  0  0  0.067344  0  0.978226  0  0  0.067854  0  0.977605  0  0.04995  0  0.100868  0.066829  0  0.978916  0
H  H50  1  0.16953986  0.16862776  0.39550604  1  0  0.056929  0  0.949295  0  0  0.068049  0  1.020895  0  0  0.067947  0  1.021389  0  0.041397  0  0.095706  0.068032  0  1.020635  0
H  H51  1  0.83046643  0.83137843  0.60449356  1  0  0.056931  0  0.949211  0  0  0.068051  0  1.020852  0  0  0.067947  0  1.021347  0  0.041424  0  0.095722  0.068034  0  1.020591  0
C  C52  1  0.17851760  0.82290443  0.90382438  1  0  0.144639  0  3.914196  0  0  0.140529  0  4.160759  0  0  0.148429  0  4.171559  0  0.72716  0  0.119703  0.134967  0  4.153948  0
C  C53  1  0.82148693  0.17711066  0.09618001  1  0  0.144901  0  3.914152  0  0  0.1408  0  4.160684  0  0  0.1487  0  4.171483  0  0.727337  0  0.119792  0.135229  0  4.153884  0
C  C54  1  0.66095273  0.99916384  0.71393705  1  0  0.183788  0  3.898351  0  0  0.18611  0  4.209425  0  0  0.204131  0  4.223097  0  0.650104  0  0.087482  0.173546  0  4.199843  0
C  C55  1  0.33905001  0.00082160  0.28607120  1  0  0.183662  0  3.897917  0  0  0.185972  0  4.209031  0  0  0.203993  0  4.222701  0  0.649583  0  0.087477  0.173409  0  4.199445  0
C  C56  1  0.91278227  0.29236735  0.44224101  1  0  0.058068  0  3.6697  0  0  -0.001267  0  3.947338  0  0  0.004748  0  3.95357  0  0.382908  0  -0.075215  -0.005345  0  3.94302  0
C  C57  1  0.08722137  0.70763291  0.55775949  1  0  0.057883  0  3.66982  0  0  -0.001515  0  3.947496  0  0  0.004509  0  3.953716  0  0.383272  0  -0.075279  -0.005594  0  3.943181  0
C  C58  1  0.10200279  0.74911903  0.81538214  1  0  0.121779  0  3.912139  0  0  0.118135  0  4.166838  0  0  0.123829  0  4.1773  0  0.723392  0  0.115642  0.113985  0  4.160837  0
C  C59  1  0.89798957  0.25089309  0.18461978  1  0  0.121804  0  3.911914  0  0  0.118153  0  4.166627  0  0  0.123844  0  4.177088  0  0.723479  0  0.115654  0.114013  0  4.160612  0
C  C60  1  0.73943266  0.31360228  0.47943478  1  0  0.057237  0  3.687204  0  0  -0.004345  0  3.966199  0  0  0.001902  0  3.972481  0  0.4443  0  -0.077132  -0.008549  0  3.961835  0
C  C61  1  0.26057306  0.68639601  0.52056344  1  0  0.057325  0  3.687133  0  0  -0.004229  0  3.966102  0  0  0.002013  0  3.972384  0  0.44407  0  -0.077037  -0.008438  0  3.961738  0
C  C62  1  0.33290892  0.79508191  0.93896793  1  0  0.250383  0  3.723025  0  0  0.235147  0  4.000861  0  0  0.244799  0  4.013073  0  0.816651  0  0.184824  0.228228  0  3.993302  0
C  C63  1  0.66710487  0.20494011  0.06103508  1  0  0.250225  0  3.722405  0  0  0.234981  0  4.000245  0  0  0.244634  0  4.012457  0  0.816238  0  0.184706  0.228062  0  3.992689  0
C  C64  1  0.60525307  0.42856533  0.60517650  1  0  0.063712  0  3.67083  0  0  0.005916  0  3.944495  0  0  0.012061  0  3.949968  0  0.39667  0  -0.073396  0.001878  0  3.940568  0
C  C65  1  0.39474733  0.57143197  0.39481960  1  0  0.063665  0  3.670837  0  0  0.005762  0  3.944623  0  0  0.011905  0  3.950095  0  0.396772  0  -0.073422  0.001717  0  3.94069  0
C  C66  1  0.17241810  0.64221573  0.76040056  1  0  0.27833  0  3.703239  0  0  0.261809  0  3.977222  0  0  0.2724  0  3.98989  0  0.872541  0  0.204257  0.254018  0  3.970067  0
C  C67  1  0.82757195  0.35779739  0.23960218  1  0  0.277982  0  3.703699  0  0  0.261479  0  3.977657  0  0  0.272075  0  3.990319  0  0.872539  0  0.204104  0.253686  0  3.970498  0
C  C68  1  0.63854082  0.51208925  0.69999162  1  0  0.043057  0  3.660555  0  0  -0.016585  0  3.932123  0  0  -0.010276  0  3.937477  0  0.42371  0  -0.085536  -0.020826  0  3.928424  0
C  C69  1  0.36145599  0.48790904  0.30000530  1  0  0.043086  0  3.660613  0  0  -0.016484  0  3.932134  0  0  -0.010185  0  3.937489  0  0.423538  0  -0.085483  -0.020725  0  3.928436  0
C  C70  1  0.70548377  0.49639193  0.84674037  1  0  0.063598  0  3.688757  0  0  0.005869  0  3.962136  0  0  0.012435  0  3.968221  0  0.456371  0  -0.075557  0.001521  0  3.957804  0
C  C71  1  0.29451604  0.50360833  0.15325754  1  0  0.063518  0  3.688706  0  0  0.005849  0  3.96205  0  0  0.012408  0  3.968135  0  0.456445  0  -0.075559  0.001503  0  3.957712  0
C  C72  1  0.77043675  0.40713958  0.89594753  1  0  0.053897  0  3.676958  0  0  -0.006192  0  3.950041  0  0  8.3e-05  0  3.956454  0  0.396334  0  -0.076942  -0.010515  0  3.945672  0
C  C73  1  0.22956006  0.59285870  0.10404874  1  0  0.053961  0  3.67693  0  0  -0.006185  0  3.950006  0  0  8e-05  0  3.956418  0  0.396268  0  -0.076937  -0.010493  0  3.945636  0
C  C74  1  0.01401707  0.31501016  0.92027413  1  0  0.056121  0  3.680745  0  0  -0.004291  0  3.958817  0  0  0.001922  0  3.96552  0  0.451776  0  -0.079782  -0.008301  0  3.953943  0
C  C75  1  0.98598274  0.68499010  0.07972508  1  0  0.056159  0  3.680791  0  0  -0.004223  0  3.958825  0  0  0.001984  0  3.965526  0  0.451745  0  -0.079746  -0.008231  0  3.953954  0
C  C76  1  0.18880524  0.29117599  0.88587519  1  0  0.060302  0  3.68328  0  0  0.001697  0  3.955468  0  0  0.007892  0  3.962012  0  0.427573  0  -0.073623  -0.002685  0  3.951079  0
C  C77  1  0.81119388  0.70882131  0.11412350  1  0  0.060277  0  3.683248  0  0  0.001591  0  3.95551  0  0  0.007788  0  3.962049  0  0.427656  0  -0.073691  -0.002798  0  3.951135  0
C  C78  1  0.32179301  0.17509474  0.75903699  1  0  0.060436  0  3.657763  0  0  0.002786  0  3.929457  0  0  0.00878  0  3.935358  0  0.404802  0  -0.07585  -0.001301  0  3.925339  0
C  C79  1  0.67820797  0.82489959  0.24096182  1  0  0.060398  0  3.657728  0  0  0.002755  0  3.929467  0  0  0.008753  0  3.935364  0  0.40475  0  -0.075861  -0.001332  0  3.925351  0
C  C80  1  0.28478829  0.09725376  0.66280865  1  0  0.054748  0  3.663254  0  0  -0.003913  0  3.935112  0  0  0.002722  0  3.940642  0  0.433262  0  -0.077494  -0.008355  0  3.931268  0
C  C81  1  0.71521616  0.90274452  0.33718957  1  0  0.054724  0  3.66339  0  0  -0.003992  0  3.935297  0  0  0.002635  0  3.940832  0  0.433288  0  -0.077483  -0.008433  0  3.931451  0
C  C82  1  0.23343530  0.12165742  0.51686037  1  0  0.056102  0  3.674319  0  0  -0.003916  0  3.951857  0  0  0.001991  0  3.957966  0  0.423874  0  -0.074395  -0.007915  0  3.947671  0
C  C83  1  0.76657043  0.87834087  0.48313850  1  0  0.056177  0  3.674138  0  0  -0.003856  0  3.951783  0  0  0.00208  0  3.957849  0  0.424107  0  -0.074378  -0.007857  0  3.9476  0
C  C84  1  0.16643663  0.21093449  0.46826215  1  0  0.061247  0  3.662903  0  0  0.002  0  3.936119  0  0  0.008417  0  3.942293  0  0.437941  0  -0.074591  -0.002277  0  3.931817  0
C  C85  1  0.83356387  0.78906874  0.53173628  1  0  0.06125  0  3.662708  0  0  0.001908  0  3.936108  0  0  0.008321  0  3.942269  0  0.437935  0  -0.074674  -0.002364  0  3.931801  0
Se  Se86  1  0.55554303  0.85820337  0.75093051  1  0  -0.294361  0  1.963322  0  0  -0.292652  0  2.308986  0  0  -0.316896  0  2.306331  0  -0.050253  0  -0.086887  -0.27421  0  2.309962  0
Se  Se87  1  0.44444556  0.14178700  0.24907473  1  0  -0.294287  0  1.963396  0  0  -0.292555  0  2.309015  0  0  -0.316808  0  2.306382  0  -0.05028  0  -0.086859  -0.274112  0  2.309989  0
N  N88  1  0.95746463  0.77577293  0.78755112  1  0  -0.438846  0  2.74171  0  0  -0.406874  0  3.016213  0  0  -0.412406  0  3.025491  0  -1.112189  0  -0.35716  -0.402467  0  3.009946  0
N  N89  1  0.04251779  0.22422931  0.21245747  1  0  -0.438849  0  2.741523  0  0  -0.406862  0  3.016013  0  0  -0.412394  0  3.025294  0  -1.112076  0  -0.357212  -0.402459  0  3.009743  0
N  N90  1  0.73049943  0.08982480  0.68858377  1  0  -0.493847  0  2.670159  0  0  -0.467457  0  2.90887  0  0  -0.480339  0  2.916649  0  -1.262929  0  -0.455916  -0.458711  0  2.904058  0
N  N91  1  0.26950229  0.91015075  0.31142469  1  0  -0.493778  0  2.669595  0  0  -0.467393  0  2.908354  0  0  -0.480269  0  2.91614  0  -1.262331  0  -0.455941  -0.458649  0  2.903548  0
N  N92  1  0.09645422  0.91243559  0.95131948  1  0  -0.461719  0  2.822034  0  0  -0.413806  0  3.089975  0  0  -0.424134  0  3.102092  0  -1.155714  0  -0.357548  -0.405593  0  3.081125  0
N  N93  1  0.90353932  0.08757060  0.04868593  1  0  -0.461785  0  2.822016  0  0  -0.413874  0  3.089951  0  0  -0.424195  0  3.102059  0  -1.155709  0  -0.357538  -0.405659  0  3.081107  0
N  N94  1  0.45672827  0.76968759  0.96789501  1  0  -0.378187  0  2.558872  0  0  -0.359197  0  2.782416  0  0  -0.364964  0  2.792597  0  -1.120413  0  -0.294114  -0.355507  0  2.775899  0
N  N95  1  0.54326397  0.23032948  0.03210648  1  0  -0.378178  0  2.558183  0  0  -0.359177  0  2.781711  0  0  -0.364947  0  2.791893  0  -1.120032  0  -0.294045  -0.355487  0  2.775192  0
N  N96  1  0.22227377  0.55103050  0.71523982  1  0  -0.390324  0  2.578281  0  0  -0.360339  0  2.796969  0  0  -0.367187  0  2.805705  0  -1.156817  0  -0.334035  -0.356273  0  2.791949  0
N  N97  1  0.77770898  0.44897866  0.28476417  1  0  -0.389972  0  2.578758  0  0  -0.360011  0  2.797455  0  0  -0.366858  0  2.8062  0  -1.157346  0  -0.333838  -0.355945  0  2.79243  0
O  O98  1  0.76582113  0.40372566  0.56640028  1  0  -0.337557  0  2.262138  0  0  -0.265889  0  2.512824  0  0  -0.281833  0  2.514322  0  -1.057117  0  -0.276365  -0.254474  0  2.511271  0
O  O99  1  0.23418182  0.59627164  0.43359840  1  0  -0.337561  0  2.262195  0  0  -0.265835  0  2.512887  0  0  -0.281771  0  2.514384  0  -1.057137  0  -0.27639  -0.254419  0  2.511339  0
O  O100  1  0.70021133  0.43511436  0.75329232  1  0  -0.335723  0  2.282251  0  0  -0.264235  0  2.535881  0  0  -0.280599  0  2.537643  0  -1.058325  0  -0.285726  -0.252558  0  2.534561  0
O  O101  1  0.29978525  0.56488294  0.24670507  1  0  -0.335678  0  2.282381  0  0  -0.264231  0  2.535986  0  0  -0.280569  0  2.537739  0  -1.058366  0  -0.285683  -0.25255  0  2.534665  0
O  O102  1  0.94831984  0.40201919  0.87711903  1  0  -0.332514  0  2.247965  0  0  -0.262486  0  2.501163  0  0  -0.278456  0  2.503051  0  -1.048729  0  -0.264877  -0.250893  0  2.500052  0
O  O103  1  0.05168102  0.59798008  0.12287806  1  0  -0.332547  0  2.248052  0  0  -0.262496  0  2.501236  0  0  -0.278446  0  2.503121  0  -1.048715  0  -0.264874  -0.250901  0  2.500118  0
O  O104  1  0.16483426  0.21310860  0.79556555  1  0  -0.342202  0  2.288332  0  0  -0.271489  0  2.541956  0  0  -0.287592  0  2.544413  0  -1.059935  0  -0.283435  -0.259946  0  2.540108  0
O  O105  1  0.83516626  0.78688375  0.20443357  1  0  -0.342241  0  2.28833  0  0  -0.271467  0  2.541949  0  0  -0.287564  0  2.5444  0  -1.059958  0  -0.283416  -0.259928  0  2.540108  0
O  O106  1  0.24451729  0.18323456  0.61092080  1  0  -0.341237  0  2.27861  0  0  -0.269261  0  2.530681  0  0  -0.285417  0  2.532104  0  -1.072437  0  -0.285556  -0.257747  0  2.529233  0
O  O107  1  0.75548808  0.81676768  0.38907811  1  0  -0.341293  0  2.278728  0  0  -0.269251  0  2.530795  0  0  -0.285406  0  2.532207  0  -1.072392  0  -0.285562  -0.257738  0  2.529349  0
O  O108  1  0.99307765  0.22234488  0.49371538  1  0  -0.343457  0  2.275389  0  0  -0.271827  0  2.529191  0  0  -0.287669  0  2.530258  0  -1.06153  0  -0.285245  -0.260448  0  2.528007  0
O  O109  1  0.00693005  0.77765637  0.50628529  1  0  -0.343433  0  2.275277  0  0  -0.271765  0  2.529118  0  0  -0.287605  0  2.530182  0  -1.061538  0  -0.285231  -0.260385  0  2.527934  0
