# generated using pymatgen
data_Zn4H9C21N3O13
_symmetry_space_group_name_H-M   'P 1'
_cell_length_a   16.59456319
_cell_length_b   16.89144797
_cell_length_c   16.58413180
_cell_angle_alpha   63.27286450
_cell_angle_beta   57.60358244
_cell_angle_gamma   90.18034443
_symmetry_Int_Tables_number   1
_chemical_formula_structural   Zn4H9C21N3O13
_chemical_formula_sum   'Zn8 H18 C42 N6 O26'
_cell_volume   3317.02666006
_cell_formula_units_Z   2
loop_
 _symmetry_equiv_pos_site_id
 _symmetry_equiv_pos_as_xyz
  1  'x, y, z'
loop_
 _atom_site_type_symbol
 _atom_site_label
 _atom_site_symmetry_multiplicity
 _atom_site_fract_x
 _atom_site_fract_y
 _atom_site_fract_z
 _atom_site_occupancy
 _atom_site_pbe_bader_charge
 _atom_site_pbe_bader_spin_density
 _atom_site_pbe_cm5_charge
 _atom_site_pbe_ddec_charge
 _atom_site_pbe_ddec_spin_density
 _atom_site_pbe_ddec_sum_bond_order
 _atom_site_pbe_magmom
Zn  Zn0  1  0.12006149  0.08158062  0.89438759  1  1.300564  0  0.671688  0.954225  0  2.383612  0
Zn  Zn1  1  0.94010336  0.09271428  0.88694244  1  1.322333  0  0.683678  0.982012  0  2.353064  0
Zn  Zn2  1  0.93268198  0.09860452  0.08340562  1  1.315192  0  0.677557  0.979408  0  2.305517  0
Zn  Zn3  1  0.91961551  0.90382571  0.08338629  1  1.32116  0  0.68513  0.995563  0  2.295282  0
Zn  Zn4  1  0.31792725  0.48592811  0.08077558  1  1.312532  0  0.676387  0.974848  0  2.325845  0
Zn  Zn5  1  0.51310711  0.49570979  0.08525850  1  1.315349  0  0.68554  0.998705  0  2.276143  0
Zn  Zn6  1  0.51450364  0.67035276  0.88743691  1  1.323624  0  0.684146  0.982956  0  2.358695  0
Zn  Zn7  1  0.52359152  0.48925498  0.89039887  1  1.303269  0  0.671661  0.953496  0  2.389112  0
H  H8  1  0.17534041  0.01796809  0.63065731  1  0.097655  0  0.11784  0.088326  0  0.977429  0
H  H9  1  0.29461065  0.19333187  0.29374054  1  0.066773  0  0.114633  0.08133  0  0.99031  0
H  H10  1  0.22189301  0.31378996  0.49577099  1  0.08392  0  0.120981  0.128683  0  0.963348  0
H  H11  1  0.22209468  0.39294331  0.69853157  1  0.078748  0  0.119015  0.092027  0  0.965951  0
H  H12  1  0.39795454  0.57220089  0.69305424  1  0.120543  0  0.120022  0.095243  0  0.961602  0
H  H13  1  0.18105793  0.31219173  0.00824000  1  0.157574  0  0.121366  0.129697  0  0.966625  0
H  H14  1  0.17978859  0.91650359  0.15460788  1  0.090349  0  0.118082  0.088565  0  0.979251  0
H  H15  1  0.32708883  0.71938534  0.16641787  1  0.069198  0  0.11914  0.089056  0  0.965111  0
H  H16  1  0.18737444  0.76698396  0.99842688  1  0.093671  0  0.119731  0.126299  0  0.964214  0
H  H17  1  0.61233901  0.01474546  0.15211021  1  0.069849  0  0.118887  0.088565  0  0.965614  0
H  H18  1  0.42949794  0.17918370  0.14528549  1  0.08087  0  0.116725  0.086295  0  0.982474  0
H  H19  1  0.73611019  0.31136095  0.00018967  1  0.076946  0  0.120112  0.126646  0  0.964353  0
H  H20  1  0.00198886  0.92931005  0.73546802  1  0.111355  0  0.113701  0.081019  0  1.002402  0
H  H21  1  0.82502823  0.75034494  0.74239891  1  0.07304  0  0.113225  0.080348  0  0.997511  0
H  H22  1  0.70533773  0.75012914  0.04695393  1  0.116698  0  0.120944  0.12789  0  0.965153  0
H  H23  1  0.01353267  0.88903225  0.29563676  1  0.081044  0  0.113324  0.07824  0  0.998962  0
H  H24  1  0.84989445  0.67128724  0.63031027  1  0.108948  0  0.118836  0.090912  0  0.97302  0
H  H25  1  0.68821553  0.79653558  0.49845245  1  0.107575  0  0.121266  0.128359  0  0.964087  0
C  C26  1  0.13777925  0.14259861  0.69473938  1  1.589581  0  0.229632  0.614215  0  4.151985  0
C  C27  1  0.19035484  0.16340132  0.57778917  1  -0.012911  0  -0.00856  -0.067291  0  3.974231  0
C  C28  1  0.19991153  0.08899574  0.56028478  1  0.537492  0  0.056278  0.069765  0  3.958445  0
C  C29  1  0.26674962  0.18602884  0.37403742  1  0.588567  0  0.055863  0.069762  0  3.95782  0
C  C30  1  0.26671792  0.26578792  0.38112610  1  -0.011778  0  -0.007384  -0.063192  0  3.969393  0
C  C31  1  0.22600366  0.25407316  0.48580196  1  -0.044928  0  -0.055794  -0.073711  0  3.906639  0
C  C32  1  0.31262704  0.35989295  0.27540507  1  1.571119  0  0.233482  0.621603  0  4.15296  0
C  C33  1  0.12738656  0.24611966  0.91319809  1  1.566619  0  0.232741  0.618733  0  4.159329  0
C  C34  1  0.19325930  0.34090959  0.86009581  1  -0.023187  0  -0.01092  -0.07464  0  3.975771  0
C  C35  1  0.24065530  0.40778573  0.74542778  1  0.567436  0  0.05768  0.079721  0  3.954333  0
C  C36  1  0.33772090  0.50674337  0.74240229  1  0.490576  0  0.057824  0.07741  0  3.953059  0
C  C37  1  0.29473282  0.44451786  0.85694390  1  0.039172  0  -0.010598  -0.073799  0  3.977581  0
C  C38  1  0.21724145  0.36168135  0.91869871  1  -0.062252  0  -0.055007  -0.070367  0  3.900231  0
C  C39  1  0.33872635  0.46242984  0.90775947  1  1.54225  0  0.232716  0.617697  0  4.167286  0
C  C40  1  0.11901005  0.90311900  0.03665849  1  1.532047  0  0.231888  0.618313  0  4.15901  0
C  C41  1  0.17473839  0.84697938  0.07405132  1  -0.018294  0  -0.009253  -0.067709  0  3.980688  0
C  C42  1  0.20116055  0.86353489  0.13380319  1  0.575121  0  0.053697  0.065882  0  3.966772  0
C  C43  1  0.28330708  0.75495951  0.13954387  1  0.58154  0  0.053231  0.061442  0  3.969134  0
C  C44  1  0.26392047  0.73591503  0.07636976  1  -0.070553  0  -0.007279  -0.062063  0  3.976361  0
C  C45  1  0.20561075  0.78063404  0.04610109  1  0.019017  0  -0.058997  -0.081269  0  3.912166  0
C  C46  1  0.31349182  0.67441624  0.03606342  1  1.597722  0  0.238447  0.63099  0  4.14878  0
C  C47  1  0.78794795  0.14822988  0.03248522  1  1.592917  0  0.238635  0.631051  0  4.147844  0
C  C48  1  0.68724895  0.16183701  0.07068119  1  -0.063772  0  -0.007559  -0.062205  0  3.971444  0
C  C49  1  0.60436948  0.08434508  0.12870762  1  0.592915  0  0.0541  0.063932  0  3.96784  0
C  C50  1  0.50301409  0.17506560  0.12554460  1  0.569174  0  0.053591  0.067768  0  3.9647  0
C  C51  1  0.58047444  0.25648955  0.06958689  1  -0.034881  0  -0.009064  -0.066872  0  3.97507  0
C  C52  1  0.67415506  0.24938349  0.04398938  1  0.042863  0  -0.058722  -0.081699  0  3.908636  0
C  C53  1  0.56268741  0.34885739  0.03289100  1  1.544742  0  0.231618  0.618019  0  4.158174  0
C  C54  1  0.87332332  0.89759669  0.94240515  1  1.575367  0  0.233089  0.618622  0  4.158911  0
C  C55  1  0.85550096  0.84571800  0.89735851  1  0.001753  0  -0.010134  -0.07113  0  3.964957  0
C  C56  1  0.93118724  0.87432254  0.78468920  1  0.536177  0  0.056163  0.076673  0  3.95395  0
C  C57  1  0.83347382  0.77564086  0.78848666  1  0.583204  0  0.057225  0.077829  0  3.954093  0
C  C58  1  0.75270725  0.74244818  0.90124132  1  -0.046043  0  -0.009348  -0.070268  0  3.9613  0
C  C59  1  0.76551017  0.77508831  0.95885432  1  -0.035295  0  -0.05526  -0.07369  0  3.898104  0
C  C60  1  0.65466091  0.68030290  0.94873840  1  1.582289  0  0.234599  0.624078  0  4.153611  0
C  C61  1  0.86222761  0.91298359  0.27740155  1  1.56387  0  0.234266  0.623771  0  4.149401  0
C  C62  1  0.85182119  0.84941690  0.38318889  1  -0.032852  0  -0.007678  -0.061314  0  3.962997  0
C  C63  1  0.93960809  0.84272865  0.37575984  1  0.537075  0  0.05664  0.071226  0  3.953842  0
C  C64  1  0.84950272  0.72296888  0.56075416  1  0.518308  0  0.056371  0.07067  0  3.955462  0
C  C65  1  0.75740976  0.72803990  0.57856844  1  0.014537  0  -0.009354  -0.068224  0  3.974987  0
C  C66  1  0.75854764  0.79221549  0.48761269  1  0.029301  0  -0.055893  -0.072819  0  3.903133  0
C  C67  1  0.66144311  0.66715244  0.69411080  1  1.537195  0  0.228339  0.60869  0  4.156594  0
N  N68  1  0.23581016  0.09944304  0.46092231  1  -1.17134  0  -0.319819  -0.244344  0  3.302928  0
N  N69  1  0.30868561  0.49088756  0.68822474  1  -1.1981  0  -0.326088  -0.26209  0  3.3027  0
N  N70  1  0.25178007  0.81669060  0.16899513  1  -1.187641  0  -0.319399  -0.243014  0  3.305629  0
N  N71  1  0.51333131  0.09008869  0.15780903  1  -1.17906  0  -0.321176  -0.245863  0  3.305778  0
N  N72  1  0.92243566  0.83774321  0.73207362  1  -1.186768  0  -0.321131  -0.245832  0  3.299499  0
N  N73  1  0.93911370  0.78037023  0.46199913  1  -1.173073  0  -0.319369  -0.245506  0  3.299731  0
O  O74  1  0.97184347  0.04068413  0.99414919  1  -1.223312  0  -0.579976  -1.049451  0  2.556981  0
O  O75  1  0.06525001  0.17527916  0.73052995  1  -1.166824  0  -0.319282  -0.5523  0  2.265204  0
O  O76  1  0.16676886  0.09104034  0.75174800  1  -1.157808  0  -0.311377  -0.53867  0  2.272389  0
O  O77  1  0.38896534  0.41693431  0.24371562  1  -1.170562  0  -0.319969  -0.558782  0  2.268604  0
O  O78  1  0.27267676  0.37307072  0.22469974  1  -1.151734  0  -0.307711  -0.534784  0  2.29197  0
O  O79  1  0.04435450  0.20836722  0.01207176  1  -1.165605  0  -0.311067  -0.540998  0  2.277265  0
O  O80  1  0.16341684  0.21076249  0.85236845  1  -1.150531  0  -0.312862  -0.547941  0  2.329739  0
O  O81  1  0.43496691  0.48936862  0.84603212  1  -1.144079  0  -0.313347  -0.548884  0  2.327934  0
O  O82  1  0.27879763  0.44800152  0.00658679  1  -1.162733  0  -0.310971  -0.539921  0  2.286643  0
O  O83  1  0.03758949  0.85939500  0.06341604  1  -1.166546  0  -0.313282  -0.553866  0  2.274346  0
O  O84  1  0.15986549  0.99199763  0.97975224  1  -1.133018  0  -0.312928  -0.539147  0  2.297557  0
O  O85  1  0.40241566  0.71772711  0.94283190  1  -1.165941  0  -0.313605  -0.546432  0  2.301857  0
O  O86  1  0.26557391  0.58725996  0.09705453  1  -1.159307  0  -0.30459  -0.534013  0  2.284872  0
O  O87  1  0.81965566  0.14210331  0.08917816  1  -1.160032  0  -0.306067  -0.537721  0  2.285483  0
O  O88  1  0.83095928  0.14219289  0.94537301  1  -1.165071  0  -0.312207  -0.544856  0  2.30731  0
O  O89  1  0.52993819  0.36657389  0.97413715  1  -1.14427  0  -0.313606  -0.540479  0  2.301123  0
O  O90  1  0.58047704  0.40104106  0.06172675  1  -1.167033  0  -0.313092  -0.552458  0  2.270046  0
O  O91  1  0.85697072  0.85082012  0.03844673  1  -1.155379  0  -0.312622  -0.539908  0  2.268634  0
O  O92  1  0.90572001  0.98643531  0.87703593  1  -1.172275  0  -0.309895  -0.551828  0  2.330824  0
O  O93  1  0.62505621  0.71468685  0.88735129  1  -1.172084  0  -0.311076  -0.552807  0  2.334272  0
O  O94  1  0.61118026  0.60074148  0.04137396  1  -1.157511  0  -0.312202  -0.541111  0  2.264551  0
O  O95  1  0.89874461  0.00076875  0.23069582  1  -1.153308  0  -0.30561  -0.531681  0  2.27667  0
O  O96  1  0.83647954  0.87270070  0.24157265  1  -1.167596  0  -0.320983  -0.560218  0  2.273075  0
O  O97  1  0.65568356  0.58253417  0.75147937  1  -1.160742  0  -0.312432  -0.540889  0  2.284032  0
O  O98  1  0.59307791  0.70431022  0.72847209  1  -1.159847  0  -0.317371  -0.549235  0  2.268827  0
O  O99  1  0.46468334  0.53511212  0.99317131  1  -1.212842  0  -0.579814  -1.049279  0  2.556618  0
