# generated using pymatgen
data_CoH6C3O2
_symmetry_space_group_name_H-M   'P 1'
_cell_length_a   11.51545824
_cell_length_b   11.55855487
_cell_length_c   10.37451837
_cell_angle_alpha   119.34232637
_cell_angle_beta   119.64114152
_cell_angle_gamma   93.14479411
_symmetry_Int_Tables_number   1
_chemical_formula_structural   CoH6C3O2
_chemical_formula_sum   'Co8 H48 C24 O16'
_cell_volume   962.33679662
_cell_formula_units_Z   8
loop_
 _symmetry_equiv_pos_site_id
 _symmetry_equiv_pos_as_xyz
  1  'x, y, z'
loop_
 _atom_site_type_symbol
 _atom_site_label
 _atom_site_symmetry_multiplicity
 _atom_site_fract_x
 _atom_site_fract_y
 _atom_site_fract_z
 _atom_site_occupancy
 _atom_site_pbe_bader_charge
 _atom_site_pbe_bader_spin_density
 _atom_site_pbe_cm5_charge
 _atom_site_pbe_ddec_charge
 _atom_site_pbe_ddec_spin_density
 _atom_site_pbe_ddec_sum_bond_order
 _atom_site_pbe_magmom
Co  Co0  1  0.82599381  0.45489875  0.60649964  1  1.172954  -2.492947  0.584048  0.802101  -2.678909  2.528957  -2.473
Co  Co1  1  0.97389060  0.11678966  0.91600736  1  0.932917  0.876578  0.486675  0.487748  0.935958  3.067296  0.873
Co  Co2  1  0.83724191  0.22229191  0.67785863  1  1.179815  -2.497995  0.593018  0.831078  -2.664355  2.386618  -2.469
Co  Co3  1  0.92300180  0.79173136  0.83775335  1  1.221869  2.555601  0.603878  0.868992  2.704913  2.485166  2.523
Co  Co4  1  0.53922490  0.18003513  0.37804922  1  1.090225  1.060175  0.54503  0.693698  1.12112  2.823438  1.049
Co  Co5  1  0.21978793  0.06051012  0.16920303  1  1.146693  2.428564  0.576347  0.78629  2.566539  2.509712  2.405
Co  Co6  1  0.90855543  0.05406844  0.07767371  1  1.142817  2.502891  0.566754  0.771408  2.679622  2.594409  2.488
Co  Co7  1  0.79060855  0.18349101  0.31858546  1  1.192285  -2.528235  0.602533  0.835135  -2.716258  2.473649  -2.504
H  H8  1  0.51420653  0.38995623  0.27072616  1  0.023831  -0.00545  0.091482  0.048798  -0.002223  0.984044  -0.002
H  H9  1  0.24766120  0.39283690  0.28890538  1  0.013572  0.002663  0.092773  0.049835  0.000937  0.978049  0.002
H  H10  1  0.71317760  0.89269991  0.22565230  1  0.018685  0.000817  0.092249  0.051357  0.000573  0.981481  0.0
H  H11  1  0.98070466  0.86014826  0.22183237  1  0.018555  0.006521  0.093466  0.056938  0.002347  0.966861  0.003
H  H12  1  0.60331855  0.45905784  0.71733833  1  0.033699  -0.004983  0.098431  0.063191  -0.001907  0.962965  -0.003
H  H13  1  0.12535094  0.00813636  0.75920833  1  0.011405  0.004173  0.093602  0.057189  0.001706  0.978059  0.002
H  H14  1  0.55539079  0.75708065  0.72379995  1  0.0066  0.008366  0.084951  0.045321  0.003185  0.966065  0.004
H  H15  1  0.13578158  0.34637072  0.82673032  1  0.013331  -0.00667  0.090267  0.045526  -0.00254  0.98953  -0.004
H  H16  1  0.49404538  0.23516087  0.08154396  1  0.023417  -0.004811  0.088093  0.043656  -0.001877  1.037852  -0.003
H  H17  1  0.23607037  0.36799493  0.43904894  1  0.03046  -0.001205  0.096995  0.058716  -0.000703  1.011542  0.0
H  H18  1  0.53136627  0.88050905  0.12706917  1  0.048891  -0.003992  0.090135  0.052701  -0.001646  1.029396  -0.002
H  H19  1  0.16078555  0.99326268  0.39059478  1  0.049871  0.006274  0.0865  0.03289  0.002374  1.056178  0.003
H  H20  1  0.77006797  0.47991521  0.89526202  1  0.039249  -0.001591  0.094401  0.053404  -0.00042  1.050498  -0.002
H  H21  1  0.98916031  0.83189087  0.61092437  1  0.061359  0.003015  0.090302  0.046003  0.000995  1.057927  0.002
H  H22  1  0.60538536  0.73411385  0.57834897  1  0.022032  0.007766  0.086603  0.039722  0.002864  1.011618  0.005
H  H23  1  0.13025673  0.51150302  0.85674306  1  0.061567  -0.006054  0.094401  0.062041  -0.002256  1.01394  -0.004
H  H24  1  0.82493839  0.64469962  0.39406484  1  -0.005178  -0.00547  0.081176  0.035853  -0.00224  1.007614  -0.002
H  H25  1  0.91159420  0.46008633  0.10343319  1  0.020263  0.000572  0.09144  0.054156  0.000323  0.990331  0.0
H  H26  1  0.76240388  0.84351593  0.56746983  1  0.042101  -0.003998  0.095784  0.047233  -0.001708  1.053143  -0.002
H  H27  1  0.05959618  0.55295111  0.99887560  1  0.03793  0.00449  0.089823  0.040493  0.001973  1.055869  0.002
H  H28  1  0.37272702  0.13330337  0.59247074  1  0.01362  0.003204  0.091576  0.05339  0.001188  0.99033  0.002
H  H29  1  0.43435390  0.92276644  0.97408886  1  0.016228  0.004916  0.091171  0.046955  0.001863  1.035709  0.003
H  H30  1  0.57037660  0.13036038  0.88870245  1  0.014116  0.003275  0.084448  0.043343  0.001413  1.006034  0.002
H  H31  1  0.17317547  0.19772057  0.45340741  1  0.021977  -0.002943  0.092565  0.041458  -0.001468  1.076544  -0.001
H  H32  1  0.66407613  0.62705396  0.38014201  1  0.016146  -0.003894  0.081307  0.02924  -0.001643  1.029219  -0.002
H  H33  1  0.08411252  0.48886711  0.14544775  1  -0.004148  0.001498  0.084592  0.035054  0.000762  1.025646  0.001
H  H34  1  0.83530214  0.86749915  0.46204903  1  0.008008  -0.00253  0.087642  0.037732  -0.000931  1.014504  -0.001
H  H35  1  0.93779077  0.61906756  0.03999064  1  0.006638  0.000832  0.084853  0.031216  0.000323  1.046888  0.0
H  H36  1  0.37843530  0.29617488  0.61280886  1  -0.00488  0.004343  0.0862  0.034281  0.001429  1.036838  0.003
H  H37  1  0.37326526  0.05286421  0.94909616  1  -0.012637  0.003894  0.087105  0.037158  0.00129  1.038359  0.002
H  H38  1  0.51782455  0.97998408  0.88357829  1  0.014731  0.001073  0.083864  0.031281  0.000707  1.055079  0.0
H  H39  1  0.10304318  0.15250430  0.54850897  1  0.005903  -0.000841  0.088412  0.046177  -0.000184  0.976178  -0.001
H  H40  1  0.75836949  0.38097930  0.22767132  1  0.035188  0.001119  0.094129  0.094973  0.000477  1.019668  0.0
H  H41  1  0.97093894  0.34521077  0.26487857  1  0.050571  -0.000374  0.096072  0.093819  -0.000204  1.048477  0.0
H  H42  1  0.56388459  0.92314263  0.41027642  1  0.043068  9e-05  0.097359  0.101336  1.9e-05  0.998659  0.0
H  H43  1  0.22785400  0.81669703  0.18931071  1  0.045139  -0.000309  0.094821  0.099543  -7.6e-05  0.989566  0.0
H  H44  1  0.64093732  0.21910282  0.76469611  1  0.046542  -0.000486  0.099783  0.106619  -0.000405  1.005912  0.0
H  H45  1  0.17135400  0.77487368  0.82008278  1  0.041475  0.000609  0.098591  0.103298  0.000416  0.985497  0.0
H  H46  1  0.68007573  0.00455412  0.73211279  1  0.057592  -0.001583  0.091927  0.085964  -0.001058  1.066333  0.0
H  H47  1  0.12319495  0.43295965  0.58554418  1  0.015602  0.00109  0.095143  0.096964  0.000543  1.008496  0.0
H  H48  1  0.61608100  0.42322492  0.10805776  1  0.01641  0.002074  0.089069  0.088631  0.000734  1.01297  0.001
H  H49  1  0.10572539  0.52026090  0.40445459  1  0.009106  0.000177  0.093622  0.095634  0.000112  0.983017  0.0
H  H50  1  0.56321564  0.75675575  0.26171123  1  0.011705  -0.001571  0.092026  0.091786  -0.000643  0.982268  -0.001
H  H51  1  0.19087284  0.77160722  0.30988468  1  0.016227  -0.000365  0.089754  0.088907  -0.00013  0.987465  0.0
H  H52  1  0.59308501  0.35212366  0.88539757  1  0.037523  0.000292  0.092393  0.092556  0.000178  1.02277  0.0
H  H53  1  0.20457479  0.79545569  0.68147392  1  0.014743  -0.000503  0.094389  0.095989  -0.000191  0.978827  0.0
H  H54  1  0.49110527  0.90642656  0.60157966  1  0.022013  -0.000979  0.090158  0.093376  -0.000302  0.986154  0.0
H  H55  1  0.27420742  0.42174039  0.74461521  1  0.00719  -0.000572  0.089804  0.088615  -0.000246  0.989182  0.0
C  C56  1  0.57449416  0.33173211  0.22484552  1  0.446221  -0.00159  -0.086241  0.087859  -0.001369  3.95949  0.001
C  C57  1  0.17154452  0.34544043  0.30201240  1  0.456369  0.001305  -0.080201  0.094425  0.001032  3.92093  0.0
C  C58  1  0.63845041  0.92877863  0.25893407  1  0.443018  -0.00063  -0.086409  0.084763  -0.001017  3.969832  0.001
C  C59  1  0.08274208  0.90143915  0.24390195  1  0.434753  0.003962  -0.085226  0.100666  0.003139  3.948965  0.001
C  C60  1  0.66807354  0.39994626  0.75740798  1  0.440163  -0.002229  -0.084286  0.080167  -0.001893  3.951079  0.0
C  C61  1  0.08551744  0.91499949  0.75294016  1  0.41888  0.001399  -0.087327  0.07867  0.001393  3.923206  -0.001
C  C62  1  0.62926468  0.81274944  0.71433425  1  0.465102  0.005212  -0.082569  0.117505  0.004339  3.966687  0.001
C  C63  1  0.09393606  0.39531604  0.75314357  1  0.416609  -0.005176  -0.086938  0.083585  -0.004083  3.9732  -0.002
C  C64  1  0.75040065  0.58415919  0.39830512  1  0.487964  0.000225  -0.090611  0.105956  -0.000141  4.024809  0.002
C  C65  1  0.99497145  0.41411546  0.11555600  1  0.498058  -0.002968  -0.083795  0.098955  -0.00188  3.972674  -0.003
C  C66  1  0.77312278  0.90483959  0.51711431  1  0.454496  -0.004067  -0.086041  0.086771  -0.002721  3.95607  -0.002
C  C67  1  0.02019359  0.64058813  0.02014363  1  0.457101  0.000697  -0.090951  0.084178  0.000242  4.0124  0.0
C  C68  1  0.42842910  0.21590647  0.59453288  1  0.492018  0.001279  -0.083927  0.097627  0.000961  3.984167  0.0
C  C69  1  0.35272584  0.96990293  0.96813288  1  0.499109  0.000865  -0.084731  0.091792  0.000591  3.983026  -0.001
C  C70  1  0.60177589  0.04316724  0.89450859  1  0.466889  0.000275  -0.091562  0.099346  2e-06  3.980768  0.0
C  C71  1  0.10067926  0.21531028  0.49429631  1  0.493959  -0.000329  -0.090277  0.091411  -0.000422  3.970795  0.001
C  C72  1  0.67793488  0.42685270  0.23269886  1  -0.040146  0.003113  -0.179251  -0.242104  0.002246  3.982406  0.002
C  C73  1  0.05696292  0.40897629  0.27934670  1  -0.024189  0.000857  -0.177726  -0.242219  0.000216  3.969393  0.001
C  C74  1  0.62564506  0.87466692  0.36018465  1  -0.024415  -0.008326  -0.174497  -0.232353  -0.004266  3.970503  -0.007
C  C75  1  0.14128308  0.78406146  0.19754558  1  -0.036332  0.003582  -0.176677  -0.234768  0.001464  3.982469  0.003
C  C76  1  0.58697197  0.29409501  0.75934913  1  -0.050089  -0.003128  -0.177145  -0.239659  -0.001756  3.983148  -0.003
C  C77  1  0.20162238  0.85444509  0.80099589  1  -0.012236  6e-06  -0.172107  -0.228055  -0.000258  3.963666  0.0
C  C78  1  0.59918856  0.94367128  0.72735167  1  -0.057593  0.003468  -0.180607  -0.254364  0.001229  3.97666  0.004
C  C79  1  0.15443956  0.37423955  0.64643089  1  -0.008469  -0.006904  -0.178062  -0.235229  -0.003218  3.982731  -0.006
O  O80  1  0.65037753  0.28821046  0.33966015  1  -1.08741  -0.092211  -0.375785  -0.557681  -0.051825  2.692434  -0.084
O  O81  1  0.10629029  0.19237936  0.16640189  1  -1.062075  0.086269  -0.381738  -0.5162  0.049134  2.782364  0.08
O  O82  1  0.69061703  0.08235464  0.36506187  1  -1.095641  -0.09617  -0.371134  -0.544346  -0.051227  2.57527  -0.083
O  O83  1  0.05468348  0.94913204  0.13233447  1  -1.110489  0.185259  -0.38457  -0.566131  0.100237  2.645396  0.165
O  O84  1  0.70242626  0.32681781  0.63149499  1  -1.071002  -0.126263  -0.37337  -0.533023  -0.068459  2.733913  -0.115
O  O85  1  0.04507979  0.96030337  0.87568611  1  -1.087901  0.104165  -0.369991  -0.534093  0.058676  2.661166  0.09
O  O86  1  0.77470213  0.85194416  0.85782929  1  -1.083486  0.205868  -0.393496  -0.567243  0.108926  2.541732  0.18
O  O87  1  0.93810648  0.32905472  0.63437504  1  -1.112223  -0.195126  -0.382768  -0.583543  -0.107103  2.642884  -0.173
O  O88  1  0.82523100  0.60639018  0.56965282  1  -1.109869  -0.047273  -0.394547  -0.584222  -0.024995  2.511425  -0.041
O  O89  1  0.93172789  0.27857422  0.94447755  1  -1.069736  -0.020708  -0.380215  -0.503477  -0.011846  2.560262  -0.019
O  O90  1  0.85179340  0.05257253  0.66966482  1  -1.06331  -0.077201  -0.389534  -0.484213  -0.040749  2.654344  -0.066
O  O91  1  0.95569425  0.63612796  0.86059159  1  -1.08966  0.017133  -0.389689  -0.543082  0.008099  2.552403  0.012
O  O92  1  0.40553505  0.14867833  0.42289759  1  -1.062809  0.103106  -0.382253  -0.518453  0.057386  2.595957  0.089
O  O93  1  0.36913282  0.03244018  0.13473673  1  -1.067732  0.078245  -0.387087  -0.513571  0.043758  2.652459  0.069
O  O94  1  0.73836104  0.10385803  0.06525571  1  -1.0802  0.004611  -0.381229  -0.545463  0.0023  2.4599  0.005
O  O95  1  0.96034238  0.16277483  0.33463731  1  -1.080707  -0.037203  -0.389362  -0.52695  -0.018497  2.567334  -0.03
