# generated using pymatgen
data_Cd2H23C39N4ClO6
_symmetry_space_group_name_H-M   'P 1'
_cell_length_a   10.06763482
_cell_length_b   10.30625291
_cell_length_c   16.18934363
_cell_angle_alpha   81.87619538
_cell_angle_beta   75.08049128
_cell_angle_gamma   77.98318081
_symmetry_Int_Tables_number   1
_chemical_formula_structural   Cd2H23C39N4ClO6
_chemical_formula_sum   'Cd4 H46 C78 N8 Cl2 O12'
_cell_volume   1580.75044083
_cell_formula_units_Z   2
loop_
 _symmetry_equiv_pos_site_id
 _symmetry_equiv_pos_as_xyz
  1  'x, y, z'
loop_
 _atom_site_type_symbol
 _atom_site_label
 _atom_site_symmetry_multiplicity
 _atom_site_fract_x
 _atom_site_fract_y
 _atom_site_fract_z
 _atom_site_occupancy
 _atom_site_pbe_bader_spin_density
 _atom_site_pbe_cm5_charge
 _atom_site_pbe_ddec_charge
 _atom_site_pbe_ddec_spin_density
 _atom_site_pbe_ddec_sum_bond_order
 _atom_site_pbe_magmom
Cd  Cd0  1  0.06144017  0.01993239  0.27561810  1  0  0.716303  0.820673  0  2.214746  0
Cd  Cd1  1  0.93856534  0.98006891  0.72437934  1  0  0.716299  0.820709  0  2.214751  0
Cd  Cd2  1  0.68881797  0.25407659  0.85799798  1  0  0.723776  0.833115  0  2.257566  0
Cd  Cd3  1  0.31118665  0.74592369  0.14200277  1  0  0.723757  0.833116  0  2.257515  0
H  H4  1  0.40526450  0.07196979  0.24750900  1  0  0.100424  0.112533  0  1.028404  0
H  H5  1  0.59474271  0.92803353  0.75248553  1  0  0.100408  0.112512  0  1.028407  0
H  H6  1  0.37022033  0.28806497  0.97945982  1  0  0.117131  0.098446  0  1.017088  0
H  H7  1  0.62978293  0.71193732  0.02053788  1  0  0.117145  0.098486  0  1.016982  0
H  H8  1  0.24378148  0.33533095  0.13348639  1  0  0.105496  0.119196  0  1.034998  0
H  H9  1  0.75622018  0.66467433  0.86651129  1  0  0.105441  0.119099  0  1.035078  0
H  H10  1  0.38015369  0.38749248  0.22889990  1  0  0.112076  0.118233  0  0.99699  0
H  H11  1  0.61984675  0.61251380  0.77109789  1  0  0.1121  0.118233  0  0.997  0
H  H12  1  0.61292199  0.39622247  0.25279502  1  0  0.104913  0.105693  0  1.034985  0
H  H13  1  0.38707668  0.60377682  0.74720488  1  0  0.104919  0.105722  0  1.034999  0
H  H14  1  0.86957004  0.37794293  0.19822868  1  0  0.1104  0.134012  0  1.004611  0
H  H15  1  0.13043188  0.62205535  0.80177266  1  0  0.110416  0.134085  0  1.004558  0
H  H16  1  0.07759474  0.34659740  0.07651788  1  0  0.111335  0.116624  0  0.999682  0
H  H17  1  0.92240620  0.65340090  0.92348053  1  0  0.111331  0.116591  0  0.999677  0
H  H18  1  0.17975850  0.31123540  0.91852193  1  0  0.10863  0.124228  0  1.024558  0
H  H19  1  0.82024082  0.68876588  0.08147770  1  0  0.108617  0.124228  0  1.024575  0
H  H20  1  0.01114911  0.98724209  0.08795522  1  0  0.105187  0.072087  0  1.037892  0
H  H21  1  0.98885366  0.01275720  0.91204467  1  0  0.105143  0.071975  0  1.037876  0
H  H22  1  0.81431762  0.97960227  0.01872155  1  0  0.093905  0.104772  0  1.052774  0
H  H23  1  0.18568776  0.02040500  0.98127601  1  0  0.093903  0.104797  0  1.052781  0
H  H24  1  0.56916425  0.01929740  0.10711485  1  0  0.109688  0.120957  0  0.986094  0
H  H25  1  0.43083965  0.98070688  0.89288258  1  0  0.109693  0.121012  0  0.986058  0
H  H26  1  0.36575662  0.12712063  0.39543427  1  0  0.101838  0.108524  0  1.053448  0
H  H27  1  0.63424442  0.87288267  0.60456183  1  0  0.101864  0.108607  0  1.053526  0
H  H28  1  0.46484302  0.16674409  0.51756266  1  0  0.105566  0.107673  0  1.012516  0
H  H29  1  0.53515979  0.83325521  0.48243475  1  0  0.105611  0.107761  0  1.012437  0
H  H30  1  0.18655024  0.65211539  0.47904226  1  0  0.103601  0.101029  0  1.043406  0
H  H31  1  0.81344412  0.34788488  0.52095946  1  0  0.103636  0.101087  0  1.043422  0
H  H32  1  0.07754384  0.51957076  0.26943019  1  0  0.103232  0.106097  0  1.025776  0
H  H33  1  0.92244781  0.48042751  0.73057212  1  0  0.103248  0.106107  0  1.025829  0
H  H34  1  0.50657855  0.50386554  0.63642951  1  0  0.102857  0.10628  0  1.009037  0
H  H35  1  0.49342553  0.49612676  0.36357263  1  0  0.102816  0.106196  0  1.009118  0
H  H36  1  0.26394106  0.19855585  0.74435025  1  0  0.097592  0.097571  0  1.051041  0
H  H37  1  0.73605240  0.80144339  0.25565602  1  0  0.097551  0.097526  0  1.051018  0
H  H38  1  0.15256693  0.24318240  0.62038004  1  0  0.09908  0.104317  0  1.031001  0
H  H39  1  0.84742208  0.75682380  0.37962879  1  0  0.099085  0.104344  0  1.030946  0
H  H40  1  0.37856158  0.56573275  0.52118006  1  0  0.095989  0.093021  0  1.056524  0
H  H41  1  0.62143742  0.43426452  0.47882367  1  0  0.096008  0.093042  0  1.056509  0
H  H42  1  0.18414403  0.23517208  0.47298062  1  0  0.104381  0.107663  0  1.02378  0
H  H43  1  0.81584496  0.76482915  0.52702494  1  0  0.104405  0.107711  0  1.023753  0
H  H44  1  0.67820296  0.15583767  0.57418487  1  0  0.113959  0.12935  0  0.991755  0
H  H45  1  0.32179855  0.84415764  0.42581371  1  0  0.113939  0.129333  0  0.991768  0
H  H46  1  0.91344982  0.09778528  0.47759149  1  0  0.122049  0.101468  0  0.998621  0
H  H47  1  0.08655297  0.90221401  0.52240715  1  0  0.122052  0.101472  0  0.998576  0
H  H48  1  0.01569452  0.29457002  0.82891766  1  0  0.118136  0.099199  0  1.02322  0
H  H49  1  0.98430787  0.70543126  0.17108211  1  0  0.118152  0.099231  0  1.023161  0
C  C50  1  0.10905578  0.25577496  0.32277332  1  0  0.188616  0.552201  0  4.226839  0
C  C51  1  0.89094635  0.74422234  0.67722684  1  0  0.188505  0.552037  0  4.227026  0
C  C52  1  0.12842976  0.36664718  0.36732512  1  0  -0.020861  -0.032049  0  3.97916  0
C  C53  1  0.87156187  0.63335107  0.63267905  1  0  -0.020782  -0.031965  0  3.979233  0
C  C54  1  0.46608857  0.31330432  0.77044464  1  0  0.188722  0.551422  0  4.250716  0
C  C55  1  0.53390938  0.68669294  0.22956111  1  0  0.188706  0.551477  0  4.250619  0
C  C56  1  0.39173368  0.34823698  0.69886250  1  0  -0.02198  -0.03184  0  3.978525  0
C  C57  1  0.60826532  0.65176029  0.30114123  1  0  -0.021935  -0.032098  0  3.978733  0
C  C58  1  0.42387978  0.45130504  0.63498920  1  0  -0.088141  -0.095597  0  3.989867  0
C  C59  1  0.57611922  0.54869223  0.36501453  1  0  -0.088105  -0.095398  0  3.989856  0
C  C60  1  0.11076990  0.74172980  0.33259300  1  0  0.195549  0.564792  0  4.211156  0
C  C61  1  0.88922526  0.25826650  0.66740586  1  0  0.195604  0.564813  0  4.211075  0
C  C62  1  0.19620051  0.43914145  0.48543641  1  0  -0.008198  0.059742  0  4.007155  0
C  C63  1  0.80378971  0.56085880  0.51456780  1  0  -0.008204  0.059722  0  4.007107  0
C  C64  1  0.25639441  0.40895488  0.56161275  1  0  -0.004604  0.075012  0  3.988203  0
C  C65  1  0.74359887  0.59104537  0.43839222  1  0  -0.004677  0.074945  0  3.988233  0
C  C66  1  0.74829579  0.05492894  0.25310857  1  0  0.116025  0.118386  0  3.97861  0
C  C67  1  0.25170933  0.94507435  0.74688938  1  0  0.116034  0.118333  0  3.978533  0
C  C68  1  0.13059239  0.60036623  0.37077801  1  0  -0.017941  -0.025053  0  3.993032  0
C  C69  1  0.86939719  0.39963202  0.62922586  1  0  -0.017969  -0.025002  0  3.993023  0
C  C70  1  0.63562915  0.33991644  0.04515841  1  0  0.111491  0.114076  0  3.996361  0
C  C71  1  0.36437297  0.66008085  0.95484175  1  0  0.111464  0.114096  0  3.99637  0
C  C72  1  0.17243987  0.57054507  0.44810435  1  0  -0.072878  -0.119747  0  3.911891  0
C  C73  1  0.82755140  0.42945519  0.55189847  1  0  -0.072892  -0.119825  0  3.911936  0
C  C74  1  0.58673448  0.11273751  0.39168612  1  0  -0.003058  0.040594  0  4.007228  0
C  C75  1  0.41326606  0.88726278  0.60831340  1  0  -0.003069  0.04057  0  4.007121  0
C  C76  1  0.72572053  0.08268686  0.34127836  1  0  0.117673  0.122111  0  3.972362  0
C  C77  1  0.27427999  0.91731342  0.65872178  1  0  0.11767  0.122169  0  3.972292  0
C  C78  1  0.22697642  0.30353070  0.62472335  1  0  -0.093396  -0.13556  0  3.965529  0
C  C79  1  0.77301910  0.69646855  0.37528199  1  0  -0.093416  -0.135654  0  3.965379  0
C  C80  1  0.17016737  0.33827638  0.44514572  1  0  -0.075577  -0.130081  0  3.920736  0
C  C81  1  0.82982387  0.66172386  0.55485896  1  0  -0.075612  -0.13017  0  3.920826  0
C  C82  1  0.10943095  0.49804751  0.33000857  1  0  -0.078452  -0.105982  0  3.927069  0
C  C83  1  0.89056173  0.50195076  0.66999359  1  0  -0.078471  -0.10599  0  3.92714  0
C  C84  1  0.63113932  0.05237671  0.21992515  1  0  -0.00037  0.037104  0  4.008123  0
C  C85  1  0.36886806  0.94762560  0.78007068  1  0  -0.000403  0.037074  0  4.008193  0
C  C86  1  0.29026943  0.27695456  0.69384081  1  0  -0.087942  -0.093065  0  3.973518  0
C  C87  1  0.70972589  0.72304569  0.30616509  1  0  -0.08784  -0.092832  0  3.973279  0
C  C88  1  0.90207410  0.00565211  0.12339926  1  0  0.049258  0.100592  0  3.969692  0
C  C89  1  0.09793084  0.99435219  0.87659738  1  0  0.049302  0.100792  0  3.969544  0
C  C90  1  0.65681778  0.02403722  0.13384541  1  0  -0.053358  -0.036753  0  3.884447  0
C  C91  1  0.34319007  0.97596808  0.86614946  1  0  -0.053354  -0.036764  0  3.884476  0
C  C92  1  0.35333805  0.48422309  0.56955133  1  0  -0.092109  -0.132019  0  3.97375  0
C  C93  1  0.64666031  0.51577219  0.43045267  1  0  -0.09207  -0.131933  0  3.973746  0
C  C94  1  0.81983160  0.10312715  0.45429532  1  0  0.063869  0.121049  0  3.90069  0
C  C95  1  0.18017101  0.89687314  0.54570265  1  0  0.063983  0.121297  0  3.900775  0
C  C96  1  0.97764229  0.31005566  0.89686157  1  0  0.054671  0.106753  0  3.924937  0
C  C97  1  0.02236012  0.68994563  0.10313697  1  0  0.054717  0.106831  0  3.924856  0
C  C98  1  0.78394207  0.33608523  0.01188482  1  0  0.112177  0.11191  0  3.991576  0
C  C99  1  0.21605763  0.66391406  0.98811492  1  0  0.112194  0.112021  0  3.991585  0
C  C100  1  0.57499939  0.36537707  0.13196488  1  0  -0.000225  0.044413  0  4.008802  0
C  C101  1  0.42500151  0.63462122  0.86803538  1  0  -0.000241  0.044306  0  4.008761  0
C  C102  1  0.79270542  0.00159675  0.08527701  1  0  -0.090765  -0.137271  0  3.976162  0
C  C103  1  0.20730259  0.99840754  0.91472040  1  0  -0.090792  -0.137421  0  3.976192  0
C  C104  1  0.49324904  0.07758120  0.27365389  1  0  -0.083274  -0.109944  0  3.961021  0
C  C105  1  0.50675404  0.92242209  0.72634251  1  0  -0.083219  -0.109848  0  3.960963  0
C  C106  1  0.86693229  0.35011872  0.06794251  1  0  -8e-06  0.046704  0  4.001207  0
C  C107  1  0.13306900  0.64987758  0.93205787  1  0  -7.7e-05  0.046547  0  4.001362  0
C  C108  1  0.56977563  0.14178327  0.47703916  1  0  -0.064308  -0.075684  0  3.918619  0
C  C109  1  0.43022595  0.85821703  0.52295897  1  0  -0.064307  -0.075692  0  3.918414  0
C  C110  1  0.47184632  0.10835846  0.35593002  1  0  -0.084855  -0.122764  0  3.977733  0
C  C111  1  0.52815714  0.89164284  0.64406711  1  0  -0.084903  -0.122895  0  3.97776  0
C  C112  1  0.06811757  0.32033933  0.94792672  1  0  -0.082205  -0.126688  0  3.963845  0
C  C113  1  0.93188211  0.67965995  0.05207427  1  0  -0.082254  -0.126828  0  3.96381  0
C  C114  1  0.01235024  0.33947176  0.03367061  1  0  -0.058203  -0.066103  0  3.906177  0
C  C115  1  0.98765097  0.66053053  0.96632740  1  0  -0.058145  -0.06592  0  3.90601  0
C  C116  1  0.68622623  0.13647679  0.50852557  1  0  -0.075443  -0.115494  0  3.95267  0
C  C117  1  0.31377348  0.86352250  0.49147356  1  0  -0.075458  -0.115586  0  3.952775  0
C  C118  1  0.42330572  0.31290995  0.02442636  1  0  0.053441  0.106123  0  3.931403  0
C  C119  1  0.57669342  0.68709233  0.97557260  1  0  0.053383  0.10599  0  3.931344  0
C  C120  1  0.66185003  0.38069414  0.18589536  1  0  -0.082061  -0.108987  0  3.97685  0
C  C121  1  0.33814903  0.61930316  0.81410404  1  0  -0.082061  -0.108981  0  3.976805  0
C  C122  1  0.43011091  0.36709103  0.16265667  1  0  -0.056266  -0.057957  0  3.902876  0
C  C123  1  0.56989255  0.63291028  0.83733985  1  0  -0.056252  -0.057884  0  3.90281  0
C  C124  1  0.80281513  0.37196933  0.15583646  1  0  -0.078364  -0.110323  0  3.932401  0
C  C125  1  0.19718270  0.62802895  0.84416428  1  0  -0.078317  -0.110323  0  3.932352  0
C  C126  1  0.35430229  0.33998008  0.10910050  1  0  -0.085033  -0.128399  0  3.958712  0
C  C127  1  0.64570041  0.66002521  0.89089641  1  0  -0.084965  -0.128253  0  3.958707  0
N  N128  1  0.83838907  0.07814061  0.37331048  1  0  -0.321865  -0.264364  0  3.486328  0
N  N129  1  0.16161231  0.92186068  0.62668821  1  0  -0.321977  -0.264611  0  3.486442  0
N  N130  1  0.88095965  0.03087642  0.20458729  1  0  -0.324526  -0.267588  0  3.518613  0
N  N131  1  0.11904606  0.96912390  0.79540897  1  0  -0.324507  -0.26759  0  3.518646  0
N  N132  1  0.55919452  0.31435815  0.99347828  1  0  -0.326579  -0.276093  0  3.53649  0
N  N133  1  0.44080685  0.68564313  0.00652103  1  0  -0.326558  -0.276098  0  3.53656  0
N  N134  1  0.84068596  0.31570943  0.92818732  1  0  -0.329443  -0.277478  0  3.526663  0
N  N135  1  0.15931580  0.68428987  0.07181148  1  0  -0.329492  -0.277617  0  3.526738  0
Cl  Cl136  1  0.26439364  0.00112672  0.13134023  1  0  -0.282474  -0.478457  0  1.211561  0
Cl  Cl137  1  0.73560882  0.99887459  0.86865459  1  0  -0.282484  -0.47848  0  1.211599  0
O  O138  1  0.14461125  0.13631924  0.35559424  1  0  -0.332756  -0.540876  0  2.226221  0
O  O139  1  0.85538741  0.86368004  0.64440628  1  0  -0.332726  -0.540822  0  2.226163  0
O  O140  1  0.06047819  0.28235547  0.25623586  1  0  -0.338522  -0.57835  0  2.151261  0
O  O141  1  0.93952806  0.71764185  0.74376243  1  0  -0.338477  -0.578288  0  2.151425  0
O  O142  1  0.58448791  0.35341824  0.75564511  1  0  -0.338826  -0.551643  0  2.27918  0
O  O143  1  0.41551253  0.64657705  0.24435610  1  0  -0.338882  -0.551681  0  2.279098  0
O  O144  1  0.10180053  0.83438523  0.37877294  1  0  -0.314299  -0.524581  0  2.211392  0
O  O145  1  0.89819373  0.16561607  0.62122191  1  0  -0.314354  -0.524624  0  2.211336  0
O  O146  1  0.41445725  0.24818935  0.83874012  1  0  -0.326402  -0.564746  0  2.175462  0
O  O147  1  0.58553723  0.75180989  0.16126662  1  0  -0.326408  -0.564744  0  2.17525  0
O  O148  1  0.10106528  0.76623205  0.25397644  1  0  -0.34345  -0.594174  0  2.335402  0
O  O149  1  0.89893477  0.23376028  0.74602076  1  0  -0.343467  -0.594223  0  2.335515  0
