# generated using pymatgen
data_Cd2H10C19(O5F3)2
_symmetry_space_group_name_H-M   'P 1'
_cell_length_a   7.85454495
_cell_length_b   10.42385156
_cell_length_c   12.81815207
_cell_angle_alpha   90.97471613
_cell_angle_beta   107.85068537
_cell_angle_gamma   90.01420480
_symmetry_Int_Tables_number   1
_chemical_formula_structural   Cd2H10C19(O5F3)2
_chemical_formula_sum   'Cd4 H20 C38 O20 F12'
_cell_volume   998.79670765
_cell_formula_units_Z   2
loop_
 _symmetry_equiv_pos_site_id
 _symmetry_equiv_pos_as_xyz
  1  'x, y, z'
loop_
 _atom_site_type_symbol
 _atom_site_label
 _atom_site_symmetry_multiplicity
 _atom_site_fract_x
 _atom_site_fract_y
 _atom_site_fract_z
 _atom_site_occupancy
 _atom_site_hle17_bader_spin_density
 _atom_site_hle17_ddec_charge
 _atom_site_hle17_ddec_spin_density
 _atom_site_hle17_ddec_sum_bond_order
 _atom_site_hle17_magmom
 _atom_site_hse06_10hf_bader_spin_density
 _atom_site_hse06_10hf_ddec_charge
 _atom_site_hse06_10hf_ddec_spin_density
 _atom_site_hse06_10hf_ddec_sum_bond_order
 _atom_site_hse06_10hf_magmom
 _atom_site_hse06_bader_spin_density
 _atom_site_hse06_ddec_charge
 _atom_site_hse06_ddec_spin_density
 _atom_site_hse06_ddec_sum_bond_order
 _atom_site_hse06_magmom
 _atom_site_pbe_bader_spin_density
 _atom_site_pbe_cm5_charge
 _atom_site_pbe_ddec_charge
 _atom_site_pbe_ddec_spin_density
 _atom_site_pbe_ddec_sum_bond_order
 _atom_site_pbe_magmom
Cd  Cd0  1  0.32960655  0.65210120  0.46561743  1  0  1.286658  0  1.534079  0  0  1.114727  0  1.971615  0  0  1.175078  0  1.911152  0  0  0.786716  1.071114  0  2.013378  0
Cd  Cd1  1  0.86431262  0.84819452  0.53451030  1  0  1.286642  0  1.53488  0  0  1.114685  0  1.972442  0  0  1.175054  0  1.911968  0  0  0.786667  1.071048  0  2.01424  0
Cd  Cd2  1  0.67039365  0.34790077  0.53438456  1  0  1.286655  0  1.534077  0  0  1.114734  0  1.971612  0  0  1.175084  0  1.911149  0  0  0.786725  1.071122  0  2.013376  0
Cd  Cd3  1  0.13568890  0.15180553  0.46549113  1  0  1.286635  0  1.534883  0  0  1.114681  0  1.972446  0  0  1.17505  0  1.911976  0  0  0.786671  1.071043  0  2.014249  0
H  H4  1  0.11017854  0.16436720  0.80611778  1  0  0.112059  0  0.934201  0  0  0.122683  0  0.991015  0  0  0.126381  0  0.989007  0  0  0.105925  0.120064  0  0.992469  0
H  H5  1  0.30380499  0.33565855  0.19369408  1  0  0.11162  0  0.934687  0  0  0.122287  0  0.991497  0  0  0.125924  0  0.989576  0  0  0.1057  0.119738  0  0.992855  0
H  H6  1  0.88982031  0.83563381  0.19388395  1  0  0.11212  0  0.934167  0  0  0.122736  0  0.99098  0  0  0.126432  0  0.988968  0  0  0.105954  0.120118  0  0.992428  0
H  H7  1  0.69619787  0.66434150  0.80630839  1  0  0.111598  0  0.934705  0  0  0.122288  0  0.991441  0  0  0.125905  0  0.989589  0  0  0.10569  0.119708  0  0.99288  0
H  H8  1  0.39069101  0.12614854  0.95105941  1  0  0.102815  0  0.982626  0  0  0.107825  0  1.052089  0  0  0.110797  0  1.050276  0  0  0.096802  0.104879  0  1.054586  0
H  H9  1  0.43995128  0.37404424  0.04903342  1  0  0.102247  0  0.983338  0  0  0.10751  0  1.052183  0  0  0.111224  0  1.049517  0  0  0.097016  0.105228  0  1.05394  0
H  H10  1  0.60930650  0.87385151  0.04894207  1  0  0.102799  0  0.9826  0  0  0.107784  0  1.052094  0  0  0.110759  0  1.050298  0  0  0.096783  0.104839  0  1.054597  0
H  H11  1  0.56004890  0.62595580  0.95096698  1  0  0.102219  0  0.983368  0  0  0.108023  0  1.051874  0  0  0.11121  0  1.049524  0  0  0.097004  0.10521  0  1.05395  0
H  H12  1  0.65500467  0.40681146  0.81059054  1  0  0.115196  0  0.956861  0  0  0.122577  0  1.022368  0  0  0.126544  0  1.018895  0  0  0.104149  0.119566  0  1.025233  0
H  H13  1  0.84398233  0.09292812  0.18954918  1  0  0.116099  0  0.956111  0  0  0.122367  0  1.022793  0  0  0.126407  0  1.019179  0  0  0.103968  0.119318  0  1.025703  0
H  H14  1  0.34499550  0.59318762  0.18940986  1  0  0.115177  0  0.95688  0  0  0.122478  0  1.022641  0  0  0.126532  0  1.018914  0  0  0.104142  0.119553  0  1.025249  0
H  H15  1  0.15601515  0.90706999  0.81044837  1  0  0.116127  0  0.955978  0  0  0.122386  0  1.022658  0  0  0.126424  0  1.019068  0  0  0.10397  0.119335  0  1.025588  0
H  H16  1  0.24324928  0.89320058  0.33623650  1  0  0.440732  0  0.823451  0  0  0.417748  0  0.884886  0  0  0.426795  0  0.871749  0  0  0.308373  0.411293  0  0.893416  0
H  H17  1  0.90719669  0.60676147  0.66370717  1  0  0.440686  0  0.824282  0  0  0.417312  0  0.885554  0  0  0.426363  0  0.872415  0  0  0.308324  0.410849  0  0.894705  0
H  H18  1  0.75675091  0.10680138  0.66376472  1  0  0.440742  0  0.823453  0  0  0.417758  0  0.884876  0  0  0.426805  0  0.871739  0  0  0.30836  0.411303  0  0.893419  0
H  H19  1  0.09280482  0.39323857  0.33629348  1  0  0.440695  0  0.824253  0  0  0.417324  0  0.885529  0  0  0.426375  0  0.872388  0  0  0.308335  0.410861  0  0.894671  0
H  H20  1  0.44765001  0.87866450  0.37565573  1  0  0.436593  0  0.860868  0  0  0.404535  0  0.926406  0  0  0.41502  0  0.911357  0  0  0.291751  0.397042  0  0.937161  0
H  H21  1  0.07231895  0.62146138  0.62448461  1  0  0.436981  0  0.860327  0  0  0.404802  0  0.92615  0  0  0.415305  0  0.911033  0  0  0.292052  0.39733  0  0.936894  0
H  H22  1  0.55235151  0.12133651  0.62434572  1  0  0.436599  0  0.860873  0  0  0.404541  0  0.92641  0  0  0.415026  0  0.911361  0  0  0.291738  0.397048  0  0.937165  0
H  H23  1  0.92768123  0.37853866  0.37551658  1  0  0.436931  0  0.860395  0  0  0.404752  0  0.926211  0  0  0.415254  0  0.911101  0  0  0.292039  0.397282  0  0.936956  0
C  C24  1  0.37615999  0.37787715  0.73029752  1  0  -0.081115  0  3.72022  0  0  -0.065292  0  3.960638  0  0  -0.07346  0  3.98238  0  0  -0.016748  -0.059735  0  3.9463  0
C  C25  1  0.64529864  0.12197506  0.26967400  1  0  -0.081909  0  3.721356  0  0  -0.065112  0  3.96047  0  0  -0.073418  0  3.982506  0  0  -0.017091  -0.059561  0  3.946251  0
C  C26  1  0.62384018  0.62212289  0.26970288  1  0  -0.081075  0  3.720208  0  0  -0.065122  0  3.960343  0  0  -0.073353  0  3.982282  0  0  -0.016707  -0.059627  0  3.946201  0
C  C27  1  0.35470421  0.87802594  0.73032613  1  0  -0.081863  0  3.72139  0  0  -0.065054  0  3.960464  0  0  -0.07336  0  3.982526  0  0  -0.01703  -0.059494  0  3.946262  0
C  C28  1  0.21915466  0.31294132  0.72965534  1  0  -0.034181  0  3.698295  0  0  -0.026288  0  3.942115  0  0  -0.026674  0  3.95873  0  0  -0.001955  -0.026036  0  3.930483  0
C  C29  1  0.48889498  0.18692551  0.27015001  1  0  -0.034289  0  3.696773  0  0  -0.026868  0  3.940193  0  0  -0.027363  0  3.9571  0  0  -0.002172  -0.026828  0  3.92911  0
C  C30  1  0.78084284  0.68705776  0.27034455  1  0  -0.034234  0  3.698301  0  0  -0.026264  0  3.941798  0  0  -0.026748  0  3.958725  0  0  -0.001996  -0.02611  0  3.930483  0
C  C31  1  0.51110517  0.81307261  0.72984881  1  0  -0.034377  0  3.69684  0  0  -0.026951  0  3.940244  0  0  -0.027448  0  3.957168  0  0  -0.002253  -0.026935  0  3.929212  0
C  C32  1  0.22931381  0.21897766  0.80802733  1  0  -0.06668  0  3.704694  0  0  -0.09202  0  3.963697  0  0  -0.094913  0  3.982176  0  0  -0.0856  -0.089926  0  3.951001  0
C  C33  1  0.42092226  0.28095487  0.19179809  1  0  -0.065819  0  3.702721  0  0  -0.091276  0  3.961677  0  0  -0.09423  0  3.980521  0  0  -0.085569  -0.089214  0  3.949089  0
C  C34  1  0.77068236  0.78102143  0.19197309  1  0  -0.066782  0  3.704758  0  0  -0.092006  0  3.963502  0  0  -0.09498  0  3.982237  0  0  -0.085628  -0.089994  0  3.951066  0
C  C35  1  0.57907656  0.71904325  0.80820126  1  0  -0.065773  0  3.702742  0  0  -0.091204  0  3.961647  0  0  -0.094184  0  3.980524  0  0  -0.085552  -0.089155  0  3.949088  0
C  C36  1  0.38842018  0.19755036  0.89012135  1  0  -0.077367  0  3.714602  0  0  -0.105889  0  3.974957  0  0  -0.105133  0  3.993742  0  0  -0.084824  -0.106636  0  3.963876  0
C  C37  1  0.49830445  0.30247367  0.10987834  1  0  -0.07757  0  3.715317  0  0  -0.106031  0  3.975999  0  0  -0.10514  0  3.994117  0  0  -0.08489  -0.106625  0  3.964283  0
C  C38  1  0.61157598  0.80244968  0.10987831  1  0  -0.077265  0  3.714533  0  0  -0.105727  0  3.974766  0  0  -0.10503  0  3.993706  0  0  -0.08476  -0.106527  0  3.963833  0
C  C39  1  0.50169437  0.69752445  0.89012179  1  0  -0.077598  0  3.715349  0  0  -0.106163  0  3.975992  0  0  -0.105148  0  3.994119  0  0  -0.084876  -0.106631  0  3.964279  0
C  C40  1  0.54269703  0.26991319  0.89792509  1  0  0.056431  0  3.707035  0  0  0.075507  0  3.945321  0  0  0.074039  0  3.968485  0  0  -0.017892  0.075623  0  3.930831  0
C  C41  1  0.64466344  0.23000837  0.10212945  1  0  0.057462  0  3.706056  0  0  0.075394  0  3.945629  0  0  0.073828  0  3.96904  0  0  -0.017517  0.075475  0  3.931265  0
C  C42  1  0.45730181  0.73008590  0.10207584  1  0  0.056436  0  3.706923  0  0  0.075315  0  3.945861  0  0  0.07403  0  3.96845  0  0  -0.017939  0.075617  0  3.930793  0
C  C43  1  0.35533672  0.76999167  0.89786940  1  0  0.057567  0  3.705968  0  0  0.075297  0  3.946251  0  0  0.073936  0  3.968972  0  0  -0.017487  0.07558  0  3.931206  0
C  C44  1  0.53683093  0.35506384  0.81409561  1  0  -0.084445  0  3.672445  0  0  -0.126533  0  3.93426  0  0  -0.124282  0  3.951369  0  0  -0.082126  -0.128104  0  3.923541  0
C  C45  1  0.72232903  0.14474913  0.18592745  1  0  -0.084942  0  3.672238  0  0  -0.12612  0  3.934185  0  0  -0.12389  0  3.951368  0  0  -0.081759  -0.127778  0  3.923675  0
C  C46  1  0.46316790  0.64493524  0.18590375  1  0  -0.084416  0  3.672442  0  0  -0.12673  0  3.934741  0  0  -0.124277  0  3.951379  0  0  -0.082112  -0.128103  0  3.923551  0
C  C47  1  0.27767383  0.85525379  0.81407193  1  0  -0.084989  0  3.672164  0  0  -0.126173  0  3.934117  0  0  -0.123935  0  3.951309  0  0  -0.081771  -0.127821  0  3.923614  0
C  C48  1  0.38018719  0.46993080  0.64283650  1  0  0.661657  0  3.899638  0  0  0.608084  0  4.192935  0  0  0.642606  0  4.187931  0  0  0.210445  0.584314  0  4.196126  0
C  C49  1  0.73656591  0.02998998  0.35722150  1  0  0.661394  0  3.900596  0  0  0.607277  0  4.194291  0  0  0.641828  0  4.189297  0  0  0.210283  0.583476  0  4.197403  0
C  C50  1  0.61981564  0.53006828  0.35716205  1  0  0.661643  0  3.899544  0  0  0.608067  0  4.192801  0  0  0.642586  0  4.187813  0  0  0.210423  0.584292  0  4.196011  0
C  C51  1  0.26343426  0.97001102  0.64277736  1  0  0.66137  0  3.900593  0  0  0.607242  0  4.194288  0  0  0.641793  0  4.189309  0  0  0.210236  0.58344  0  4.197411  0
C  C52  1  0.03635744  0.33389094  0.65060831  1  0  0.680916  0  3.875134  0  0  0.623127  0  4.176242  0  0  0.659332  0  4.167644  0  0  0.212614  0.598467  0  4.181148  0
C  C53  1  0.38516051  0.16605590  0.34921463  1  0  0.679422  0  3.876965  0  0  0.62271  0  4.176392  0  0  0.658933  0  4.167735  0  0  0.212906  0.598036  0  4.181295  0
C  C54  1  0.96364406  0.66610815  0.34939155  1  0  0.681017  0  3.875024  0  0  0.623226  0  4.176158  0  0  0.659422  0  4.167556  0  0  0.212636  0.598552  0  4.181061  0
C  C55  1  0.61484100  0.83394414  0.65078602  1  0  0.67959  0  3.876832  0  0  0.622863  0  4.176278  0  0  0.659087  0  4.167617  0  0  0.212978  0.598194  0  4.18117  0
C  C56  1  0.70706994  0.24994912  0.00005864  1  0  -0.267445  0  3.626799  0  0  -0.274736  0  3.851866  0  0  -0.281566  0  3.864877  0  0  -0.009592  -0.270729  0  3.845232  0
C  C57  1  0.29292755  0.75005188  0.99993894  1  0  -0.26746  0  3.626836  0  0  -0.275391  0  3.853275  0  0  -0.281697  0  3.865145  0  0  -0.009614  -0.270868  0  3.845491  0
C  C58  1  0.81080456  0.13230453  0.97519240  1  0  0.775477  0  3.611123  0  0  0.700102  0  3.956249  0  0  0.7303  0  3.932531  0  0  0.3031  0.677244  0  3.975492  0
C  C59  1  0.83569368  0.36761096  0.02497816  1  0  0.772279  0  3.617392  0  0  0.697478  0  3.961384  0  0  0.727648  0  3.937842  0  0  0.30204  0.674657  0  3.980573  0
C  C60  1  0.18919428  0.86769647  0.02480699  1  0  0.775322  0  3.611357  0  0  0.7  0  3.956358  0  0  0.730188  0  3.93272  0  0  0.303086  0.67715  0  3.97564  0
C  C61  1  0.16430248  0.63238908  0.97501994  1  0  0.772218  0  3.617577  0  0  0.695959  0  3.964108  0  0  0.727583  0  3.938041  0  0  0.302057  0.674632  0  3.980713  0
O  O62  1  0.52565762  0.48567668  0.62028701  1  0  -0.675317  0  2.062881  0  0  -0.606783  0  2.324815  0  0  -0.637164  0  2.313274  0  0  -0.330501  -0.585203  0  2.331787  0
O  O63  1  0.90461479  0.01409469  0.37977582  1  0  -0.675564  0  2.06527  0  0  -0.606775  0  2.32732  0  0  -0.637246  0  2.315827  0  0  -0.330238  -0.585211  0  2.334451  0
O  O64  1  0.47434658  0.51432528  0.37971338  1  0  -0.675322  0  2.062903  0  0  -0.606774  0  2.324801  0  0  -0.637165  0  2.313289  0  0  -0.33047  -0.585191  0  2.331775  0
O  O65  1  0.09538538  0.98590439  0.62022457  1  0  -0.675557  0  2.065347  0  0  -0.606751  0  2.327379  0  0  -0.637223  0  2.315892  0  0  -0.33021  -0.585182  0  2.334506  0
O  O66  1  0.23828066  0.53116101  0.59224696  1  0  -0.64723  0  2.029198  0  0  -0.573987  0  2.26796  0  0  -0.60376  0  2.257132  0  0  -0.306409  -0.553202  0  2.275007  0
O  O67  1  0.64532816  0.96897770  0.40798059  1  0  -0.64667  0  2.028256  0  0  -0.573313  0  2.266806  0  0  -0.603034  0  2.256066  0  0  -0.306431  -0.552603  0  2.273918  0
O  O68  1  0.76172219  0.46883904  0.40775317  1  0  -0.647219  0  2.0291  0  0  -0.573986  0  2.267862  0  0  -0.60376  0  2.25704  0  0  -0.306418  -0.553201  0  2.274918  0
O  O69  1  0.35467471  0.03102426  0.59202033  1  0  -0.646672  0  2.028221  0  0  -0.57331  0  2.266768  0  0  -0.60303  0  2.256034  0  0  -0.306414  -0.552589  0  2.273869  0
O  O70  1  0.93088688  0.40887546  0.67847992  1  0  -0.609655  0  1.950391  0  0  -0.54868  0  2.183943  0  0  -0.577362  0  2.172186  0  0  -0.306947  -0.528442  0  2.191269  0
O  O71  1  0.25165368  0.09113505  0.32131020  1  0  -0.608946  0  1.952495  0  0  -0.548225  0  2.185347  0  0  -0.576961  0  2.173652  0  0  -0.306544  -0.527962  0  2.192712  0
O  O72  1  0.06911330  0.59112554  0.32152050  1  0  -0.609695  0  1.95041  0  0  -0.548683  0  2.183864  0  0  -0.577387  0  2.172183  0  0  -0.306962  -0.528465  0  2.191266  0
O  O73  1  0.74834919  0.90886500  0.67869226  1  0  -0.609007  0  1.952475  0  0  -0.548287  0  2.185337  0  0  -0.577023  0  2.173643  0  0  -0.306574  -0.528024  0  2.192702  0
O  O74  1  0.98393569  0.26473403  0.56259692  1  0  -0.68926  0  2.075791  0  0  -0.609279  0  2.341507  0  0  -0.644342  0  2.329014  0  0  -0.324189  -0.584425  0  2.349067  0
O  O75  1  0.42103665  0.23509298  0.43728079  1  0  -0.688805  0  2.075698  0  0  -0.609331  0  2.340879  0  0  -0.644413  0  2.328485  0  0  -0.324628  -0.584435  0  2.348346  0
O  O76  1  0.01606583  0.73526506  0.43740450  1  0  -0.689311  0  2.075735  0  0  -0.609324  0  2.341478  0  0  -0.64439  0  2.32898  0  0  -0.324177  -0.584464  0  2.349029  0
O  O77  1  0.57896621  0.76490707  0.56272089  1  0  -0.688876  0  2.075613  0  0  -0.609397  0  2.340813  0  0  -0.644478  0  2.328415  0  0  -0.324661  -0.584502  0  2.348274  0
O  O78  1  0.33554808  0.82738187  0.35524243  1  0  -0.843039  0  1.864856  0  0  -0.787355  0  2.066171  0  0  -0.810693  0  2.035654  0  0  -0.589197  -0.770765  0  2.086701  0
O  O79  1  0.98052998  0.67265529  0.64479664  1  0  -0.843233  0  1.864952  0  0  -0.787206  0  2.06602  0  0  -0.810494  0  2.035505  0  0  -0.589586  -0.770649  0  2.08709  0
O  O80  1  0.66445210  0.17261913  0.64475721  1  0  -0.843068  0  1.864878  0  0  -0.787386  0  2.066197  0  0  -0.810723  0  2.035674  0  0  -0.58918  -0.770796  0  2.086733  0
O  O81  1  0.01947155  0.32734571  0.35520481  1  0  -0.843186  0  1.864952  0  0  -0.787157  0  2.066032  0  0  -0.810455  0  2.035523  0  0  -0.589579  -0.770605  0  2.087099  0
F  F82  1  0.71097457  0.02316860  0.96626882  1  0  -0.251961  0  1.196876  0  0  -0.204674  0  1.364558  0  0  -0.216659  0  1.35224  0  0  -0.084998  -0.190034  0  1.367106  0
F  F83  1  0.74473332  0.47671285  0.03387987  1  0  -0.250325  0  1.196731  0  0  -0.203672  0  1.364589  0  0  -0.215621  0  1.352238  0  0  -0.084622  -0.189153  0  1.367182  0
F  F84  1  0.28902697  0.97683242  0.03373575  1  0  -0.251925  0  1.196919  0  0  -0.20464  0  1.364556  0  0  -0.216621  0  1.352254  0  0  -0.085003  -0.190019  0  1.36713  0
F  F85  1  0.25526418  0.52328624  0.96612003  1  0  -0.25048  0  1.196874  0  0  -0.19715  0  1.358156  0  0  -0.215643  0  1.352286  0  0  -0.084645  -0.189187  0  1.367218  0
F  F86  1  0.96956533  0.11335990  0.05438068  1  0  -0.241736  0  1.190683  0  0  -0.211858  0  1.371586  0  0  -0.220826  0  1.354725  0  0  -0.094206  -0.20634  0  1.384296  0
F  F87  1  0.91533256  0.38666798  0.94583247  1  0  -0.241235  0  1.192751  0  0  -0.211554  0  1.373558  0  0  -0.22021  0  1.356312  0  0  -0.094055  -0.205712  0  1.385829  0
F  F88  1  0.03043753  0.88664397  0.94561793  1  0  -0.241666  0  1.190737  0  0  -0.211793  0  1.371605  0  0  -0.220757  0  1.354768  0  0  -0.094188  -0.206274  0  1.38433  0
F  F89  1  0.08466495  0.61333493  0.05416514  1  0  -0.241163  0  1.19286  0  0  -0.211889  0  1.373989  0  0  -0.220157  0  1.356432  0  0  -0.094046  -0.205672  0  1.38594  0
F  F90  1  0.84752992  0.14417838  0.87915470  1  0  -0.232463  0  1.195789  0  0  -0.201045  0  1.376668  0  0  -0.210493  0  1.36062  0  0  -0.089316  -0.194951  0  1.388467  0
F  F91  1  0.96848723  0.35577393  0.12101732  1  0  -0.232123  0  1.197611  0  0  -0.200626  0  1.378075  0  0  -0.210058  0  1.362019  0  0  -0.089232  -0.194506  0  1.389855  0
F  F92  1  0.15246621  0.85581782  0.12084335  1  0  -0.232452  0  1.195862  0  0  -0.201038  0  1.376697  0  0  -0.210486  0  1.360682  0  0  -0.089331  -0.194949  0  1.388523  0
F  F93  1  0.03150891  0.64422419  0.87898075  1  0  -0.232069  0  1.19761  0  0  -0.201315  0  1.378791  0  0  -0.210028  0  1.362032  0  0  -0.089241  -0.194487  0  1.389855  0
