# generated using pymatgen
data_GdZnH10C15NO10
_symmetry_space_group_name_H-M   'P 1'
_cell_length_a   7.78640571
_cell_length_b   10.20746716
_cell_length_c   11.63565850
_cell_angle_alpha   70.10922170
_cell_angle_beta   74.76517111
_cell_angle_gamma   79.80186184
_symmetry_Int_Tables_number   1
_chemical_formula_structural   GdZnH10C15NO10
_chemical_formula_sum   'Gd2 Zn2 H20 C30 N2 O20'
_cell_volume   835.13969459
_cell_formula_units_Z   2
loop_
 _symmetry_equiv_pos_site_id
 _symmetry_equiv_pos_as_xyz
  1  'x, y, z'
loop_
 _atom_site_type_symbol
 _atom_site_label
 _atom_site_symmetry_multiplicity
 _atom_site_fract_x
 _atom_site_fract_y
 _atom_site_fract_z
 _atom_site_occupancy
 _atom_site_hle17_bader_spin_density
 _atom_site_hle17_ddec_charge
 _atom_site_hle17_ddec_spin_density
 _atom_site_hle17_ddec_sum_bond_order
 _atom_site_hle17_magmom
 _atom_site_hse06_10hf_bader_spin_density
 _atom_site_hse06_10hf_ddec_charge
 _atom_site_hse06_10hf_ddec_spin_density
 _atom_site_hse06_10hf_ddec_sum_bond_order
 _atom_site_hse06_10hf_magmom
 _atom_site_hse06_bader_spin_density
 _atom_site_hse06_ddec_charge
 _atom_site_hse06_ddec_spin_density
 _atom_site_hse06_ddec_sum_bond_order
 _atom_site_hse06_magmom
 _atom_site_pbe_bader_spin_density
 _atom_site_pbe_cm5_charge
 _atom_site_pbe_ddec_charge
 _atom_site_pbe_ddec_spin_density
 _atom_site_pbe_ddec_sum_bond_order
 _atom_site_pbe_magmom
Gd  Gd0  1  0.36517721  0.45002262  0.67705448  1  0  2.20626  0  1.803562  0  0  2.125562  0  2.16461  0  0  2.181898  0  2.102286  0  0  1.448188  2.082062  0  2.214258  0
Gd  Gd1  1  0.63482388  0.54997948  0.32294457  1  0  2.206236  0  1.803545  0  0  2.125564  0  2.164557  0  0  2.181888  0  2.10225  0  0  1.448187  2.082084  0  2.214195  0
Zn  Zn2  1  0.34456622  0.24617876  0.46299436  1  0  1.11999  0  1.770176  0  0  0.943567  0  2.239156  0  0  0.991936  0  2.17978  0  0  0.70533  0.909488  0  2.2801  0
Zn  Zn3  1  0.65543490  0.75382332  0.53700641  1  0  1.119933  0  1.770186  0  0  0.943574  0  2.239171  0  0  0.991949  0  2.179798  0  0  0.705348  0.909484  0  2.280114  0
H  H4  1  0.94992899  0.10235764  0.83347399  1  0  0.096917  0  0.982248  0  0  0.104107  0  1.049858  0  0  0.106252  0  1.050081  0  0  0.100959  0.102551  0  1.049656  0
H  H5  1  0.05007016  0.89762974  0.16653405  1  0  0.096902  0  0.982421  0  0  0.104167  0  1.049936  0  0  0.10631  0  1.050165  0  0  0.100985  0.102614  0  1.049728  0
H  H6  1  0.71491522  0.95892009  0.99654482  1  0  0.104253  0  0.941398  0  0  0.114818  0  0.997526  0  0  0.117918  0  0.996925  0  0  0.104452  0.112488  0  0.998238  0
H  H7  1  0.28508150  0.04107564  0.00346292  1  0  0.104269  0  0.941421  0  0  0.114826  0  0.99755  0  0  0.117925  0  0.996948  0  0  0.104481  0.112501  0  0.998259  0
H  H8  1  0.53816138  0.04558008  0.17203053  1  0  0.100601  0  0.955151  0  0  0.109928  0  1.018211  0  0  0.112982  0  1.015958  0  0  0.106989  0.107758  0  1.019762  0
H  H9  1  0.46182643  0.95442191  0.82797184  1  0  0.10062  0  0.955132  0  0  0.109894  0  1.018239  0  0  0.112946  0  1.015993  0  0  0.106978  0.107723  0  1.019793  0
H  H10  1  0.82662673  0.41280259  0.02319762  1  0  0.129192  0  0.936517  0  0  0.136087  0  1.000492  0  0  0.141003  0  0.995643  0  0  0.115378  0.13248  0  1.004077  0
H  H11  1  0.17336945  0.58719633  0.97680240  1  0  0.129175  0  0.936513  0  0  0.136072  0  1.00047  0  0  0.14099  0  0.995617  0  0  0.115363  0.132434  0  1.004084  0
H  H12  1  0.73995300  0.90606715  0.73875669  1  0  0.112086  0  0.95983  0  0  0.122037  0  1.019484  0  0  0.125632  0  1.016744  0  0  0.112153  0.11933  0  1.021699  0
H  H13  1  0.26005287  0.09392872  0.26123989  1  0  0.112094  0  0.959801  0  0  0.122049  0  1.019447  0  0  0.125642  0  1.016709  0  0  0.112154  0.119337  0  1.021669  0
H  H14  1  0.04870005  0.80672759  0.76929508  1  0  0.121132  0  0.931943  0  0  0.13448  0  0.981176  0  0  0.137187  0  0.981453  0  0  0.119945  0.132524  0  0.981194  0
H  H15  1  0.95130661  0.19327246  0.23070184  1  0  0.121176  0  0.93186  0  0  0.134501  0  0.981123  0  0  0.137208  0  0.981401  0  0  0.119964  0.132544  0  0.981141  0
H  H16  1  0.30425001  0.95748176  0.65301692  1  0  0.094462  0  0.971092  0  0  0.097643  0  1.042241  0  0  0.100654  0  1.039574  0  0  0.120979  0.095409  0  1.044358  0
H  H17  1  0.69575519  0.04251932  0.34698082  1  0  0.094507  0  0.971102  0  0  0.097685  0  1.042242  0  0  0.100694  0  1.039578  0  0  0.120979  0.095454  0  1.044352  0
H  H18  1  0.27471812  0.48448051  0.44597173  1  0  0.426134  0  0.862676  0  0  0.404821  0  0.915481  0  0  0.413893  0  0.902185  0  0  0.305979  0.398174  0  0.925266  0
H  H19  1  0.72528135  0.51552367  0.55402701  1  0  0.426147  0  0.862689  0  0  0.404834  0  0.915466  0  0  0.413905  0  0.902173  0  0  0.305987  0.39819  0  0.925245  0
H  H20  1  0.54373429  0.25204511  0.88216721  1  0  0.424943  0  0.851408  0  0  0.397878  0  0.923455  0  0  0.405232  0  0.913128  0  0  0.312212  0.392692  0  0.930752  0
H  H21  1  0.45627713  0.74795916  0.11782759  1  0  0.424967  0  0.851409  0  0  0.397894  0  0.923433  0  0  0.405247  0  0.913108  0  0  0.312189  0.392709  0  0.93073  0
H  H22  1  0.42092611  0.36958299  0.93154035  1  0  0.440585  0  0.807228  0  0  0.419649  0  0.86688  0  0  0.427603  0  0.858108  0  0  0.328332  0.414109  0  0.872946  0
H  H23  1  0.57908962  0.63041920  0.06845686  1  0  0.440559  0  0.807194  0  0  0.419631  0  0.866845  0  0  0.427587  0  0.85807  0  0  0.328299  0.414094  0  0.872915  0
C  C24  1  0.05096703  0.34330962  0.82614080  1  0  0.646235  0  3.927401  0  0  0.60229  0  4.222842  0  0  0.636576  0  4.215369  0  0  0.189147  0.57919  0  4.226788  0
C  C25  1  0.94903970  0.65668095  0.17386664  1  0  0.646224  0  3.927365  0  0  0.602251  0  4.222858  0  0  0.636539  0  4.215383  0  0  0.18917  0.579162  0  4.226786  0
C  C26  1  0.89974785  0.26612954  0.91778768  1  0  -0.05726  0  3.740233  0  0  -0.028376  0  3.964671  0  0  -0.037796  0  3.986947  0  0  -0.012059  -0.022729  0  3.950088  0
C  C27  1  0.10024727  0.73386728  0.08221229  1  0  -0.057365  0  3.740328  0  0  -0.028484  0  3.964782  0  0  -0.037905  0  3.987061  0  0  -0.012064  -0.022834  0  3.950191  0
C  C28  1  0.86745465  0.13907913  0.90974396  1  0  -0.054955  0  3.717314  0  0  -0.081814  0  3.962309  0  0  -0.078641  0  3.981267  0  0  -0.075626  -0.083388  0  3.949332  0
C  C29  1  0.13253796  0.86091662  0.09025765  1  0  -0.054916  0  3.717269  0  0  -0.081861  0  3.962283  0  0  -0.078689  0  3.981239  0  0  -0.075645  -0.083436  0  3.949311  0
C  C30  1  0.73672668  0.05983649  0.00051207  1  0  -0.091287  0  3.763582  0  0  -0.097556  0  4.013288  0  0  -0.102988  0  4.033868  0  0  -0.090172  -0.094064  0  3.999239  0
C  C31  1  0.26326405  0.94016344  0.99948951  1  0  -0.091322  0  3.763446  0  0  -0.097578  0  4.013148  0  0  -0.103009  0  4.033727  0  0  -0.090217  -0.094086  0  3.999104  0
C  C32  1  0.63673793  0.10848335  0.09895464  1  0  -0.055495  0  3.727934  0  0  -0.083785  0  3.979627  0  0  -0.080398  0  3.997542  0  0  -0.076631  -0.085583  0  3.967341  0
C  C33  1  0.36325131  0.89151762  0.90104519  1  0  -0.055493  0  3.727896  0  0  -0.0837  0  3.979558  0  0  -0.08032  0  3.997459  0  0  -0.076597  -0.085501  0  3.967286  0
C  C34  1  0.66435448  0.23781809  0.10585875  1  0  -0.109085  0  3.788826  0  0  -0.083756  0  4.026245  0  0  -0.094583  0  4.050424  0  0  -0.026041  -0.077064  0  4.010171  0
C  C35  1  0.33563291  0.76218605  0.89413533  1  0  -0.109078  0  3.78902  0  0  -0.083822  0  4.02641  0  0  -0.094614  0  4.05054  0  0  -0.026066  -0.07713  0  4.010343  0
C  C36  1  0.56055928  0.28819512  0.21367409  1  0  0.689206  0  3.873996  0  0  0.638778  0  4.164631  0  0  0.674181  0  4.156145  0  0  0.226462  0.614901  0  4.169624  0
C  C37  1  0.43943319  0.71181113  0.78632102  1  0  0.688838  0  3.874333  0  0  0.638574  0  4.164802  0  0  0.673973  0  4.156312  0  0  0.226334  0.614681  0  4.169808  0
C  C38  1  0.79755829  0.31581712  0.01546138  1  0  -0.064359  0  3.673525  0  0  -0.099905  0  3.916683  0  0  -0.095846  0  3.93331  0  0  -0.069413  -0.10221  0  3.905641  0
C  C39  1  0.20243800  0.68418077  0.98453721  1  0  -0.06429  0  3.673568  0  0  -0.09979  0  3.91669  0  0  -0.095742  0  3.933306  0  0  -0.069394  -0.102069  0  3.905656  0
C  C40  1  0.96705018  0.31774682  0.44660217  1  0  0.656385  0  3.906855  0  0  0.607301  0  4.203019  0  0  0.641007  0  4.195027  0  0  0.228684  0.584129  0  4.208253  0
C  C41  1  0.03294554  0.68225624  0.55340273  1  0  0.656509  0  3.906922  0  0  0.607473  0  4.202988  0  0  0.641193  0  4.194965  0  0  0.228792  0.584285  0  4.208256  0
C  C42  1  0.97680673  0.17725060  0.54639344  1  0  0.078884  0  3.707587  0  0  0.071135  0  3.944274  0  0  0.073523  0  3.962902  0  0  0.118701  0.069288  0  3.932171  0
C  C43  1  0.02319033  0.82275247  0.45361208  1  0  0.078947  0  3.707492  0  0  0.071169  0  3.944187  0  0  0.073557  0  3.962811  0  0  0.118694  0.069323  0  3.932095  0
C  C44  1  0.82595277  0.10512092  0.61272491  1  0  -0.078435  0  3.659505  0  0  -0.061795  0  3.895498  0  0  -0.068814  0  3.914301  0  0  0.008433  -0.057515  0  3.883394  0
C  C45  1  0.17404896  0.89487695  0.38727957  1  0  -0.078528  0  3.659488  0  0  -0.061893  0  3.895457  0  0  -0.068918  0  3.914264  0  0  0.00841  -0.057611  0  3.883348  0
C  C46  1  0.63816784  0.17166367  0.60408169  1  0  0.728488  0  3.862235  0  0  0.672357  0  4.165202  0  0  0.709572  0  4.153002  0  0  0.237691  0.646796  0  4.17299  0
C  C47  1  0.36183649  0.82833424  0.39591886  1  0  0.728544  0  3.862255  0  0  0.672478  0  4.16509  0  0  0.709705  0  4.152871  0  0  0.237795  0.646921  0  4.172873  0
C  C48  1  0.85305859  0.96851161  0.69216018  1  0  -0.023355  0  3.664157  0  0  -0.053934  0  3.918832  0  0  -0.050578  0  3.934835  0  0  -0.061121  -0.056189  0  3.908344  0
C  C49  1  0.14694716  0.03148529  0.30783783  1  0  -0.023285  0  3.664025  0  0  -0.053869  0  3.91867  0  0  -0.050514  0  3.934677  0  0  -0.061091  -0.056117  0  3.90818  0
C  C50  1  0.02475487  0.91274538  0.70827544  1  0  -0.098382  0  3.684827  0  0  -0.112207  0  3.941817  0  0  -0.118178  0  3.96134  0  0  -0.071957  -0.108388  0  3.929055  0
C  C51  1  0.97525050  0.08725464  0.29172429  1  0  -0.098325  0  3.684704  0  0  -0.112157  0  3.941708  0  0  -0.118128  0  3.961231  0  0  -0.071973  -0.108338  0  3.928943  0
C  C52  1  0.16706980  0.99429107  0.64418364  1  0  0.150292  0  3.658664  0  0  0.110755  0  3.923831  0  0  0.119521  0  3.938173  0  0  0.057426  0.104833  0  3.914504  0
C  C53  1  0.83293531  0.00571104  0.35581639  1  0  0.150061  0  3.65876  0  0  0.110546  0  3.923929  0  0  0.119312  0  3.938276  0  0  0.057356  0.104624  0  3.9146  0
N  N54  1  0.14202306  0.12222462  0.56385426  1  0  -0.333528  0  3.330698  0  0  -0.25604  0  3.606931  0  0  -0.273658  0  3.619987  0  0  -0.317001  -0.244002  0  3.598253  0
N  N55  1  0.85797545  0.87777743  0.43614958  1  0  -0.333453  0  3.330679  0  0  -0.255984  0  3.606921  0  0  -0.273608  0  3.619983  0  0  -0.316975  -0.243948  0  3.598248  0
O  O56  1  0.09408520  0.44937315  0.84209176  1  0  -0.665606  0  1.945633  0  0  -0.629229  0  2.177026  0  0  -0.65392  0  2.167255  0  0  -0.374179  -0.611583  0  2.183162  0
O  O57  1  0.90591386  0.55062372  0.15790491  1  0  -0.665643  0  1.945521  0  0  -0.629252  0  2.176913  0  0  -0.653941  0  2.167141  0  0  -0.374218  -0.611618  0  2.183068  0
O  O58  1  0.13926814  0.29626182  0.73574480  1  0  -0.713169  0  1.948689  0  0  -0.679353  0  2.193548  0  0  -0.704921  0  2.184233  0  0  -0.404027  -0.661075  0  2.199602  0
O  O59  1  0.86074992  0.70372459  0.26426867  1  0  -0.713075  0  1.948656  0  0  -0.679251  0  2.193526  0  0  -0.704816  0  2.184207  0  0  -0.403957  -0.660974  0  2.199577  0
O  O60  1  0.58377819  0.40792415  0.21411032  1  0  -0.738624  0  2.070658  0  0  -0.692069  0  2.320848  0  0  -0.717677  0  2.307482  0  0  -0.393276  -0.673954  0  2.32984  0
O  O61  1  0.41622424  0.59207795  0.78588935  1  0  -0.738505  0  2.070807  0  0  -0.691967  0  2.32091  0  0  -0.717573  0  2.307542  0  0  -0.393229  -0.673845  0  2.3299  0
O  O62  1  0.45685390  0.20439978  0.30070311  1  0  -0.626987  0  2.07798  0  0  -0.55296  0  2.343098  0  0  -0.581385  0  2.328272  0  0  -0.301827  -0.533206  0  2.352643  0
O  O63  1  0.54312677  0.79561479  0.69928912  1  0  -0.626681  0  2.077884  0  0  -0.552854  0  2.343062  0  0  -0.58131  0  2.328284  0  0  -0.30174  -0.533063  0  2.352578  0
O  O64  1  0.10886519  0.37652054  0.39360135  1  0  -0.591348  0  1.978957  0  0  -0.534937  0  2.215231  0  0  -0.559329  0  2.202881  0  0  -0.29181  -0.517708  0  2.223585  0
O  O65  1  0.89113657  0.62347633  0.60639740  1  0  -0.591378  0  1.979  0  0  -0.534976  0  2.215236  0  0  -0.559373  0  2.202877  0  0  -0.291807  -0.517735  0  2.223577  0
O  O66  1  0.81310513  0.36434771  0.42294904  1  0  -0.712874  0  2.101159  0  0  -0.666604  0  2.355695  0  0  -0.695108  0  2.347426  0  0  -0.395377  -0.645928  0  2.361266  0
O  O67  1  0.18689287  0.63565850  0.57705710  1  0  -0.713049  0  2.101279  0  0  -0.66678  0  2.355791  0  0  -0.695292  0  2.347513  0  0  -0.39548  -0.646097  0  2.36137  0
O  O68  1  0.57396664  0.25515670  0.66805127  1  0  -0.728834  0  2.030448  0  0  -0.682104  0  2.279959  0  0  -0.710367  0  2.26893  0  0  -0.395071  -0.66177  0  2.287347  0
O  O69  1  0.42602975  0.74484016  0.33194503  1  0  -0.728863  0  2.030362  0  0  -0.682165  0  2.279842  0  0  -0.710429  0  2.268806  0  0  -0.395153  -0.661845  0  2.287247  0
O  O70  1  0.55732593  0.13245375  0.54207638  1  0  -0.61558  0  2.024488  0  0  -0.547689  0  2.288455  0  0  -0.576113  0  2.274227  0  0  -0.291662  -0.527695  0  2.297833  0
O  O71  1  0.44267613  0.86754102  0.45792379  1  0  -0.615527  0  2.024599  0  0  -0.547686  0  2.288563  0  0  -0.576113  0  2.274333  0  0  -0.291662  -0.527688  0  2.297935  0
O  O72  1  0.38347476  0.43191124  0.47147424  1  0  -1.115541  0  1.903066  0  0  -1.056253  0  2.164108  0  0  -1.085399  0  2.131145  0  0  -0.695565  -1.034398  0  2.187218  0
O  O73  1  0.61652485  0.56809190  0.52852392  1  0  -1.115554  0  1.903047  0  0  -1.056272  0  2.164067  0  0  -1.085414  0  2.131103  0  0  -0.695584  -1.034421  0  2.187176  0
O  O74  1  0.42593750  0.30500192  0.88511256  1  0  -0.851371  0  1.894809  0  0  -0.812842  0  2.080945  0  0  -0.830875  0  2.057956  0  0  -0.604654  -0.799792  0  2.097169  0
O  O75  1  0.57407246  0.69500338  0.11488307  1  0  -0.851345  0  1.894701  0  0  -0.812827  0  2.080752  0  0  -0.830861  0  2.057767  0  0  -0.604582  -0.799769  0  2.096978  0
