# generated using pymatgen
data_ZnH14C13NO4
_symmetry_space_group_name_H-M   'P 1'
_cell_length_a   6.19337830
_cell_length_b   12.06873941
_cell_length_c   12.25969152
_cell_angle_alpha   111.62471486
_cell_angle_beta   100.46159744
_cell_angle_gamma   89.48131265
_symmetry_Int_Tables_number   1
_chemical_formula_structural   ZnH14C13NO4
_chemical_formula_sum   'Zn2 H28 C26 N2 O8'
_cell_volume   836.02959603
_cell_formula_units_Z   2
loop_
 _symmetry_equiv_pos_site_id
 _symmetry_equiv_pos_as_xyz
  1  'x, y, z'
loop_
 _atom_site_type_symbol
 _atom_site_label
 _atom_site_symmetry_multiplicity
 _atom_site_fract_x
 _atom_site_fract_y
 _atom_site_fract_z
 _atom_site_occupancy
 _atom_site_hle17_bader_spin_density
 _atom_site_hle17_ddec_charge
 _atom_site_hle17_ddec_spin_density
 _atom_site_hle17_ddec_sum_bond_order
 _atom_site_hle17_magmom
 _atom_site_hse06_10hf_bader_spin_density
 _atom_site_hse06_10hf_ddec_charge
 _atom_site_hse06_10hf_ddec_spin_density
 _atom_site_hse06_10hf_ddec_sum_bond_order
 _atom_site_hse06_10hf_magmom
 _atom_site_hse06_bader_spin_density
 _atom_site_hse06_ddec_charge
 _atom_site_hse06_ddec_spin_density
 _atom_site_hse06_ddec_sum_bond_order
 _atom_site_hse06_magmom
 _atom_site_pbe_bader_spin_density
 _atom_site_pbe_cm5_charge
 _atom_site_pbe_ddec_charge
 _atom_site_pbe_ddec_spin_density
 _atom_site_pbe_ddec_sum_bond_order
 _atom_site_pbe_magmom
Zn  Zn0  1  0.51184467  0.59417852  0.95789206  1  0  1.028223  0  1.88444  0  0  0.858784  0  2.346417  0  0  0.9116  0  2.281653  0  0  0.670495  0.822052  0  2.390747  0
Zn  Zn1  1  0.48813620  0.40581918  0.04210459  1  0  1.028322  0  1.884362  0  0  0.858845  0  2.346353  0  0  0.911655  0  2.281588  0  0  0.670589  0.822115  0  2.390683  0
H  H2  1  0.68473492  0.25826787  0.65909380  1  0  0.073475  0  0.904945  0  0  0.089442  0  0.958113  0  0  0.090529  0  0.958654  0  0  0.104411  0.088667  0  0.95784  0
H  H3  1  0.31526723  0.74173553  0.34091482  1  0  0.073474  0  0.904821  0  0  0.089489  0  0.958057  0  0  0.090576  0  0.958603  0  0  0.104455  0.088713  0  0.957782  0
H  H4  1  0.90134987  0.42467603  0.67746927  1  0  0.081982  0  0.912969  0  0  0.092393  0  0.968082  0  0  0.095054  0  0.966407  0  0  0.101601  0.090472  0  0.969375  0
H  H5  1  0.09863760  0.57531930  0.32250982  1  0  0.081928  0  0.913051  0  0  0.092307  0  0.968168  0  0  0.094971  0  0.966497  0  0  0.101554  0.090387  0  0.969462  0
H  H6  1  0.99117555  0.24790761  0.52686306  1  0  0.058499  0  0.925491  0  0  0.076787  0  0.985262  0  0  0.078025  0  0.985114  0  0  0.085838  0.075894  0  0.985405  0
H  H7  1  0.00882705  0.75208254  0.47313312  1  0  0.058408  0  0.925487  0  0  0.076747  0  0.985188  0  0  0.077986  0  0.985038  0  0  0.08582  0.075856  0  0.985331  0
H  H8  1  0.24057367  0.33451301  0.60151080  1  0  0.071759  0  0.925015  0  0  0.090335  0  0.981101  0  0  0.091792  0  0.980955  0  0  0.090983  0.089239  0  0.981292  0
H  H9  1  0.75942203  0.66546944  0.39847290  1  0  0.071771  0  0.925046  0  0  0.090311  0  0.981144  0  0  0.091765  0  0.981002  0  0  0.090972  0.089217  0  0.981334  0
H  H10  1  0.32935771  0.20208677  0.71977599  1  0  0.071507  0  0.946882  0  0  0.089288  0  1.008803  0  0  0.089784  0  1.010144  0  0  0.087361  0.088865  0  1.007925  0
H  H11  1  0.67064704  0.79790888  0.28021595  1  0  0.071503  0  0.946847  0  0  0.0893  0  1.008784  0  0  0.089797  0  1.010125  0  0  0.087399  0.088876  0  1.007906  0
H  H12  1  0.28411436  0.11779482  0.56416456  1  0  0.052798  0  0.94083  0  0  0.07025  0  1.002497  0  0  0.071243  0  1.002203  0  0  0.082239  0.0695  0  1.002759  0
H  H13  1  0.71588134  0.88219176  0.43583381  1  0  0.052768  0  0.940877  0  0  0.070217  0  1.002574  0  0  0.071217  0  1.002272  0  0  0.08225  0.069468  0  1.002835  0
H  H14  1  0.89693558  0.06371796  0.56702184  1  0  0.050846  0  0.953719  0  0  0.070226  0  1.01685  0  0  0.070425  0  1.017731  0  0  0.08335  0.069994  0  1.016313  0
H  H15  1  0.10303733  0.93628394  0.43299217  1  0  0.050807  0  0.953661  0  0  0.070209  0  1.016835  0  0  0.070402  0  1.017723  0  0  0.083349  0.069973  0  1.016302  0
H  H16  1  0.08368518  0.01809667  0.66697160  1  0  0.050373  0  0.934041  0  0  0.068881  0  0.992882  0  0  0.07009  0  0.992767  0  0  0.079796  0.068026  0  0.992976  0
H  H17  1  0.91631498  0.98190117  0.33304370  1  0  0.050419  0  0.934152  0  0  0.068969  0  0.992985  0  0  0.07018  0  0.992873  0  0  0.079815  0.068113  0  0.993077  0
H  H18  1  0.02110095  0.19698744  0.83878789  1  0  0.072002  0  0.974606  0  0  0.084931  0  1.044453  0  0  0.085699  0  1.046005  0  0  0.083824  0.08434  0  1.04346  0
H  H19  1  0.97888014  0.80300922  0.16121409  1  0  0.072066  0  0.97469  0  0  0.084958  0  1.044558  0  0  0.085728  0  1.046112  0  0  0.083815  0.084365  0  1.043568  0
H  H20  1  0.76647934  0.11908827  0.75841895  1  0  0.059267  0  0.936448  0  0  0.075808  0  0.999182  0  0  0.077291  0  0.99827  0  0  0.081662  0.074744  0  0.999841  0
H  H21  1  0.23351506  0.88092592  0.24159652  1  0  0.059278  0  0.936316  0  0  0.075788  0  0.99906  0  0  0.077274  0  0.998144  0  0  0.081634  0.074725  0  0.999715  0
H  H22  1  0.47740438  0.85658052  0.06737353  1  0  0.092372  0  0.936592  0  0  0.100006  0  1.000578  0  0  0.102882  0  0.998139  0  0  0.123206  0.097843  0  1.002454  0
H  H23  1  0.52261180  0.14341018  0.93262877  1  0  0.092428  0  0.936608  0  0  0.100057  0  1.00059  0  0  0.102935  0  0.998144  0  0  0.123207  0.097885  0  1.002477  0
H  H24  1  0.70239013  0.04031713  0.10484691  1  0  0.10092  0  0.96021  0  0  0.113089  0  1.015709  0  0  0.115924  0  1.015377  0  0  0.109974  0.111053  0  1.016106  0
H  H25  1  0.29763124  0.95968548  0.89518162  1  0  0.10094  0  0.960248  0  0  0.113079  0  1.015776  0  0  0.115918  0  1.01544  0  0  0.109927  0.111013  0  1.016207  0
H  H26  1  0.11658841  0.81477762  0.87383043  1  0  0.11027  0  0.945179  0  0  0.123801  0  0.997864  0  0  0.126829  0  0.997077  0  0  0.115425  0.121593  0  0.998656  0
H  H27  1  0.88340340  0.18522011  0.12615889  1  0  0.110281  0  0.945227  0  0  0.123798  0  0.997901  0  0  0.126827  0  0.997113  0  0  0.115445  0.121588  0  0.998698  0
H  H28  1  0.87741746  0.64280183  0.84944496  1  0  0.108152  0  0.93636  0  0  0.112902  0  1.00081  0  0  0.115976  0  0.997875  0  0  0.127663  0.110567  0  1.003055  0
H  H29  1  0.12257398  0.35719827  0.15055750  1  0  0.108095  0  0.936355  0  0  0.112851  0  1.000792  0  0  0.115921  0  0.997868  0  0  0.127673  0.110519  0  1.003035  0
C  C30  1  0.71562747  0.36355657  0.84111715  1  0  0.691366  0  3.801573  0  0  0.637885  0  4.103074  0  0  0.672938  0  4.095942  0  0  0.220926  0.614039  0  4.107197  0
C  C31  1  0.28437061  0.63644625  0.15888114  1  0  0.691471  0  3.801304  0  0  0.637917  0  4.103042  0  0  0.673018  0  4.095847  0  0  0.220912  0.614061  0  4.107183  0
C  C32  1  0.82119586  0.28556147  0.73769361  1  0  -0.115918  0  3.609433  0  0  -0.120996  0  3.846938  0  0  -0.126432  0  3.861148  0  0  -0.083741  -0.117415  0  3.837385  0
C  C33  1  0.17881022  0.71444734  0.26231331  1  0  -0.11557  0  3.608919  0  0  -0.121009  0  3.846941  0  0  -0.126461  0  3.861155  0  0  -0.083756  -0.117427  0  3.837391  0
C  C34  1  0.99007499  0.36058848  0.71032473  1  0  -0.124525  0  3.60237  0  0  -0.131132  0  3.842735  0  0  -0.136224  0  3.855785  0  0  -0.088018  -0.127643  0  3.833749  0
C  C35  1  0.00993650  0.63941176  0.28966051  1  0  -0.124437  0  3.602718  0  0  -0.130955  0  3.842913  0  0  -0.136044  0  3.855979  0  0  -0.087948  -0.127459  0  3.833918  0
C  C36  1  0.11034667  0.28018398  0.61232024  1  0  -0.10456  0  3.657656  0  0  -0.148952  0  3.919195  0  0  -0.149657  0  3.933266  0  0  -0.159445  -0.148321  0  3.909392  0
C  C37  1  0.88964252  0.71980653  0.38767018  1  0  -0.10463  0  3.657893  0  0  -0.148966  0  3.919334  0  0  -0.149669  0  3.93341  0  0  -0.1594  -0.148336  0  3.909531  0
C  C38  1  0.20285920  0.17208736  0.63740302  1  0  -0.114266  0  3.694845  0  0  -0.152253  0  3.958716  0  0  -0.153491  0  3.97382  0  0  -0.172812  -0.151243  0  3.948229  0
C  C39  1  0.79712616  0.82789578  0.36259487  1  0  -0.114045  0  3.694811  0  0  -0.152081  0  3.958787  0  0  -0.153321  0  3.973895  0  0  -0.172884  -0.151075  0  3.948299  0
C  C40  1  0.01899728  0.09746557  0.65134481  1  0  -0.102571  0  3.710699  0  0  -0.140633  0  3.974173  0  0  -0.141823  0  3.989459  0  0  -0.170347  -0.139661  0  3.963518  0
C  C41  1  0.98098699  0.90252917  0.34865993  1  0  -0.10263  0  3.710472  0  0  -0.140818  0  3.974106  0  0  -0.142014  0  3.989405  0  0  -0.170408  -0.139842  0  3.963446  0
C  C42  1  0.90585484  0.17152646  0.75315906  1  0  -0.123476  0  3.698688  0  0  -0.169486  0  3.960514  0  0  -0.169817  0  3.973884  0  0  -0.176647  -0.169095  0  3.951254  0
C  C43  1  0.09412806  0.82848189  0.24684431  1  0  -0.123723  0  3.698567  0  0  -0.169528  0  3.960356  0  0  -0.169858  0  3.973733  0  0  -0.176607  -0.16914  0  3.951091  0
C  C44  1  0.15971527  0.43420436  0.82025957  1  0  0.688877  0  3.804304  0  0  0.640262  0  4.099792  0  0  0.674457  0  4.093682  0  0  0.212789  0.617008  0  4.103214  0
C  C45  1  0.84032439  0.56578540  0.17973025  1  0  0.688727  0  3.804485  0  0  0.640435  0  4.099458  0  0  0.674602  0  4.093391  0  0  0.213042  0.617175  0  4.102881  0
C  C46  1  0.61831359  0.85323104  0.02444691  1  0  0.127558  0  3.700392  0  0  0.095149  0  3.956043  0  0  0.102148  0  3.9739  0  0  0.05297  0.090646  0  3.943945  0
C  C47  1  0.38170804  0.14677210  0.97556062  1  0  0.12738  0  3.700414  0  0  0.094965  0  3.956074  0  0  0.101963  0  3.973936  0  0  0.052938  0.090466  0  3.943968  0
C  C48  1  0.74703973  0.95506700  0.04526118  1  0  -0.157729  0  3.723754  0  0  -0.176188  0  3.972941  0  0  -0.184425  0  3.99551  0  0  -0.077672  -0.170831  0  3.957714  0
C  C49  1  0.25296347  0.04493565  0.95474070  1  0  -0.157609  0  3.723721  0  0  -0.176041  0  3.972879  0  0  -0.184281  0  3.995451  0  0  -0.077594  -0.170661  0  3.957667  0
C  C50  1  0.93019100  0.94646193  0.99030454  1  0  0.09197  0  3.751009  0  0  0.102902  0  3.982977  0  0  0.106779  0  4.005234  0  0  0.015799  0.100459  0  3.967765  0
C  C51  1  0.06982264  0.05353140  0.00970267  1  0  0.092023  0  3.750757  0  0  0.102948  0  3.982723  0  0  0.106827  0  4.004976  0  0  0.015839  0.100504  0  3.967509  0
C  C52  1  0.97543182  0.83131697  0.91789094  1  0  -0.141056  0  3.6755  0  0  -0.160517  0  3.922231  0  0  -0.168055  0  3.942864  0  0  -0.070194  -0.15569  0  3.90845  0
C  C53  1  0.02456697  0.16867856  0.08210948  1  0  -0.141055  0  3.675226  0  0  -0.160485  0  3.921915  0  0  -0.168024  0  3.942544  0  0  -0.070189  -0.155659  0  3.908139  0
C  C54  1  0.84032781  0.73314132  0.90192953  1  0  0.159931  0  3.637984  0  0  0.127483  0  3.888351  0  0  0.135435  0  3.90479  0  0  0.066843  0.122284  0  3.877348  0
C  C55  1  0.15967530  0.26685756  0.09807904  1  0  0.159746  0  3.637931  0  0  0.127308  0  3.888294  0  0  0.135258  0  3.904737  0  0  0.066653  0.122108  0  3.877287  0
N  N56  1  0.66233285  0.74390052  0.95296246  1  0  -0.299954  0  3.2542  0  0  -0.21925  0  3.522796  0  0  -0.237923  0  3.536118  0  0  -0.320397  -0.206811  0  3.513821  0
N  N57  1  0.33765482  0.25610079  0.04703038  1  0  -0.299876  0  3.254115  0  0  -0.219194  0  3.522746  0  0  -0.237869  0  3.536071  0  0  -0.320361  -0.206741  0  3.513752  0
O  O58  1  0.68006255  0.46914528  0.84613970  1  0  -0.638486  0  2.089107  0  0  -0.572607  0  2.353057  0  0  -0.60196  0  2.339876  0  0  -0.315796  -0.552168  0  2.361348  0
O  O59  1  0.31994944  0.53086368  0.15385792  1  0  -0.638551  0  2.08922  0  0  -0.572544  0  2.353159  0  0  -0.6019  0  2.339931  0  0  -0.315747  -0.552105  0  2.361466  0
O  O60  1  0.66398584  0.31751563  0.91188169  1  0  -0.635962  0  2.073017  0  0  -0.57143  0  2.343454  0  0  -0.60063  0  2.331193  0  0  -0.315759  -0.551099  0  2.351212  0
O  O61  1  0.33602916  0.68249849  0.08812469  1  0  -0.636022  0  2.07294  0  0  -0.571434  0  2.343425  0  0  -0.600657  0  2.331153  0  0  -0.315741  -0.551098  0  2.351186  0
O  O62  1  0.22232345  0.38927103  0.89851222  1  0  -0.644122  0  2.084317  0  0  -0.575516  0  2.339725  0  0  -0.604752  0  2.329447  0  0  -0.312758  -0.555241  0  2.346189  0
O  O63  1  0.77770482  0.61074724  0.10146491  1  0  -0.644252  0  2.083494  0  0  -0.575852  0  2.338901  0  0  -0.60509  0  2.328643  0  0  -0.312979  -0.555565  0  2.345355  0
O  O64  1  0.23528911  0.53439409  0.82460479  1  0  -0.639553  0  1.984321  0  0  -0.581633  0  2.238488  0  0  -0.609695  0  2.224393  0  0  -0.333597  -0.562055  0  2.247536  0
O  O65  1  0.76469545  0.46562282  0.17538079  1  0  -0.639402  0  1.985065  0  0  -0.581602  0  2.239094  0  0  -0.609648  0  2.225014  0  0  -0.333642  -0.562031  0  2.248148  0
