# generated using pymatgen
data_AlH7C16O7
_symmetry_space_group_name_H-M   'P 1'
_cell_length_a   6.69732627
_cell_length_b   21.92755165
_cell_length_c   25.09957141
_cell_angle_alpha   95.80835660
_cell_angle_beta   90.00013339
_cell_angle_gamma   90.00106153
_symmetry_Int_Tables_number   1
_chemical_formula_structural   AlH7C16O7
_chemical_formula_sum   'Al4 H28 C64 O28'
_cell_volume   3667.09766187
_cell_formula_units_Z   4
loop_
 _symmetry_equiv_pos_site_id
 _symmetry_equiv_pos_as_xyz
  1  'x, y, z'
loop_
 _atom_site_type_symbol
 _atom_site_label
 _atom_site_symmetry_multiplicity
 _atom_site_fract_x
 _atom_site_fract_y
 _atom_site_fract_z
 _atom_site_occupancy
 _atom_site_pbe_bader_charge
 _atom_site_pbe_bader_spin_density
 _atom_site_pbe_cm5_charge
 _atom_site_pbe_ddec_charge
 _atom_site_pbe_ddec_spin_density
 _atom_site_pbe_ddec_sum_bond_order
 _atom_site_pbe_magmom
Al  Al0  1  0.78554751  0.24855320  0.25016682  1  2.502523  0  0.404528  1.650538  0  2.57861  0
Al  Al1  1  0.21677382  0.75102581  0.74992275  1  2.500684  0  0.402859  1.6397  0  2.584203  0
Al  Al2  1  0.28554508  0.25144741  0.24983366  1  2.502524  0  0.404449  1.650403  0  2.57888  0
Al  Al3  1  0.71677478  0.74897397  0.75007701  1  2.500702  0  0.402905  1.639704  0  2.58414  0
H  H4  1  0.72667360  0.42273942  0.47955882  1  0.109267  0  0.116764  0.118879  0  0.982598  0
H  H5  1  0.26983339  0.57401502  0.52324980  1  0.113636  0  0.121718  0.131278  0  0.978429  0
H  H6  1  0.22667797  0.07725821  0.02043839  1  0.109373  0  0.116729  0.118836  0  0.982628  0
H  H7  1  0.76982770  0.92598656  0.97675122  1  0.113716  0  0.1217  0.131264  0  0.978492  0
H  H8  1  0.29895183  0.46900472  0.08120647  1  0.096891  0  0.1155  0.123846  0  0.97763  0
H  H9  1  0.69594578  0.53459244  0.92206991  1  0.075189  0  0.110289  0.116532  0  1.000846  0
H  H10  1  0.79894250  0.03099670  0.41879243  1  0.096964  0  0.115483  0.123899  0  0.97776  0
H  H11  1  0.19594291  0.96540689  0.57793103  1  0.075214  0  0.110268  0.116511  0  1.000784  0
H  H12  1  0.32344477  0.39618790  0.15150255  1  0.097831  0  0.113114  0.113843  0  0.986005  0
H  H13  1  0.67355663  0.60654412  0.85080549  1  0.12248  0  0.115119  0.119162  0  0.984887  0
H  H14  1  0.82343926  0.10381302  0.34849477  1  0.097887  0  0.113136  0.113861  0  0.986038  0
H  H15  1  0.17357241  0.89345618  0.64919702  1  0.122504  0  0.11509  0.119138  0  0.984903  0
H  H16  1  0.72504027  0.33335841  0.11403836  1  0.122687  0  0.116468  0.123322  0  0.995399  0
H  H17  1  0.27972518  0.66249271  0.88263126  1  0.100982  0  0.114934  0.117494  0  0.998781  0
H  H18  1  0.22503686  0.16663994  0.38596125  1  0.122748  0  0.116475  0.123313  0  0.995491  0
H  H19  1  0.77972291  0.83750966  0.61736417  1  0.101051  0  0.114904  0.117654  0  0.998987  0
H  H20  1  0.53032804  0.46084081  0.54701675  1  0.027142  0  0.097217  0.024894  0  0.971622  0
H  H21  1  0.35032882  0.46495080  0.39902331  1  0.059202  0  0.108202  0.05039  0  0.96376  0
H  H22  1  0.03033836  0.03915792  0.95298084  1  0.027265  0  0.097249  0.024951  0  0.971708  0
H  H23  1  0.85032741  0.03505037  0.10097485  1  0.059167  0  0.108225  0.050372  0  0.963858  0
H  H24  1  0.65300820  0.43609854  0.00355625  1  0.077981  0  0.102042  0.042993  0  0.979779  0
H  H25  1  0.46451765  0.63046950  0.94986873  1  0.049374  0  0.095415  0.025577  0  0.982404  0
H  H26  1  0.15300099  0.06389524  0.49644288  1  0.077815  0  0.102  0.04289  0  0.979868  0
H  H27  1  0.96450777  0.86953248  0.55012611  1  0.049414  0  0.095469  0.025647  0  0.98244  0
H  H28  1  0.54169298  0.33033713  0.24980232  1  0.595409  0  0.359521  0.438777  0  0.839149  0
H  H29  1  0.46340709  0.67360576  0.72442514  1  0.644385  0  0.358237  0.439643  0  0.841703  0
H  H30  1  0.04168408  0.16966180  0.25019548  1  0.59538  0  0.359532  0.438778  0  0.839178  0
H  H31  1  0.96341448  0.82639361  0.77557490  1  0.64444  0  0.358247  0.439723  0  0.841544  0
C  C32  1  0.53259402  0.17974851  0.31820504  1  1.564686  0  0.271598  0.649499  0  4.089624  0
C  C33  1  0.46888072  0.82074082  0.68193675  1  1.59036  0  0.266532  0.638371  0  4.11048  0
C  C34  1  0.03260115  0.32025101  0.18179436  1  1.564403  0  0.271585  0.649445  0  4.089634  0
C  C35  1  0.96887207  0.67926169  0.81806249  1  1.590531  0  0.266432  0.638219  0  4.110888  0
C  C36  1  0.53363093  0.17350135  0.17335200  1  1.697327  0  0.274677  0.70871  0  4.171402  0
C  C37  1  0.46820661  0.82547583  0.82706167  1  1.692677  0  0.28075  0.718353  0  4.154706  0
C  C38  1  0.03364866  0.32649995  0.32665101  1  1.697077  0  0.274585  0.708666  0  4.171444  0
C  C39  1  0.96818594  0.67452010  0.67293997  1  1.692822  0  0.280843  0.718398  0  4.154538  0
C  C40  1  0.82415686  0.49940103  0.53331987  1  0.028858  0  0.003861  0.001343  0  3.921983  0
C  C41  1  0.16961772  0.49795271  0.46938567  1  -0.023905  0  -0.00435  -0.01692  0  3.95547  0
C  C42  1  0.32416047  0.00059725  0.96667924  1  0.029055  0  0.003825  0.001381  0  3.921536  0
C  C43  1  0.66961368  0.00204751  0.03061708  1  -0.024108  0  -0.004417  -0.017046  0  3.95533  0
C  C44  1  0.97820778  0.54321605  0.54637857  1  0.130241  0  0.029429  0.128102  0  4.020394  0
C  C45  1  0.01606998  0.45425505  0.45634031  1  0.099456  0  0.018959  0.111704  0  4.069404  0
C  C46  1  0.47821067  0.95678195  0.95362068  1  0.130279  0  0.029428  0.128132  0  4.020309  0
C  C47  1  0.51607320  0.04574688  0.04366107  1  0.099418  0  0.019114  0.111948  0  4.06938  0
C  C48  1  0.14950523  0.54113305  0.51392144  1  0.014212  0  -0.049402  -0.111821  0  3.857617  0
C  C49  1  0.84601182  0.45589171  0.48927267  1  -0.061986  0  -0.055224  -0.120552  0  3.897372  0
C  C50  1  0.64949714  0.95886652  0.98607985  1  0.0142  0  -0.04936  -0.111776  0  3.857554  0
C  C51  1  0.34602156  0.04410857  0.01072587  1  -0.062083  0  -0.055219  -0.120652  0  3.89726  0
C  C52  1  0.96564614  0.58870627  0.59038424  1  -0.413728  0  -0.008547  -0.009554  0  4.061051  0
C  C53  1  0.02868541  0.40988741  0.41141648  1  -0.394713  0  -0.022035  -0.047891  0  4.101791  0
C  C54  1  0.46564736  0.91129106  0.90961780  1  -0.413785  0  -0.008597  -0.009617  0  4.06099  0
C  C55  1  0.52869023  0.09011564  0.08858212  1  -0.393416  0  -0.022123  -0.048039  0  4.101898  0
C  C56  1  0.03082223  0.37107256  0.37310627  1  0.126316  0  -0.023099  -0.162612  0  3.92193  0
C  C57  1  0.97019561  0.62913285  0.62736396  1  0.201348  0  -0.019614  -0.166246  0  3.903703  0
C  C58  1  0.53081780  0.12892604  0.12689713  1  0.124898  0  -0.023064  -0.162504  0  3.92188  0
C  C59  1  0.47021794  0.87086533  0.87263728  1  0.201311  0  -0.019532  -0.166214  0  3.903574  0
C  C60  1  0.17488651  0.43904005  0.08888264  1  0.044452  0  -0.066576  -0.099533  0  3.909312  0
C  C61  1  0.82288681  0.56292220  0.91323438  1  0.013346  0  -0.073009  -0.121244  0  3.927893  0
C  C62  1  0.67488491  0.06096412  0.41111852  1  0.044067  0  -0.066535  -0.099673  0  3.909588  0
C  C63  1  0.32288976  0.93707719  0.58676470  1  0.013427  0  -0.07295  -0.12118  0  3.927873  0
C  C64  1  0.18739344  0.39888867  0.12805113  1  -0.03763  0  -0.063187  -0.058146  0  3.945387  0
C  C65  1  0.81056204  0.60287654  0.87375896  1  -0.076129  0  -0.06753  -0.072826  0  3.958376  0
C  C66  1  0.68738648  0.10111261  0.37194804  1  -0.037766  0  -0.06333  -0.058192  0  3.94542  0
C  C67  1  0.31056739  0.89712322  0.62624010  1  -0.076157  0  -0.067474  -0.072688  0  3.95832  0
C  C68  1  0.02423022  0.36134012  0.13810453  1  0.031294  0  -0.009037  -0.046892  0  3.972998  0
C  C69  1  0.97607987  0.63850475  0.86215230  1  0.003719  0  -0.010019  -0.035816  0  3.966542  0
C  C70  1  0.52422545  0.13866168  0.36189526  1  0.031111  0  -0.009041  -0.047015  0  3.973098  0
C  C71  1  0.47608614  0.86149688  0.63784696  1  0.003846  0  -0.010007  -0.03589  0  3.966598  0
C  C72  1  0.85152146  0.36281734  0.10704757  1  -0.086063  0  -0.062335  -0.092041  0  3.915917  0
C  C73  1  0.15136868  0.63467016  0.89181810  1  -0.052346  0  -0.063015  -0.104634  0  3.937022  0
C  C74  1  0.35151632  0.13718033  0.39295178  1  -0.08604  0  -0.062389  -0.092081  0  3.916131  0
C  C75  1  0.65137548  0.86533129  0.60817959  1  -0.053027  0  -0.063002  -0.104893  0  3.937371  0
C  C76  1  0.83899507  0.40134409  0.06615635  1  -0.003255  0  -0.012616  -0.02962  0  3.958226  0
C  C77  1  0.16549570  0.59584332  0.93252601  1  -0.037493  0  -0.014893  -0.036576  0  3.96826  0
C  C78  1  0.33899839  0.09865510  0.43384499  1  -0.003281  0  -0.012525  -0.029551  0  3.9582  0
C  C79  1  0.66549853  0.90415812  0.56747090  1  -0.036881  0  -0.014867  -0.036517  0  3.968241  0
C  C80  1  0.00106035  0.44097422  0.05727263  1  0.070688  0  0.020534  0.12165  0  4.062172  0
C  C81  1  0.99923628  0.55845488  0.94340380  1  0.124934  0  0.022953  0.137687  0  4.042168  0
C  C82  1  0.50106040  0.05902703  0.44272754  1  0.071233  0  0.020607  0.121819  0  4.062269  0
C  C83  1  0.49923626  0.94154593  0.55659508  1  0.124931  0  0.022988  0.137674  0  4.042016  0
C  C84  1  0.99407559  0.48144252  0.01704713  1  0.037142  0  -0.025478  -0.086497  0  4.084994  0
C  C85  1  0.00417245  0.51768936  0.98327581  1  -0.305745  0  -0.024818  -0.07174  0  4.084001  0
C  C86  1  0.49407447  0.01856026  0.48295399  1  0.036512  0  -0.025618  -0.086681  0  4.085143  0
C  C87  1  0.50417512  0.98231352  0.51672172  1  -0.305473  0  -0.024799  -0.071661  0  4.083904  0
C  C88  1  0.63368691  0.49825715  0.56342054  1  0.973362  0  0.103088  0.272298  0  3.979453  0
C  C89  1  0.35129008  0.49817528  0.43567864  1  0.961411  0  0.103683  0.266508  0  3.95326  0
C  C90  1  0.13368287  0.00174053  0.93657876  1  0.973199  0  0.102964  0.272141  0  3.979244  0
C  C91  1  0.85129230  0.00182366  0.06432391  1  0.961007  0  0.103727  0.26665  0  3.953107  0
C  C92  1  0.65857811  0.40035378  0.03210146  1  0.926157  0  0.096938  0.268182  0  3.967806  0
C  C93  1  0.35705583  0.59498839  0.96134865  1  0.91438  0  0.094412  0.267497  0  3.998477  0
C  C94  1  0.15857731  0.09963875  0.46789847  1  0.92605  0  0.097033  0.268379  0  3.967675  0
C  C95  1  0.85704950  0.90501461  0.53864847  1  0.91447  0  0.094248  0.267271  0  3.998827  0
O  O96  1  0.36416394  0.19193532  0.19128189  1  -1.228201  0  -0.225843  -0.57592  0  2.283491  0
O  O97  1  0.63738392  0.80674345  0.80891524  1  -1.237018  0  -0.224456  -0.582263  0  2.287566  0
O  O98  1  0.86417797  0.30806023  0.30872228  1  -1.228154  0  -0.225798  -0.575861  0  2.283332  0
O  O99  1  0.13736698  0.69325217  0.69108803  1  -1.237029  0  -0.224526  -0.582408  0  2.287589  0
O  O100  1  0.70400903  0.19323433  0.30055092  1  -1.252992  0  -0.235415  -0.596939  0  2.327245  0
O  O101  1  0.29741346  0.80736280  0.69947286  1  -1.256275  0  -0.236333  -0.592472  0  2.331529  0
O  O102  1  0.20401550  0.30676349  0.19944506  1  -1.25302  0  -0.235354  -0.596905  0  2.327411  0
O  O103  1  0.79740546  0.69263648  0.80052659  1  -1.256444  0  -0.236208  -0.592333  0  2.331788  0
O  O104  1  0.70502973  0.18903509  0.19194489  1  -1.22673  0  -0.227274  -0.578292  0  2.282345  0
O  O105  1  0.29777979  0.80858050  0.80864151  1  -1.238284  0  -0.221962  -0.574981  0  2.282657  0
O  O106  1  0.20504487  0.31097066  0.30805270  1  -1.226872  0  -0.227222  -0.578265  0  2.282454  0
O  O107  1  0.79776927  0.69141924  0.69135794  1  -1.238418  0  -0.221892  -0.574847  0  2.282611  0
O  O108  1  0.86550172  0.30234600  0.19883330  1  -1.256517  0  -0.235166  -0.598656  0  2.357725  0
O  O109  1  0.13706744  0.69634979  0.80121769  1  -1.253259  0  -0.23538  -0.591528  0  2.360027  0
O  O110  1  0.36549796  0.19765708  0.30116888  1  -1.256594  0  -0.23509  -0.598572  0  2.357711  0
O  O111  1  0.63707128  0.80365281  0.69878279  1  -1.253268  0  -0.235401  -0.591599  0  2.360138  0
O  O112  1  0.53715701  0.28650881  0.25175184  1  -1.396737  0  -0.446475  -0.997488  0  2.206204  0
O  O113  1  0.46558386  0.71257968  0.74652251  1  -1.443176  0  -0.448195  -0.99301  0  2.176878  0
O  O114  1  0.03715375  0.21349028  0.24824756  1  -1.396714  0  -0.4465  -0.997479  0  2.206233  0
O  O115  1  0.96558869  0.78742007  0.75347673  1  -1.443203  0  -0.448205  -0.9931  0  2.17678  0
O  O116  1  0.58614232  0.53364020  0.60203820  1  -1.057982  0  -0.244138  -0.32582  0  2.11561  0
O  O117  1  0.49533967  0.53168723  0.44659375  1  -1.065867  0  -0.255203  -0.348258  0  2.125859  0
O  O118  1  0.08613634  0.96635531  0.89796261  1  -1.058039  0  -0.244018  -0.325702  0  2.115285  0
O  O119  1  0.99534181  0.96831315  0.05340854  1  -1.065493  0  -0.255264  -0.348349  0  2.125729  0
O  O120  1  0.52191052  0.36340104  0.03435492  1  -1.065533  0  -0.267373  -0.362466  0  2.12176  0
O  O121  1  0.40454848  0.55971946  0.99411763  1  -1.069873  0  -0.261467  -0.357464  0  2.132787  0
O  O122  1  0.02190598  0.13659139  0.46564285  1  -1.065276  0  -0.267407  -0.362509  0  2.121654  0
O  O123  1  0.90454103  0.94028180  0.50587794  1  -1.070061  0  -0.261383  -0.357324  0  2.13296  0
