# generated using pymatgen
data_CdH14C12S2N4O
_symmetry_space_group_name_H-M   'P 1'
_cell_length_a   9.70661791
_cell_length_b   10.55187359
_cell_length_c   16.20200000
_cell_angle_alpha   90.00000000
_cell_angle_beta   90.00000000
_cell_angle_gamma   105.28426445
_symmetry_Int_Tables_number   1
_chemical_formula_structural   CdH14C12S2N4O
_chemical_formula_sum   'Cd4 H56 C48 S8 N16 O4'
_cell_volume   1600.76226987
_cell_formula_units_Z   4
loop_
 _symmetry_equiv_pos_site_id
 _symmetry_equiv_pos_as_xyz
  1  'x, y, z'
loop_
 _atom_site_type_symbol
 _atom_site_label
 _atom_site_symmetry_multiplicity
 _atom_site_fract_x
 _atom_site_fract_y
 _atom_site_fract_z
 _atom_site_occupancy
 _atom_site_hle17_bader_spin_density
 _atom_site_hle17_ddec_charge
 _atom_site_hle17_ddec_spin_density
 _atom_site_hle17_ddec_sum_bond_order
 _atom_site_hle17_magmom
 _atom_site_hse06_10hf_bader_spin_density
 _atom_site_hse06_10hf_ddec_charge
 _atom_site_hse06_10hf_ddec_spin_density
 _atom_site_hse06_10hf_ddec_sum_bond_order
 _atom_site_hse06_10hf_magmom
 _atom_site_hse06_bader_spin_density
 _atom_site_hse06_ddec_charge
 _atom_site_hse06_ddec_spin_density
 _atom_site_hse06_ddec_sum_bond_order
 _atom_site_hse06_magmom
 _atom_site_pbe_bader_charge
 _atom_site_pbe_bader_spin_density
 _atom_site_pbe_cm5_charge
 _atom_site_pbe_ddec_charge
 _atom_site_pbe_ddec_spin_density
 _atom_site_pbe_ddec_sum_bond_order
 _atom_site_pbe_magmom
Cd  Cd0  1  0.73814607  0.45147038  0.58627268  1  0  1.003544  0  1.993894  0  0  0.831435  0  2.472522  0  0  0.876418  0  2.431521  0  1.196155  0  0.723969  0.800545  0  2.499359  0
Cd  Cd1  1  0.26184984  0.04852902  0.08627083  1  0  1.003608  0  1.99371  0  0  0.83147  0  2.472383  0  0  0.876451  0  2.431381  0  1.196165  0  0.724009  0.80058  0  2.499218  0
Cd  Cd2  1  0.26185228  0.54853038  0.41372979  1  0  1.003617  0  1.993699  0  0  0.831509  0  2.472337  0  0  0.876491  0  2.431339  0  1.196165  0  0.724022  0.800619  0  2.499175  0
Cd  Cd3  1  0.73814794  0.95146978  0.91372608  1  0  1.003545  0  1.99383  0  0  0.83144  0  2.472454  0  0  0.876423  0  2.431454  0  1.196096  0  0.723959  0.800551  0  2.49929  0
H  H4  1  0.58515480  0.17834385  0.65850327  1  0  0.091692  0  0.950655  0  0  0.096767  0  1.022321  0  0  0.100173  0  1.018452  0  0.102542  0  0.118486  0.094084  0  1.025456  0
H  H5  1  0.41484598  0.32165457  0.15850327  1  0  0.091644  0  0.950694  0  0  0.096711  0  1.022376  0  0  0.100119  0  1.018504  0  0.102514  0  0.118458  0.094029  0  1.025511  0
H  H6  1  0.41484682  0.82165397  0.34149735  1  0  0.091703  0  0.950619  0  0  0.096737  0  1.022342  0  0  0.100144  0  1.018469  0  0.102496  0  0.118467  0.094054  0  1.025477  0
H  H7  1  0.58515255  0.67834325  0.84149549  1  0  0.091665  0  0.950644  0  0  0.096727  0  1.022337  0  0  0.100129  0  1.018468  0  0.102515  0  0.118464  0.094045  0  1.025473  0
H  H8  1  0.39853789  0.73080402  0.76241205  1  0  0.063834  0  0.931836  0  0  0.080598  0  0.993877  0  0  0.081346  0  0.992752  0  0.056845  0  0.104352  0.079867  0  0.994985  0
H  H9  1  0.60146214  0.76919909  0.26241020  1  0  0.063794  0  0.931873  0  0  0.080576  0  0.993876  0  0  0.081319  0  0.992755  0  0.056959  0  0.104359  0.079848  0  0.994982  0
H  H10  1  0.60146336  0.26919969  0.23759042  1  0  0.063819  0  0.931839  0  0  0.080596  0  0.993857  0  0  0.081341  0  0.992731  0  0.056982  0  0.104363  0.079874  0  0.994965  0
H  H11  1  0.39853855  0.23080266  0.73758733  1  0  0.063783  0  0.931877  0  0  0.080565  0  0.993897  0  0  0.081314  0  0.992773  0  0.05682  0  0.104333  0.079834  0  0.995005  0
H  H12  1  0.26395349  0.74627758  0.69219047  1  0  0.059107  0  0.958105  0  0  0.075641  0  1.022703  0  0  0.075535  0  1.023466  0  0.065436  0  0.099195  0.075578  0  1.022272  0
H  H13  1  0.73604739  0.75372847  0.19218985  1  0  0.059134  0  0.9581  0  0  0.075638  0  1.022721  0  0  0.075534  0  1.023477  0  0.065399  0  0.099202  0.075576  0  1.02229  0
H  H14  1  0.73604804  0.25372711  0.30781076  1  0  0.059161  0  0.958039  0  0  0.075672  0  1.02266  0  0  0.075561  0  1.02343  0  0.065376  0  0.099215  0.075614  0  1.022232  0
H  H15  1  0.26395386  0.24627524  0.80780891  1  0  0.059173  0  0.95804  0  0  0.075685  0  1.02266  0  0  0.075583  0  1.02342  0  0.065257  0  0.099207  0.075622  0  1.022228  0
H  H16  1  0.36970220  0.93132566  0.83981731  1  0  0.112866  0  0.95745  0  0  0.132065  0  1.01953  0  0  0.132957  0  1.020636  0  0.054414  0  0.087301  0.131331  0  1.018879  0
H  H17  1  0.63029634  0.56867941  0.33981669  1  0  0.112846  0  0.957463  0  0  0.132025  0  1.019566  0  0  0.132916  0  1.020672  0  0.054757  0  0.087304  0.131291  0  1.018915  0
H  H18  1  0.63029728  0.06867903  0.16018331  1  0  0.112882  0  0.957446  0  0  0.132062  0  1.019548  0  0  0.132954  0  1.020654  0  0.054769  0  0.087315  0.131328  0  1.018896  0
H  H19  1  0.36970416  0.43132528  0.66018208  1  0  0.112864  0  0.957441  0  0  0.132063  0  1.019526  0  0  0.132956  0  1.020631  0  0.054726  0  0.087302  0.131329  0  1.018874  0
H  H20  1  0.22670382  0.93840420  0.77218738  1  0  0.092837  0  0.969691  0  0  0.111487  0  1.037516  0  0  0.112463  0  1.038256  0  0.026753  0  0.079767  0.110694  0  1.037218  0
H  H21  1  0.77329369  0.56160087  0.27218677  1  0  0.092841  0  0.969764  0  0  0.111495  0  1.03757  0  0  0.112473  0  1.038307  0  0.026803  0  0.079777  0.110701  0  1.037279  0
H  H22  1  0.77329640  0.06159951  0.22781447  1  0  0.092842  0  0.969741  0  0  0.111493  0  1.037562  0  0  0.11247  0  1.038299  0  0.026803  0  0.079757  0.110697  0  1.03727  0
H  H23  1  0.22670578  0.43840382  0.72781385  1  0  0.092849  0  0.969672  0  0  0.111499  0  1.037495  0  0  0.112477  0  1.038233  0  0.026771  0  0.079774  0.110703  0  1.037202  0
H  H24  1  0.21093681  0.80184977  0.83853105  1  0  0.098513  0  0.956126  0  0  0.120996  0  1.018064  0  0  0.121097  0  1.019901  0  0.016466  0  0.085513  0.12101  0  1.016624  0
H  H25  1  0.78906350  0.69815432  0.33853043  1  0  0.09854  0  0.95613  0  0  0.121017  0  1.018065  0  0  0.121112  0  1.01991  0  0.016448  0  0.085522  0.121031  0  1.016627  0
H  H26  1  0.78906472  0.19815492  0.16147019  1  0  0.098555  0  0.956097  0  0  0.121027  0  1.01804  0  0  0.121127  0  1.019879  0  0.016447  0  0.085527  0.121041  0  1.016599  0
H  H27  1  0.21093644  0.30184841  0.66146772  1  0  0.098512  0  0.956088  0  0  0.12099  0  1.018039  0  0  0.121088  0  1.019882  0  0.016456  0  0.085517  0.121005  0  1.016599  0
H  H28  1  0.85390190  0.91166097  0.66569189  1  0  0.108153  0  0.939463  0  0  0.118363  0  0.999519  0  0  0.121634  0  0.996435  0  0.138216  0  0.105458  0.115824  0  1.001993  0
H  H29  1  0.14609748  0.58833624  0.16569127  1  0  0.108127  0  0.939517  0  0  0.118345  0  0.999563  0  0  0.121611  0  0.996481  0  0.138234  0  0.105472  0.115809  0  1.002038  0
H  H30  1  0.14609944  0.08833586  0.33430688  1  0  0.108173  0  0.939473  0  0  0.118378  0  0.999533  0  0  0.121648  0  0.996448  0  0.138248  0  0.105461  0.115839  0  1.002007  0
H  H31  1  0.85390340  0.41166256  0.83430749  1  0  0.108182  0  0.939525  0  0  0.118396  0  0.999571  0  0  0.121662  0  0.996488  0  0.138217  0  0.105454  0.115859  0  1.002046  0
H  H32  1  0.04206014  0.08479119  0.59192013  1  0  0.10604  0  0.94804  0  0  0.1194  0  1.002438  0  0  0.122262  0  1.002311  0  0.082111  0  0.110471  0.11753  0  1.002536  0
H  H33  1  0.95793989  0.41520821  0.09191890  1  0  0.106039  0  0.948002  0  0  0.1194  0  1.002415  0  0  0.122261  0  1.002288  0  0.082109  0  0.11046  0.117529  0  1.002513  0
H  H34  1  0.95794101  0.91520859  0.40808110  1  0  0.106063  0  0.947986  0  0  0.119423  0  1.002397  0  0  0.122283  0  1.002271  0  0.082143  0  0.110478  0.117553  0  1.002495  0
H  H35  1  0.04206071  0.58478960  0.90808295  1  0  0.105999  0  0.948044  0  0  0.119349  0  1.002465  0  0  0.12221  0  1.002339  0  0.082453  0  0.110459  0.117478  0  1.002563  0
H  H36  1  0.99019091  0.29907496  0.55764165  1  0  0.083934  0  0.949114  0  0  0.089776  0  1.017441  0  0  0.091565  0  1.016286  0  0.128689  0  0.116036  0.088403  0  1.018326  0
H  H37  1  0.00980883  0.20092346  0.05764165  1  0  0.083962  0  0.949124  0  0  0.089803  0  1.017431  0  0  0.091591  0  1.016276  0  0.128716  0  0.116036  0.08843  0  1.018316  0
H  H38  1  0.00981230  0.70092482  0.44236020  1  0  0.083886  0  0.949148  0  0  0.089763  0  1.017427  0  0  0.091555  0  1.016269  0  0.128753  0  0.116035  0.088393  0  1.01831  0
H  H39  1  0.99018810  0.79907239  0.94235959  1  0  0.083882  0  0.949141  0  0  0.089748  0  1.017441  0  0  0.091539  0  1.016284  0  0.128728  0  0.116022  0.088377  0  1.018326  0
H  H40  1  0.37330835  0.81497135  0.56833539  1  0  0.073762  0  0.925872  0  0  0.089678  0  0.989432  0  0  0.089123  0  0.990935  0  0.092457  0  0.105223  0.089804  0  0.988604  0
H  H41  1  0.62669421  0.68502979  0.06833416  1  0  0.073765  0  0.9259  0  0  0.089666  0  0.989458  0  0  0.089112  0  0.990962  0  0.092443  0  0.105227  0.089771  0  0.988647  0
H  H42  1  0.62669412  0.18502941  0.43166646  1  0  0.073782  0  0.925889  0  0  0.089689  0  0.989441  0  0  0.08916  0  0.990917  0  0.092435  0  0.105224  0.089794  0  0.988633  0
H  H43  1  0.37330900  0.31496999  0.93166399  1  0  0.073733  0  0.925888  0  0  0.089652  0  0.989467  0  0  0.089099  0  0.990969  0  0.092462  0  0.105219  0.089758  0  0.988657  0
H  H44  1  0.51090164  0.96203110  0.56336502  1  0  0.05669  0  0.965694  0  0  0.07595  0  1.026788  0  0  0.075382  0  1.028662  0  0.04359  0  0.104124  0.076256  0  1.025659  0
H  H45  1  0.48909624  0.53796808  0.06336378  1  0  0.05668  0  0.965713  0  0  0.075922  0  1.026798  0  0  0.075368  0  1.028658  0  0.043684  0  0.104122  0.076227  0  1.025666  0
H  H46  1  0.48909849  0.03796868  0.43663622  1  0  0.05669  0  0.965711  0  0  0.075938  0  1.026803  0  0  0.07537  0  1.028683  0  0.043698  0  0.104122  0.076244  0  1.025672  0
H  H47  1  0.51090538  0.46202973  0.93663437  1  0  0.056656  0  0.965701  0  0  0.075929  0  1.026798  0  0  0.075362  0  1.028675  0  0.043745  0  0.104124  0.076235  0  1.025667  0
H  H48  1  0.27397644  0.00017782  0.52734848  1  0  0.099529  0  0.97018  0  0  0.117703  0  1.038671  0  0  0.117857  0  1.041073  0  0.065738  0  0.084903  0.117616  0  1.036773  0
H  H49  1  0.72602359  0.49982157  0.02734909  1  0  0.099526  0  0.970204  0  0  0.11771  0  1.038692  0  0  0.117863  0  1.041097  0  0.065738  0  0.084888  0.117621  0  1.036794  0
H  H50  1  0.72602471  0.99982196  0.47265152  1  0  0.099526  0  0.970181  0  0  0.117718  0  1.038657  0  0  0.117873  0  1.041058  0  0.065727  0  0.084901  0.11763  0  1.036758  0
H  H51  1  0.27398038  0.50017722  0.97265091  1  0  0.099483  0  0.970227  0  0  0.117664  0  1.038724  0  0  0.117816  0  1.041129  0  0.065665  0  0.084893  0.117576  0  1.036827  0
H  H52  1  0.34187168  0.08865810  0.61830576  1  0  0.103027  0  0.96082  0  0  0.123762  0  1.02397  0  0  0.124637  0  1.0245  0  0.070455  0  0.088456  0.123006  0  1.023698  0
H  H53  1  0.65812741  0.41134522  0.11830576  1  0  0.103059  0  0.960807  0  0  0.123786  0  1.023966  0  0  0.124661  0  1.024496  0  0.070486  0  0.088479  0.12303  0  1.023694  0
H  H54  1  0.65812900  0.91134364  0.38169547  1  0  0.103054  0  0.960835  0  0  0.123784  0  1.023985  0  0  0.124659  0  1.024515  0  0.070482  0  0.088469  0.123029  0  1.023715  0
H  H55  1  0.34187328  0.58865652  0.88169424  1  0  0.103024  0  0.960815  0  0  0.123758  0  1.023965  0  0  0.124633  0  1.024494  0  0.070464  0  0.088466  0.123002  0  1.023695  0
H  H56  1  0.20414537  0.93859970  0.62488273  1  0  0.103145  0  0.950218  0  0  0.126235  0  1.007935  0  0  0.127359  0  1.008077  0  0.036299  0  0.090993  0.125156  0  1.008222  0
H  H57  1  0.79585588  0.56140045  0.12488211  1  0  0.103125  0  0.950264  0  0  0.126214  0  1.007981  0  0  0.127338  0  1.008124  0  0.036296  0  0.090988  0.125135  0  1.008269  0
H  H58  1  0.79585550  0.06139909  0.37511850  1  0  0.103142  0  0.950254  0  0  0.126225  0  1.007975  0  0  0.12735  0  1.008117  0  0.036297  0  0.090994  0.125147  0  1.008262  0
H  H59  1  0.20414659  0.43860031  0.87511727  1  0  0.103136  0  0.950217  0  0  0.126221  0  1.007941  0  0  0.127344  0  1.008083  0  0.036304  0  0.091004  0.125142  0  1.008229  0
C  C60  1  0.91264174  0.43727793  0.40397420  1  0  0.295823  0  4.027134  0  0  0.277346  0  4.329667  0  0  0.298935  0  4.343813  0  0.572266  0  0.14692  0.262665  0  4.31936  0
C  C61  1  0.08735866  0.06272638  0.90397111  1  0  0.29572  0  4.027208  0  0  0.277242  0  4.32975  0  0  0.298833  0  4.343898  0  0.572183  0  0.146881  0.262561  0  4.319436  0
C  C62  1  0.08735670  0.56272676  0.59602950  1  0  0.295801  0  4.027142  0  0  0.277331  0  4.329665  0  0  0.298924  0  4.343812  0  0.572189  0  0.146912  0.262649  0  4.319356  0
C  C63  1  0.91264184  0.93727831  0.09602518  1  0  0.295751  0  4.027062  0  0  0.277276  0  4.329605  0  0  0.298864  0  4.343751  0  0.572309  0  0.146849  0.262594  0  4.319294  0
C  C64  1  0.30223117  0.98966147  0.59218800  1  0  -0.31214  0  3.691618  0  0  -0.387409  0  3.937201  0  0  -0.389931  0  3.947446  0  -0.13073  0  -0.246305  -0.385213  0  3.929935  0
C  C65  1  0.69777139  0.51033967  0.09218800  1  0  -0.312115  0  3.691727  0  0  -0.387405  0  3.937289  0  0  -0.38993  0  3.94754  0  -0.130763  0  -0.246299  -0.385206  0  3.930013  0
C  C66  1  0.69777026  0.01033929  0.40781262  1  0  -0.312147  0  3.691741  0  0  -0.387426  0  3.937299  0  0  -0.38995  0  3.947551  0  -0.130765  0  -0.246316  -0.385228  0  3.930026  0
C  C67  1  0.30223108  0.48966109  0.90781138  1  0  -0.312059  0  3.691671  0  0  -0.387314  0  3.937263  0  0  -0.389833  0  3.947513  0  -0.13066  0  -0.246292  -0.385116  0  3.929993  0
C  C68  1  0.34776874  0.80132318  0.73372485  1  0  0.060088  0  3.640704  0  0  0.005321  0  3.899367  0  0  0.011425  0  3.910396  0  0.289631  0  -0.062812  0.001333  0  3.891906  0
C  C69  1  0.65223026  0.69867993  0.23372361  1  0  0.060155  0  3.640741  0  0  0.005419  0  3.899383  0  0  0.011532  0  3.910397  0  0.28976  0  -0.062783  0.001425  0  3.891928  0
C  C70  1  0.65223223  0.19867955  0.26627762  1  0  0.060109  0  3.640702  0  0  0.00536  0  3.899352  0  0  0.011479  0  3.910353  0  0.289639  0  -0.06279  0.001345  0  3.891925  0
C  C71  1  0.34777043  0.30132182  0.76627453  1  0  0.060074  0  3.640733  0  0  0.005304  0  3.899415  0  0  0.011401  0  3.91045  0  0.289922  0  -0.062815  0.001317  0  3.891954  0
C  C72  1  0.28571219  0.87335138  0.79961795  1  0  -0.311744  0  3.699932  0  0  -0.388506  0  3.943958  0  0  -0.391653  0  3.955473  0  -0.03952  0  -0.251558  -0.38614  0  3.936102  0
C  C73  1  0.71428607  0.62665271  0.29961733  1  0  -0.31178  0  3.700054  0  0  -0.388559  0  3.944168  0  0  -0.391704  0  3.955686  0  -0.039984  0  -0.251621  -0.386195  0  3.936316  0
C  C74  1  0.71428700  0.12665233  0.20038329  1  0  -0.311827  0  3.700033  0  0  -0.388593  0  3.944123  0  0  -0.391745  0  3.955635  0  -0.039872  0  -0.251606  -0.386222  0  3.936277  0
C  C75  1  0.28571312  0.37335100  0.70038205  1  0  -0.31173  0  3.699857  0  0  -0.388493  0  3.943904  0  0  -0.391637  0  3.955421  0  -0.039814  0  -0.251547  -0.386127  0  3.93605  0
C  C76  1  0.42676726  0.33126979  0.48743365  1  0  0.316794  0  3.976129  0  0  0.2991  0  4.272978  0  0  0.32078  0  4.287315  0  0.57527  0  0.153977  0.284709  0  4.262284  0
C  C77  1  0.57322481  0.16873059  0.98742933  1  0  0.316897  0  3.976062  0  0  0.299194  0  4.272924  0  0  0.320877  0  4.287255  0  0.57492  0  0.154007  0.284805  0  4.262228  0
C  C78  1  0.57322285  0.66873097  0.51257314  1  0  0.31686  0  3.975986  0  0  0.299162  0  4.27284  0  0  0.320843  0  4.287173  0  0.574983  0  0.154021  0.284771  0  4.262148  0
C  C79  1  0.42676707  0.83126919  0.01256203  1  0  0.317023  0  3.975984  0  0  0.299336  0  4.272815  0  0  0.321017  0  4.287145  0  0.574722  0  0.154123  0.284946  0  4.26212  0
C  C80  1  0.68358462  0.15182658  0.64397111  1  0  0.11417  0  3.666018  0  0  0.074074  0  3.914783  0  0  0.08308  0  3.930537  0  0.533735  0  0.051245  0.068304  0  3.904222  0
C  C81  1  0.31641747  0.34817281  0.14397235  1  0  0.114172  0  3.66597  0  0  0.074082  0  3.914741  0  0  0.083087  0  3.930498  0  0.533718  0  0.051256  0.068312  0  3.90418  0
C  C82  1  0.31641831  0.84817221  0.35602950  1  0  0.114115  0  3.666001  0  0  0.074047  0  3.914801  0  0  0.083053  0  3.930555  0  0.533677  0  0.051245  0.068277  0  3.904239  0
C  C83  1  0.68358369  0.65182696  0.85602703  1  0  0.114198  0  3.66595  0  0  0.074117  0  3.914718  0  0  0.083128  0  3.930464  0  0.53359  0  0.051265  0.068344  0  3.90416  0
C  C84  1  0.70212577  0.02895374  0.66461363  1  0  -0.095825  0  3.76575  0  0  -0.06962  0  4.005763  0  0  -0.08023  0  4.027419  0  -0.028383  0  -0.007704  -0.063412  0  3.991893  0
C  C85  1  0.29787660  0.47104665  0.16461425  1  0  -0.095756  0  3.765723  0  0  -0.069574  0  4.005745  0  0  -0.080186  0  4.027403  0  -0.028454  0  -0.007688  -0.063365  0  3.991877  0
C  C86  1  0.29787642  0.97104604  0.33538575  1  0  -0.095709  0  3.765717  0  0  -0.06952  0  4.00574  0  0  -0.080127  0  4.027388  0  -0.028261  0  -0.007681  -0.063313  0  3.991871  0
C  C87  1  0.70212633  0.52895215  0.83538699  1  0  -0.095735  0  3.76573  0  0  -0.069536  0  4.005733  0  0  -0.080145  0  4.027381  0  -0.028224  0  -0.007661  -0.063328  0  3.991865  0
C  C88  1  0.83446557  0.00478452  0.64776879  1  0  -0.011299  0  3.703693  0  0  -0.042667  0  3.956765  0  0  -0.036378  0  3.971454  0  -0.028396  0  -0.063636  -0.046447  0  3.947226  0
C  C89  1  0.16553783  0.49521586  0.14776879  1  0  -0.011145  0  3.703754  0  0  -0.042512  0  3.956828  0  0  -0.036219  0  3.971513  0  -0.028399  0  -0.063589  -0.046297  0  3.94729  0
C  C90  1  0.16553765  0.99521526  0.35223244  1  0  -0.011318  0  3.703786  0  0  -0.042671  0  3.956856  0  0  -0.036384  0  3.971546  0  -0.028506  0  -0.063623  -0.046448  0  3.94731  0
C  C91  1  0.83446669  0.50478490  0.85223059  1  0  -0.011452  0  3.70389  0  0  -0.042835  0  3.956986  0  0  -0.036545  0  3.971671  0  -0.02841  0  -0.063678  -0.046615  0  3.94744  0
C  C92  1  0.93895512  0.10105071  0.60759166  1  0  -0.11948  0  3.734281  0  0  -0.129557  0  3.984855  0  0  -0.137028  0  4.004613  0  -0.026002  0  -0.081533  -0.125363  0  3.971966  0
C  C93  1  0.06104650  0.39895066  0.10759351  1  0  -0.119528  0  3.734384  0  0  -0.129634  0  3.984974  0  0  -0.137104  0  4.004728  0  -0.025988  0  -0.081536  -0.125439  0  3.972086  0
C  C94  1  0.06104810  0.89894907  0.39240773  1  0  -0.119512  0  3.73427  0  0  -0.1296  0  3.984873  0  0  -0.137073  0  4.00463  0  -0.02602  0  -0.081531  -0.125406  0  3.971983  0
C  C95  1  0.93895596  0.60105010  0.89240896  1  0  -0.11936  0  3.734193  0  0  -0.129421  0  3.984764  0  0  -0.136893  0  4.004522  0  -0.026356  0  -0.081478  -0.125227  0  3.971875  0
C  C96  1  0.91099441  0.22060091  0.58845389  1  0  0.131617  0  3.691968  0  0  0.098725  0  3.943826  0  0  0.107188  0  3.961389  0  0.469104  0  0.051931  0.093453  0  3.932004  0
C  C97  1  0.08900487  0.27939947  0.08845451  1  0  0.131504  0  3.692077  0  0  0.098654  0  3.943893  0  0  0.107117  0  3.961457  0  0.469099  0  0.051903  0.093383  0  3.932067  0
C  C98  1  0.08900544  0.77939788  0.41154487  1  0  0.131688  0  3.691929  0  0  0.098783  0  3.943804  0  0  0.107247  0  3.961366  0  0.469097  0  0.051936  0.09351  0  3.931981  0
C  C99  1  0.91099347  0.72060130  0.91154549  1  0  0.13171  0  3.691923  0  0  0.098803  0  3.943776  0  0  0.107267  0  3.961339  0  0.469096  0  0.051957  0.09353  0  3.931955  0
C  C100  1  0.59004465  0.93116748  0.71176707  1  0  0.4975  0  3.83482  0  0  0.44028  0  4.128975  0  0  0.471448  0  4.128795  0  1.385377  0  0.243335  0.419582  0  4.128177  0
C  C101  1  0.40995379  0.56883366  0.21176707  1  0  0.49744  0  3.834848  0  0  0.440254  0  4.128971  0  0  0.47142  0  4.128799  0  1.385401  0  0.24331  0.419556  0  4.128176  0
C  C102  1  0.40995576  0.06883328  0.28823232  1  0  0.497444  0  3.834952  0  0  0.440231  0  4.129108  0  0  0.471398  0  4.128931  0  1.385866  0  0.243329  0.419533  0  4.12831  0
C  C103  1  0.59004587  0.43116809  0.78823232  1  0  0.497425  0  3.834665  0  0  0.440213  0  4.128819  0  0  0.471375  0  4.12865  0  1.385836  0  0.243272  0.419517  0  4.128022  0
C  C104  1  0.41419886  0.91209620  0.59723738  1  0  0.046408  0  3.663508  0  0  -0.014503  0  3.932223  0  0  -0.009096  0  3.945466  0  0.296439  0  -0.062817  -0.01811  0  3.923123  0
C  C105  1  0.58580005  0.58790298  0.09723676  1  0  0.046358  0  3.663649  0  0  -0.014496  0  3.932312  0  0  -0.009101  0  3.945555  0  0.296324  0  -0.062843  -0.01808  0  3.923204  0
C  C106  1  0.58580202  0.08790260  0.40276386  1  0  0.046314  0  3.663684  0  0  -0.014567  0  3.932369  0  0  -0.009181  0  3.945612  0  0.296313  0  -0.062843  -0.018156  0  3.923267  0
C  C107  1  0.41419904  0.41209680  0.90276200  1  0  0.046508  0  3.663444  0  0  -0.014445  0  3.932208  0  0  -0.00905  0  3.945462  0  0.296313  0  -0.062829  -0.018035  0  3.923109  0
S  S108  1  0.01860928  0.42278191  0.32839217  1  0  -0.353007  0  2.147143  0  0  -0.317982  0  2.458367  0  0  -0.335661  0  2.452675  0  0.045986  0  -0.149682  -0.305449  0  2.462381  0
S  S109  1  0.98139010  0.07722240  0.82838662  1  0  -0.352974  0  2.147104  0  0  -0.31796  0  2.458359  0  0  -0.335643  0  2.452668  0  0.045874  0  -0.149686  -0.305427  0  2.46237  0
S  S110  1  0.98138785  0.57722180  0.67161523  1  0  -0.353002  0  2.147087  0  0  -0.317994  0  2.458344  0  0  -0.335678  0  2.452652  0  0.045797  0  -0.149711  -0.305463  0  2.462355  0
S  S111  1  0.01860881  0.92278032  0.17160844  1  0  -0.353009  0  2.147073  0  0  -0.317977  0  2.458295  0  0  -0.335657  0  2.452603  0  0.045959  0  -0.149682  -0.305444  0  2.462307  0
S  S112  1  0.30080235  0.30961172  0.41783237  1  0  -0.359718  0  2.184089  0  0  -0.325173  0  2.504821  0  0  -0.343981  0  2.497952  0  0.042822  0  -0.152384  -0.312537  0  2.509147  0
S  S113  1  0.69918569  0.19038179  0.91782311  1  0  -0.359761  0  2.184098  0  0  -0.325215  0  2.504833  0  0  -0.344019  0  2.497964  0  0.042821  0  -0.152391  -0.312579  0  2.509159  0
S  S114  1  0.69918859  0.69038118  0.58217874  1  0  -0.359825  0  2.184046  0  0  -0.325282  0  2.504785  0  0  -0.344088  0  2.497915  0  0.042732  0  -0.152448  -0.312644  0  2.509112  0
S  S115  1  0.30079926  0.80960817  0.08216393  1  0  -0.359782  0  2.183992  0  0  -0.325245  0  2.504724  0  0  -0.344051  0  2.497852  0  0.042665  0  -0.152414  -0.312608  0  2.509049  0
N  N116  1  0.83395989  0.44917243  0.45735465  1  0  -0.534379  0  2.886884  0  0  -0.480669  0  3.164765  0  0  -0.502165  0  3.172238  0  -1.283438  0  -0.391408  -0.465628  0  3.158628  0
N  N117  1  0.16604286  0.05083286  0.95735156  1  0  -0.53431  0  2.886919  0  0  -0.480611  0  3.164825  0  0  -0.502099  0  3.172279  0  -1.283275  0  -0.391378  -0.465577  0  3.158699  0
N  N118  1  0.16603987  0.55083324  0.54264844  1  0  -0.534377  0  2.886916  0  0  -0.480683  0  3.164816  0  0  -0.502172  0  3.172272  0  -1.283214  0  -0.391392  -0.465641  0  3.158679  0
N  N119  1  0.83395764  0.94917183  0.04264597  1  0  -0.534293  0  2.886836  0  0  -0.480578  0  3.164705  0  0  -0.502074  0  3.172178  0  -1.283464  0  -0.391327  -0.465537  0  3.158564  0
N  N120  1  0.51560391  0.34284008  0.53882052  1  0  -0.520554  0  2.869434  0  0  -0.467036  0  3.144831  0  0  -0.487507  0  3.15149  0  -1.259182  0  -0.384628  -0.453098  0  3.139518  0
N  N121  1  0.48439293  0.15715538  0.03881990  1  0  -0.520593  0  2.86939  0  0  -0.467052  0  3.14475  0  0  -0.487525  0  3.151407  0  -1.258848  0  -0.384634  -0.453115  0  3.139436  0
N  N122  1  0.48439696  0.65715871  0.46118010  1  0  -0.520489  0  2.869347  0  0  -0.466967  0  3.144731  0  0  -0.487437  0  3.151388  0  -1.258844  0  -0.384596  -0.453029  0  3.139421  0
N  N123  1  0.51560316  0.84283752  0.96117516  1  0  -0.520744  0  2.86943  0  0  -0.467237  0  3.144829  0  0  -0.487706  0  3.151482  0  -1.2585  0  -0.384749  -0.4533  0  3.139516  0
N  N124  1  0.78613229  0.24580661  0.60771510  1  0  -0.312047  0  3.264805  0  0  -0.23548  0  3.527237  0  0  -0.254947  0  3.546157  0  -1.236395  0  -0.327193  -0.222578  0  3.514021  0
N  N125  1  0.21386774  0.25419279  0.10771510  1  0  -0.312037  0  3.264785  0  0  -0.235484  0  3.527212  0  0  -0.254952  0  3.54613  0  -1.236355  0  -0.327203  -0.222582  0  3.513994  0
N  N126  1  0.21386755  0.75419219  0.39228675  1  0  -0.312115  0  3.264809  0  0  -0.235561  0  3.527265  0  0  -0.255033  0  3.54619  0  -1.236409  0  -0.327227  -0.222661  0  3.514052  0
N  N127  1  0.78613107  0.74580601  0.89228614  1  0  -0.312138  0  3.264826  0  0  -0.235586  0  3.527278  0  0  -0.255055  0  3.5462  0  -1.23637  0  -0.327218  -0.222685  0  3.514065  0
N  N128  1  0.45587482  0.89034675  0.68193988  1  0  -0.207886  0  3.363377  0  0  -0.117335  0  3.599004  0  0  -0.139736  0  3.621134  0  -1.192382  0  -0.267112  -0.10229  0  3.583423  0
N  N129  1  0.54412334  0.60965340  0.18193927  1  0  -0.207843  0  3.363377  0  0  -0.117308  0  3.598957  0  0  -0.139715  0  3.621092  0  -1.19245  0  -0.267071  -0.102263  0  3.583369  0
N  N130  1  0.54412325  0.10965302  0.31806135  1  0  -0.207844  0  3.36348  0  0  -0.117293  0  3.59908  0  0  -0.139702  0  3.621219  0  -1.192925  0  -0.267077  -0.102239  0  3.583498  0
N  N131  1  0.45587781  0.39034637  0.81805888  1  0  -0.207894  0  3.3634  0  0  -0.117323  0  3.599011  0  0  -0.139717  0  3.621146  0  -1.19291  0  -0.267055  -0.10228  0  3.583427  0
O  O132  1  0.62315567  0.89024654  0.77977287  1  0  -0.581006  0  2.077942  0  0  -0.528757  0  2.345537  0  0  -0.554352  0  2.337828  0  -1.16226  0  -0.302909  -0.510474  0  2.349666  0
O  O133  1  0.37684446  0.60974968  0.27977472  1  0  -0.581049  0  2.077957  0  0  -0.528799  0  2.345501  0  0  -0.554377  0  2.337761  0  -1.162359  0  -0.302913  -0.510514  0  2.349632  0
O  O134  1  0.37684802  0.10975127  0.22022590  1  0  -0.581038  0  2.077999  0  0  -0.52877  0  2.345546  0  0  -0.554351  0  2.337798  0  -1.162347  0  -0.302941  -0.510488  0  2.349673  0
O  O135  1  0.62315604  0.39024420  0.72022405  1  0  -0.581034  0  2.077785  0  0  -0.528771  0  2.345372  0  0  -0.55435  0  2.337644  0  -1.162423  0  -0.302929  -0.510488  0  2.3495  0
