# generated using pymatgen
data_Zn6H45C66N9O32
_symmetry_space_group_name_H-M   'P 1'
_cell_length_a   18.72296020
_cell_length_b   18.78784202
_cell_length_c   18.74110037
_cell_angle_alpha   109.59747765
_cell_angle_beta   109.42293190
_cell_angle_gamma   109.46123608
_symmetry_Int_Tables_number   1
_chemical_formula_structural   Zn6H45C66N9O32
_chemical_formula_sum   'Zn6 H45 C66 N9 O32'
_cell_volume   5070.59426791
_cell_formula_units_Z   1
loop_
 _symmetry_equiv_pos_site_id
 _symmetry_equiv_pos_as_xyz
  1  'x, y, z'
loop_
 _atom_site_type_symbol
 _atom_site_label
 _atom_site_symmetry_multiplicity
 _atom_site_fract_x
 _atom_site_fract_y
 _atom_site_fract_z
 _atom_site_occupancy
 _atom_site_pbe_bader_charge
 _atom_site_pbe_bader_spin_density
 _atom_site_pbe_cm5_charge
 _atom_site_pbe_ddec_charge
 _atom_site_pbe_ddec_spin_density
 _atom_site_pbe_ddec_sum_bond_order
 _atom_site_pbe_magmom
Zn  Zn0  1  0.00794136  0.56903644  0.06750939  1  1.302209  0  0.722556  0.948608  0  2.135781  0
Zn  Zn1  1  0.00208556  0.44167791  0.93992968  1  1.30736  0  0.72385  0.95656  0  2.139474  0
Zn  Zn2  1  0.55757510  0.56045530  0.50781167  1  1.301685  0  0.708903  0.92854  0  2.184645  0
Zn  Zn3  1  0.43055018  0.43550331  0.50352011  1  1.311495  0  0.722935  0.953206  0  2.166674  0
Zn  Zn4  1  0.43011388  0.99794621  0.94189742  1  1.297849  0  0.714059  0.929622  0  2.198553  0
Zn  Zn5  1  0.56335288  0.99994026  0.05748182  1  1.301027  0  0.722121  0.945836  0  2.121877  0
H  H6  1  0.90844136  0.56955117  0.79071948  1  0.109053  0  0.103883  0.119517  0  1.030735  0
H  H7  1  0.77144797  0.48856766  0.94488740  1  0.057107  0  0.097443  0.117834  0  1.022592  0
H  H8  1  0.43394549  0.75080450  0.07389363  1  0.127747  0  0.118639  0.1327  0  0.979712  0
H  H9  1  0.12714411  0.78087086  0.01602192  1  0.058988  0  0.11285  0.078411  0  0.945526  0
H  H10  1  0.32920496  0.21520541  0.23383454  1  0.071268  0  0.110884  0.116061  0  0.982878  0
H  H11  1  0.33049012  0.11552122  0.10887903  1  0.082803  0  0.107586  0.113246  0  0.999899  0
H  H12  1  0.67920448  0.30162796  0.27020886  1  0.059354  0  0.100355  0.050679  0  0.985613  0
H  H13  1  0.36216285  0.57127419  0.69725115  1  0.081512  0  0.108449  0.113276  0  0.989568  0
H  H14  1  0.35865119  0.69018751  0.80232884  1  0.073431  0  0.10622  0.111042  0  0.988678  0
H  H15  1  0.49821734  0.89844559  0.69080045  1  0.017774  0  0.105014  0.055892  0  0.954641  0
H  H16  1  0.51606525  0.78362126  0.59403209  1  0.037901  0  0.090814  0.104822  0  1.013292  0
H  H17  1  0.84462714  0.24252620  0.18347698  1  0.053549  0  0.092283  0.099578  0  0.98854  0
H  H18  1  0.60758213  0.80730272  0.68762456  1  0.063388  0  0.097543  0.11714  0  0.985209  0
H  H19  1  0.51419426  0.45248814  0.81604374  1  0.039909  0  0.099281  0.103491  0  0.997403  0
H  H20  1  0.54666932  0.49336756  0.71587999  1  0.075883  0  0.097509  0.111821  0  1.034986  0
H  H21  1  0.78897066  0.30241831  0.19838879  1  0.034439  0  0.089902  0.09523  0  0.995335  0
H  H22  1  0.27781317  0.77271374  0.17985540  1  0.610695  0  0.333681  0.371731  0  0.877055  0
H  H23  1  0.39638362  0.57125561  0.08822231  1  0.62372  0  0.351414  0.388845  0  0.842354  0
H  H24  1  0.24892074  0.92804704  0.08587866  1  0.381969  0  0.281452  0.274428  0  0.971816  0
H  H25  1  0.29672949  0.96513272  0.03601553  1  0.398174  0  0.273177  0.27216  0  1.009886  0
H  H26  1  0.16699443  0.85389622  0.86635305  1  0.400239  0  0.288133  0.28337  0  0.956235  0
H  H27  1  0.25176490  0.83928406  0.87579430  1  0.415938  0  0.279914  0.282058  0  0.991036  0
H  H28  1  0.89506153  0.42017679  0.19193201  1  0.06103  0  0.094018  0.102681  0  0.983413  0
H  H29  1  0.06814306  0.69434724  0.83042874  1  0.408929  0  0.276619  0.261601  0  0.996453  0
H  H30  1  0.01508952  0.72205228  0.87938741  1  0.401566  0  0.28822  0.270724  0  0.960798  0
H  H31  1  0.73840986  0.25080140  0.36694923  1  0.425833  0  0.28911  0.284404  0  0.956364  0
H  H32  1  0.64656264  0.16283617  0.28022513  1  0.427618  0  0.28324  0.282434  0  0.977814  0
H  H33  1  0.67739197  0.37098973  0.56298298  1  0.608119  0  0.347112  0.386203  0  0.847231  0
H  H34  1  0.65660303  0.41970039  0.97313170  1  0.434039  0  0.306485  0.302396  0  0.941949  0
H  H35  1  0.55457745  0.40252552  0.91957824  1  0.407267  0  0.302899  0.292613  0  0.955386  0
H  H36  1  0.74265129  0.55760587  0.43807472  1  0.619759  0  0.352371  0.386838  0  0.838816  0
H  H37  1  0.65329690  0.93229583  0.83667827  1  0.405773  0  0.288161  0.27666  0  0.961573  0
H  H38  1  0.64080851  0.99870388  0.79901195  1  0.419614  0  0.277052  0.262264  0  1.007138  0
H  H39  1  0.95206224  0.36163111  0.17896516  1  0.050034  0  0.09215  0.098312  0  0.989168  0
H  H40  1  0.85569807  0.56655465  0.65659520  1  0.435545  0  0.308122  0.309292  0  0.929627  0
H  H41  1  0.76604318  0.57773972  0.61336006  1  0.483198  0  0.291286  0.30204  0  1.000162  0
H  H42  1  0.76783694  0.25763208  0.81983656  1  0.47063  0  0.297363  0.303928  0  0.961586  0
H  H43  1  0.67584919  0.16114102  0.77187197  1  0.440928  0  0.297428  0.281623  0  0.969685  0
H  H44  1  0.54143285  0.07465520  0.83858677  1  0.469315  0  0.296813  0.304156  0  0.968229  0
H  H45  1  0.56874489  0.13640316  0.79367031  1  0.417631  0  0.301054  0.286501  0  0.95523  0
H  H46  1  0.13754418  0.39187521  0.14400317  1  0.096764  0  0.10794  0.113768  0  0.98854  0
H  H47  1  0.25992534  0.39310157  0.25090930  1  0.064828  0  0.106142  0.111436  0  0.991228  0
H  H48  1  0.41580425  0.73910682  0.45132761  1  0.04957  0  0.096641  0.105694  0  1.000015  0
H  H49  1  0.45795502  0.73613753  0.37778524  1  0.094476  0  0.10443  0.125239  0  0.984564  0
H  H50  1  0.28664163  0.73645176  0.35009972  1  0.077687  0  0.115039  0.116628  0  0.947376  0
C  C51  1  0.88037413  0.36926699  0.97897262  1  1.520147  0  0.224001  0.634657  0  4.113926  0
C  C52  1  0.66756822  0.17160290  0.90896763  1  0.368466  0  0.090117  0.172787  0  4.01997  0
C  C53  1  0.68480811  0.17149134  0.98867924  1  0.041465  0  -0.029894  -0.187995  0  3.988591  0
C  C54  1  0.89549536  0.53519138  0.91115685  1  1.533141  0  0.22906  0.625066  0  4.111446  0
C  C55  1  0.76532794  0.23925720  0.06266866  1  -0.018493  0  -0.024774  0.037326  0  3.964031  0
C  C56  1  0.81942103  0.28063703  0.16103833  1  -0.021036  0  -0.152985  -0.188605  0  3.890355  0
C  C57  1  0.88695073  0.35535012  0.15747115  1  -0.04717  0  -0.152426  -0.187011  0  3.883686  0
C  C58  1  0.27289071  0.60862715  0.27458765  1  -0.027005  0  0.003099  0.041771  0  3.847519  0
C  C59  1  0.19660569  0.53170215  0.20647812  1  0.004116  0  -0.003885  -0.044737  0  3.956107  0
C  C60  1  0.19527817  0.45370703  0.19779241  1  -0.006823  0  -0.080376  -0.098345  0  3.980206  0
C  C61  1  0.26461807  0.45438437  0.25678310  1  0.006624  0  -0.082848  -0.097715  0  3.989432  0
C  C62  1  0.74242939  0.51361331  0.83688829  1  -0.00892  0  -0.012845  0.055047  0  4.017712  0
C  C63  1  0.34206346  0.53288078  0.32515319  1  0.007159  0  -0.011211  -0.067344  0  3.969622  0
C  C64  1  0.34474244  0.60956899  0.33077097  1  -0.023686  0  -0.000736  0.066212  0  3.886792  0
C  C65  1  0.39925849  0.70837737  0.38256838  1  -0.046378  0  -0.146062  -0.216402  0  3.858204  0
C  C66  1  0.13463998  0.58817904  0.98773116  1  1.597952  0  0.223623  0.6173  0  4.149374  0
C  C67  1  0.31873320  0.70839206  0.31948612  1  0.02106  0  -0.069188  -0.145621  0  3.81775  0
C  C68  1  0.20342407  0.72325918  0.98381392  1  0.005069  0  -0.009809  -0.006386  0  3.918696  0
C  C69  1  0.21294721  0.65869621  0.99943657  1  -0.002982  0  0.010824  -0.042033  0  3.891494  0
C  C70  1  0.29858611  0.67034699  0.03216189  1  0.003803  0  -0.008718  -0.071261  0  3.947235  0
C  C71  1  0.36886004  0.74312199  0.04673281  1  -0.01959  0  -0.063812  -0.090421  0  3.896684  0
C  C72  1  0.35699822  0.80607702  0.02807340  1  0.01012  0  -0.01666  -0.060241  0  3.986503  0
C  C73  1  0.82587268  0.53554490  0.84285879  1  0.021412  0  -0.009967  -0.042186  0  3.961461  0
C  C74  1  0.27201940  0.79275901  0.99476104  1  -0.083203  0  -0.003033  -0.040567  0  3.879117  0
C  C75  1  0.21647930  0.83307067  0.96653814  1  0.752185  0  0.164383  0.367122  0  3.894196  0
C  C76  1  0.13880567  0.75546788  0.96144680  1  0.398731  0  0.015521  0.071917  0  3.840013  0
C  C77  1  0.47109284  0.35900991  0.38803649  1  1.564849  0  0.223868  0.615556  0  4.145319  0
C  C78  1  0.12065582  0.52753519  0.14225343  1  1.551978  0  0.223406  0.614856  0  4.128992  0
C  C79  1  0.63238853  0.52817947  0.63221905  1  1.471048  0  0.213243  0.616836  0  4.114457  0
C  C80  1  0.45183452  0.58430450  0.60770579  1  1.52646  0  0.218519  0.607484  0  4.146277  0
C  C81  1  0.41078855  0.52899720  0.38942726  1  1.534661  0  0.218555  0.610618  0  4.139121  0
C  C82  1  0.44507313  0.86672103  0.85383106  1  1.568379  0  0.229838  0.629976  0  4.116744  0
C  C83  1  0.62110705  0.10687639  0.99641554  1  1.49973  0  0.226947  0.63672  0  4.11132  0
C  C84  1  0.84421625  0.55421785  0.78413675  1  -0.054824  0  -0.099262  -0.21775  0  3.961441  0
C  C85  1  0.47423796  0.11055572  0.10233165  1  1.530304  0  0.221583  0.606703  0  4.140409  0
C  C86  1  0.42596597  0.88236695  0.03765135  1  1.52694  0  0.216731  0.602448  0  4.139297  0
C  C87  1  0.54644173  0.29615065  0.32033132  1  0.00631  0  0.002707  0.038421  0  3.889052  0
C  C88  1  0.46943915  0.29153006  0.31654686  1  -0.006438  0  0.001052  -0.034597  0  3.939275  0
C  C89  1  0.39139156  0.22246486  0.23945471  1  -0.000663  0  -0.076509  -0.097779  0  3.955256  0
C  C90  1  0.72178008  0.48857799  0.89382384  1  0.011928  0  -0.118261  -0.270881  0  3.955761  0
C  C91  1  0.39213537  0.16541030  0.16920488  1  -0.009582  0  -0.07699  -0.091151  0  3.955769  0
C  C92  1  0.47079230  0.17028587  0.17494871  1  0.015391  0  -0.009248  -0.059833  0  3.960983  0
C  C93  1  0.54711137  0.23571071  0.25380042  1  -0.037485  0  0.003013  0.021977  0  3.869185  0
C  C94  1  0.64591341  0.27554204  0.30183824  1  0.413432  0  0.029325  0.151279  0  3.834952  0
C  C95  1  0.78333499  0.55740818  0.71715748  1  0.408994  0  0.098054  0.286312  0  4.107355  0
C  C96  1  0.64598577  0.35184930  0.37591346  1  0.045179  0  0.004138  -0.189958  0  3.737078  0
C  C97  1  0.48147500  0.73735246  0.67953596  1  -0.04383  0  -0.001517  0.083668  0  3.909965  0
C  C98  1  0.44087882  0.65217187  0.66372562  1  -0.008484  0  -0.018859  -0.088984  0  3.989449  0
C  C99  1  0.39439642  0.63696611  0.70774695  1  -0.016185  0  -0.078193  -0.085812  0  3.97449  0
C  C100  1  0.39198273  0.70425398  0.76672875  1  0.009649  0  -0.086789  -0.120647  0  3.982691  0
C  C101  1  0.43425945  0.79010681  0.78278983  1  -0.063414  0  -0.002789  -0.026265  0  3.953543  0
C  C102  1  0.63972087  0.46394676  0.88595154  1  0.34849  0  0.08088  0.294004  0  4.154423  0
C  C103  1  0.47633901  0.80335863  0.73598332  1  0.009392  0  -0.014097  -0.029746  0  3.886432  0
C  C104  1  0.53427021  0.87421798  0.72623015  1  0.401815  0  0.012411  0.167447  0  3.894082  0
C  C105  1  0.54126293  0.79809828  0.66222193  1  -0.041539  0  -0.158233  -0.28056  0  3.852317  0
C  C106  1  0.69928262  0.53476505  0.70744500  1  0.009851  0  -0.04149  -0.237156  0  3.913973  0
C  C107  1  0.57801752  0.46826215  0.82120262  1  -0.052556  0  -0.105704  -0.19233  0  4.011577  0
C  C108  1  0.59664174  0.49188174  0.76463775  1  -0.009682  0  -0.102973  -0.125661  0  4.01586  0
C  C109  1  0.67837760  0.51303210  0.76780866  1  0.042047  0  -0.012849  0.061121  0  3.972684  0
C  C110  1  0.33459507  0.74496811  0.26210947  1  1.526399  0  0.233745  0.607728  0  4.072089  0
C  C111  1  0.31571442  0.61003063  0.06092586  1  1.51192  0  0.229202  0.576305  0  4.133928  0
C  C112  1  0.69361618  0.36764498  0.46753031  1  1.562886  0  0.233617  0.610642  0  4.093313  0
C  C113  1  0.67855658  0.43525196  0.37108965  1  1.521943  0  0.239141  0.598969  0  4.076647  0
C  C114  1  0.82462880  0.30433495  0.05949045  1  0.026073  0  -0.024669  0.035302  0  3.966944  0
C  C115  1  0.81263791  0.30167645  0.98070106  1  0.001062  0  -0.028632  -0.176863  0  3.991442  0
C  C116  1  0.73376136  0.23218947  0.90402275  1  0.398874  0  0.086232  0.165799  0  4.051902  0
N  N117  1  0.23978614  0.92048579  0.02635155  1  -1.11379  0  -0.635662  -0.70466  0  3.198953  0
N  N118  1  0.19625554  0.81926570  0.87989186  1  -1.144183  0  -0.62544  -0.682928  0  3.203397  0
N  N119  1  0.05656352  0.69780965  0.88095095  1  -1.143736  0  -0.625006  -0.600185  0  3.235663  0
N  N120  1  0.67200141  0.22243678  0.33260480  1  -1.15688  0  -0.631566  -0.647754  0  3.223057  0
N  N121  1  0.61913039  0.44002967  0.94226595  1  -1.198428  0  -0.603286  -0.632365  0  3.296256  0
N  N122  1  0.60991989  0.94843913  0.80696585  1  -1.139455  0  -0.631739  -0.637965  0  3.263766  0
N  N123  1  0.81119952  0.58197110  0.66558003  1  -1.232667  0  -0.600742  -0.620774  0  3.335203  0
N  N124  1  0.71403263  0.22403996  0.82207399  1  -1.239947  0  -0.606019  -0.610374  0  3.303515  0
N  N125  1  0.58925662  0.11013151  0.83021527  1  -1.197378  0  -0.600033  -0.611136  0  3.334781  0
O  O126  1  0.91295598  0.44818866  0.03560626  1  -1.171884  0  -0.306922  -0.560637  0  2.295247  0
O  O127  1  0.50957940  0.90040898  0.92879504  1  -1.16898  0  -0.302147  -0.556986  0  2.310129  0
O  O128  1  0.53921078  0.07648444  0.94762289  1  -1.17832  0  -0.316688  -0.58036  0  2.340343  0
O  O129  1  0.90224089  0.34314977  0.92046647  1  -1.139231  0  -0.320294  -0.546925  0  2.237807  0
O  O130  1  0.65239214  0.08625154  0.05380931  1  -1.12024  0  -0.310457  -0.522225  0  2.251486  0
O  O131  1  0.41357468  0.07836209  0.02333415  1  -1.138925  0  -0.317889  -0.529739  0  2.246006  0
O  O132  1  0.53746356  0.09568198  0.12297531  1  -1.166711  0  -0.304889  -0.56163  0  2.305375  0
O  O133  1  0.39729953  0.91781988  0.99674002  1  -1.189872  0  -0.311358  -0.590804  0  2.4141  0
O  O134  1  0.50798816  0.91007655  0.08361383  1  -1.114904  0  -0.313319  -0.512903  0  2.181937  0
O  O135  1  0.92412914  0.58716357  0.99229107  1  -1.132293  0  -0.314483  -0.529993  0  2.240234  0
O  O136  1  0.92160102  0.48310563  0.88393522  1  -1.158734  0  -0.308904  -0.563735  0  2.318978  0
O  O137  1  0.41514743  0.33351648  0.41207313  1  -1.121219  0  -0.314803  -0.523217  0  2.230465  0
O  O138  1  0.10377598  0.61687072  0.03408735  1  -1.163919  0  -0.302743  -0.566057  0  2.341047  0
O  O139  1  0.10181471  0.50815473  0.93127246  1  -1.122044  0  -0.310834  -0.514052  0  2.215299  0
O  O140  1  0.09971494  0.58581056  0.17021216  1  -1.117266  0  -0.315271  -0.524356  0  2.229286  0
O  O141  1  0.08127669  0.46622245  0.06374108  1  -1.173564  0  -0.307968  -0.564683  0  2.330026  0
O  O142  1  0.52845724  0.43718406  0.41909252  1  -1.165521  0  -0.305956  -0.562462  0  2.329824  0
O  O143  1  0.39718593  0.76012488  0.25053485  1  -1.144976  0  -0.295094  -0.496312  0  2.084555  0
O  O144  1  0.26833019  0.75750884  0.22240471  1  -1.112488  0  -0.338672  -0.480363  0  2.23417  0
O  O145  1  0.27030291  0.56677423  0.08132647  1  -1.126919  0  -0.278352  -0.476845  0  2.144501  0
O  O146  1  0.38896916  0.60878760  0.06403933  1  -1.115527  0  -0.336143  -0.481398  0  2.204422  0
O  O147  1  0.77068487  0.38893647  0.50512723  1  -1.142537  0  -0.300496  -0.498589  0  2.056684  0
O  O148  1  0.65862568  0.57901045  0.60205857  1  -1.13975  0  -0.323119  -0.54169  0  2.281494  0
O  O149  1  0.64137082  0.35662044  0.50296614  1  -1.095438  0  -0.321323  -0.462066  0  2.237709  0
O  O150  1  0.66371434  0.43573448  0.30293738  1  -1.12632  0  -0.289997  -0.482803  0  2.062327  0
O  O151  1  0.72620762  0.50963890  0.45036635  1  -1.11515  0  -0.325473  -0.472435  0  2.249599  0
O  O152  1  0.55206922  0.47260651  0.59765256  1  -1.184696  0  -0.312984  -0.573273  0  2.379403  0
O  O153  1  0.51084404  0.61079786  0.58851584  1  -1.174877  0  -0.309333  -0.562921  0  2.331851  0
O  O154  1  0.40198957  0.50333555  0.58164428  1  -1.13405  0  -0.322615  -0.536813  0  2.224274  0
O  O155  1  0.49199770  0.58444053  0.42231500  1  -1.129919  0  -0.3195  -0.524659  0  2.202276  0
O  O156  1  0.38395649  0.47025772  0.40850196  1  -1.171451  0  -0.311409  -0.574341  0  2.328891  0
O  O157  1  0.39090610  0.89446049  0.83438318  1  -1.129901  0  -0.322156  -0.536258  0  2.208246  0
