# generated using pymatgen
data_CuH10C16(NO)4
_symmetry_space_group_name_H-M   'P 1'
_cell_length_a   13.29552563
_cell_length_b   13.97035132
_cell_length_c   14.89379384
_cell_angle_alpha   92.78152988
_cell_angle_beta   89.99942386
_cell_angle_gamma   90.00045909
_symmetry_Int_Tables_number   1
_chemical_formula_structural   CuH10C16(NO)4
_chemical_formula_sum   'Cu4 H40 C64 N16 O16'
_cell_volume   2763.16108728
_cell_formula_units_Z   4
loop_
 _symmetry_equiv_pos_site_id
 _symmetry_equiv_pos_as_xyz
  1  'x, y, z'
loop_
 _atom_site_type_symbol
 _atom_site_label
 _atom_site_symmetry_multiplicity
 _atom_site_fract_x
 _atom_site_fract_y
 _atom_site_fract_z
 _atom_site_occupancy
 _atom_site_pbe_bader_charge
 _atom_site_pbe_bader_spin_density
 _atom_site_pbe_cm5_charge
 _atom_site_pbe_ddec_charge
 _atom_site_pbe_ddec_spin_density
 _atom_site_pbe_ddec_sum_bond_order
 _atom_site_pbe_magmom
Cu  Cu0  1  0.00000006  0.50000021  0.49999946  1  1.049761  -0.545168  0.745076  0.748601  -0.738573  2.19766  -0.546
Cu  Cu1  1  0.49999814  0.50000001  0.00000064  1  1.049769  -0.545163  0.745091  0.74867  -0.738567  2.197623  -0.546
Cu  Cu2  1  0.00000301  0.99999857  0.99999993  1  1.065502  0.554777  0.767098  0.783634  0.74471  2.219063  0.554
Cu  Cu3  1  0.49999999  0.00000017  0.50000102  1  1.065482  0.554768  0.767102  0.783605  0.744697  2.218974  0.554
H  H4  1  0.70412500  0.69492050  0.89721627  1  0.072691  -0.000352  0.110209  0.124642  -0.000313  1.003171  0.0
H  H5  1  0.20412748  0.30508298  0.60278129  1  0.072595  -0.000352  0.110219  0.124612  -0.000313  1.003095  0.0
H  H6  1  0.29587167  0.30507774  0.10278407  1  0.072666  -0.000352  0.110217  0.124671  -0.000313  1.003146  0.0
H  H7  1  0.79587296  0.69492028  0.39721929  1  0.072666  -0.000352  0.110227  0.124651  -0.000313  1.00307  0.0
H  H8  1  0.69577608  0.92338602  0.71197271  1  0.10021  0.000708  0.11592  0.136564  0.000563  0.985874  0.0
H  H9  1  0.19577079  0.07661809  0.78802965  1  0.10036  0.000708  0.115922  0.136623  0.000563  0.985684  0.0
H  H10  1  0.30422436  0.07661508  0.28802978  1  0.100645  0.000708  0.115918  0.136559  0.000563  0.98586  0.0
H  H11  1  0.80422740  0.92338231  0.21196743  1  0.10075  0.000708  0.115926  0.136571  0.000563  0.985792  0.0
H  H12  1  0.44039676  0.73698586  0.73568650  1  0.129371  4e-06  0.114974  0.130696  -4e-06  0.985673  0.0
H  H13  1  0.94039289  0.26302073  0.76431377  1  0.129294  4e-06  0.114942  0.130645  -4e-06  0.985636  0.0
H  H14  1  0.55960217  0.26301811  0.26431344  1  0.129391  4e-06  0.114945  0.130639  -4e-06  0.985697  0.0
H  H15  1  0.05960680  0.73698110  0.23568540  1  0.12967  4e-06  0.11496  0.130667  -4e-06  0.985657  0.0
H  H16  1  0.70217362  0.91886389  0.99369467  1  0.072997  -0.000279  0.106321  0.153772  -0.000122  0.974828  0.0
H  H17  1  0.20217078  0.08113311  0.50630662  1  0.073032  -0.000279  0.106321  0.153754  -0.000122  0.974758  0.0
H  H18  1  0.29782832  0.08113579  0.00630372  1  0.072976  -0.000279  0.106326  0.153775  -0.000122  0.97475  0.0
H  H19  1  0.79782816  0.91886728  0.49369450  1  0.072964  -0.000279  0.106314  0.153743  -0.000122  0.974779  0.0
H  H20  1  0.70228382  0.00348101  0.90821638  1  0.065864  -0.000259  0.113648  0.167113  -0.000122  0.962486  0.0
H  H21  1  0.20228096  0.99651670  0.59178629  1  0.065774  -0.000259  0.113646  0.167103  -0.000122  0.962539  0.0
H  H22  1  0.29771813  0.99651723  0.09178329  1  0.065847  -0.000259  0.113658  0.167125  -0.000122  0.962486  0.0
H  H23  1  0.79771797  0.00348369  0.40821348  1  0.065766  -0.000259  0.113644  0.167108  -0.000122  0.962527  0.0
H  H24  1  0.78727094  0.01793539  0.00064121  1  0.114703  -0.000274  0.118434  0.176936  -0.000205  0.976212  0.0
H  H25  1  0.28726941  0.98206472  0.49936233  1  0.114755  -0.000274  0.118438  0.176947  -0.000205  0.976259  0.0
H  H26  1  0.21272950  0.98206429  0.99935786  1  0.114681  -0.000274  0.118433  0.176974  -0.000205  0.97619  0.0
H  H27  1  0.71272877  0.01793782  0.50063889  1  0.114718  -0.000274  0.118445  0.176976  -0.000205  0.97615  0.0
H  H28  1  0.77927661  0.74339485  0.66402602  1  0.127209  -0.000851  0.108756  0.117213  -0.000468  1.033132  0.0
H  H29  1  0.27927381  0.25660558  0.83597273  1  0.12716  -0.000851  0.108721  0.117165  -0.000468  1.033142  0.0
H  H30  1  0.22072609  0.25660555  0.33597174  1  0.127163  -0.000851  0.108737  0.117185  -0.000468  1.033134  0.0
H  H31  1  0.72072663  0.74339338  0.16402765  1  0.127192  -0.000851  0.108733  0.117167  -0.000468  1.03314  0.0
H  H32  1  0.83088437  0.62411873  0.54372286  1  0.122517  -0.001709  0.125515  0.101214  -0.000774  0.990629  -0.002
H  H33  1  0.33088197  0.37587775  0.95627791  1  0.12248  -0.001709  0.125511  0.101201  -0.000774  0.990617  -0.002
H  H34  1  0.16911833  0.37588167  0.45627422  1  0.122533  -0.001709  0.125525  0.101194  -0.000774  0.990676  -0.002
H  H35  1  0.66911696  0.62412049  0.04372243  1  0.122501  -0.001709  0.125502  0.101181  -0.000774  0.990596  -0.002
H  H36  1  0.10654886  0.58003457  0.66326318  1  0.134044  -0.001769  0.13089  0.108328  -0.000822  0.968883  -0.001
H  H37  1  0.60655001  0.41996245  0.83674033  1  0.134095  -0.001769  0.130876  0.108359  -0.000822  0.968806  -0.001
H  H38  1  0.89345008  0.41996080  0.33673702  1  0.134076  -0.001769  0.130873  0.108312  -0.000822  0.968892  -0.001
H  H39  1  0.39344968  0.58003864  0.16326284  1  0.134056  -0.001769  0.130893  0.108321  -0.000822  0.968921  -0.001
H  H40  1  0.06916316  0.70152832  0.78858174  1  0.152578  -0.001086  0.12576  0.139027  -0.00059  0.97362  -0.001
H  H41  1  0.56916318  0.29847203  0.71141890  1  0.152583  -0.001086  0.125755  0.138998  -0.00059  0.973636  -0.001
H  H42  1  0.93083578  0.29846562  0.21141973  1  0.152241  -0.001086  0.125764  0.138963  -0.00059  0.973725  -0.001
H  H43  1  0.43083801  0.70152763  0.28858285  1  0.152571  -0.001086  0.125742  0.139002  -0.00059  0.973674  -0.001
C  C44  1  0.51467167  0.62884411  0.86964599  1  1.532188  0.00151  0.190003  0.55342  2.3e-05  4.239312  0.003
C  C45  1  0.01467665  0.37116088  0.63035335  1  1.532128  0.00151  0.190025  0.553346  2.4e-05  4.239175  0.003
C  C46  1  0.48532426  0.37115915  0.13035526  1  1.532168  0.00151  0.189983  0.553312  2.4e-05  4.239197  0.003
C  C47  1  0.98532454  0.62884167  0.36964585  1  1.532197  0.00151  0.189996  0.553395  2.4e-05  4.239213  0.003
C  C48  1  0.56658748  0.70782403  0.82178004  1  0.033888  -0.008011  -0.011012  -0.000671  -0.005811  3.952984  -0.006
C  C49  1  0.06658825  0.29217917  0.67821875  1  0.034056  -0.00801  -0.011025  -0.00055  -0.00581  3.952902  -0.006
C  C50  1  0.43341221  0.29217564  0.17821902  1  0.033964  -0.00801  -0.01103  -0.000626  -0.00581  3.952934  -0.006
C  C51  1  0.93341294  0.70782265  0.32178110  1  0.034067  -0.00801  -0.011024  -0.000634  -0.00581  3.952994  -0.006
C  C52  1  0.66436621  0.73467075  0.84712040  1  -0.048955  -8.2e-05  -0.082053  -0.17886  -0.000223  3.950386  0.0
C  C53  1  0.16436554  0.26533243  0.65288019  1  -0.04913  -8.2e-05  -0.082086  -0.178947  -0.000223  3.950253  0.0
C  C54  1  0.33563348  0.26532749  0.15287927  1  -0.048959  -8.2e-05  -0.082073  -0.178983  -0.000223  3.950486  0.0
C  C55  1  0.83563566  0.73467010  0.34712103  1  -0.049103  -8.2e-05  -0.082052  -0.17889  -0.000223  3.950324  0.0
C  C56  1  0.70921192  0.81248746  0.80812542  1  0.253341  0.000295  0.081452  0.156292  0.00027  4.070949  0.0
C  C57  1  0.20921165  0.18751461  0.69187404  1  0.253231  0.000294  0.081496  0.15644  0.000269  4.070938  0.0
C  C58  1  0.29078927  0.18751150  0.19187294  1  0.253362  0.000295  0.081453  0.156317  0.00027  4.070904  0.0
C  C59  1  0.79078954  0.81248578  0.30812573  1  0.2531  0.000295  0.081428  0.156332  0.00027  4.070996  0.0
C  C60  1  0.66009222  0.86290034  0.74277072  1  0.077441  0.001002  -0.080513  -0.182428  0.000848  3.951196  0.0
C  C61  1  0.16008628  0.13710425  0.75722729  1  0.077676  0.001002  -0.080567  -0.182643  0.000849  3.95107  0.0
C  C62  1  0.33990898  0.13710005  0.25723039  1  0.076999  0.001001  -0.080458  -0.182398  0.000848  3.951056  0.0
C  C63  1  0.83991191  0.86289686  0.24277118  1  0.077294  0.001002  -0.080541  -0.182537  0.000848  3.951189  0.0
C  C64  1  0.56368388  0.83395000  0.71502755  1  -0.098164  0.008775  -0.010705  0.00082  0.006237  3.949948  0.007
C  C65  1  0.06367712  0.16605463  0.78497067  1  -0.098529  0.008776  -0.010602  0.000938  0.006237  3.949921  0.007
C  C66  1  0.43631656  0.16604968  0.28497219  1  -0.098294  0.008776  -0.010682  0.000866  0.006237  3.949916  0.007
C  C67  1  0.93632106  0.83394649  0.21502847  1  -0.098499  0.008776  -0.010617  0.000939  0.006237  3.949985  0.007
C  C68  1  0.51651633  0.75762781  0.75572847  1  0.014515  0.000309  -0.063099  -0.094774  0.000222  3.878042  0.0
C  C69  1  0.01651669  0.24237360  0.74427136  1  0.014715  0.000309  -0.063091  -0.094816  0.000222  3.878113  0.0
C  C70  1  0.48348110  0.24237401  0.24427070  1  0.014647  0.000309  -0.063068  -0.094753  0.000222  3.878075  0.0
C  C71  1  0.98348375  0.75762751  0.25572711  1  0.014323  0.000309  -0.063095  -0.094787  0.000222  3.878172  0.0
C  C72  1  0.51292082  0.88436969  0.63978580  1  1.586948  -0.001897  0.186353  0.551103  -0.000363  4.252136  -0.004
C  C73  1  0.01291806  0.11563456  0.86021285  1  1.586131  -0.001897  0.186441  0.551336  -0.000363  4.251879  -0.004
C  C74  1  0.48708038  0.11563356  0.36021478  1  1.586967  -0.001897  0.186375  0.551161  -0.000362  4.25202  -0.004
C  C75  1  0.98708088  0.88436583  0.13978491  1  1.586228  -0.001897  0.186423  0.551167  -0.000363  4.252119  -0.004
C  C76  1  0.75042110  0.96548881  0.95469350  1  -0.034862  -0.000134  -0.217396  -0.463715  -0.00023  3.936087  0.0
C  C77  1  0.25042043  0.03450996  0.54530946  1  -0.034865  -0.000134  -0.217429  -0.463756  -0.00023  3.936162  0.0
C  C78  1  0.24957934  0.03450944  0.04530482  1  -0.034865  -0.000134  -0.217404  -0.463767  -0.00023  3.935966  0.0
C  C79  1  0.74958076  0.96549114  0.45469102  1  -0.034794  -0.000134  -0.21741  -0.463742  -0.00023  3.936049  0.0
C  C80  1  0.82757040  0.90847113  0.90450391  1  1.013476  5e-06  0.247324  0.359976  0.000716  3.912127  0.002
C  C81  1  0.32756740  0.09152963  0.59549710  1  1.01345  5e-06  0.247347  0.36002  0.000716  3.912031  0.002
C  C82  1  0.17243154  0.09152783  0.09549512  1  1.013445  5e-06  0.247311  0.359904  0.000716  3.912003  0.002
C  C83  1  0.67243304  0.90847147  0.40450472  1  1.013436  6e-06  0.247295  0.359955  0.000716  3.912042  0.002
C  C84  1  0.90093052  0.80541656  0.80901226  1  0.933731  0.002027  0.224673  0.204384  0.001863  3.996445  0.003
C  C85  1  0.40092731  0.19458545  0.69098681  1  0.934246  0.002027  0.224647  0.20431  0.001864  3.996519  0.003
C  C86  1  0.09906992  0.19458096  0.19098670  1  0.933749  0.002027  0.224698  0.204322  0.001863  3.996536  0.003
C  C87  1  0.59907237  0.80541423  0.30901293  1  0.933717  0.002027  0.224632  0.204442  0.001864  3.996361  0.003
C  C88  1  0.92081099  0.73307400  0.73723124  1  0.052502  0.004191  0.020914  0.078112  0.002836  4.006686  0.003
C  C89  1  0.42080909  0.26692671  0.76276826  1  0.052849  0.004191  0.020898  0.0781  0.002836  4.006666  0.003
C  C90  1  0.07918945  0.26692281  0.26276836  1  0.052855  0.004191  0.020917  0.078154  0.002836  4.006448  0.003
C  C91  1  0.57919060  0.73307224  0.23723279  1  0.052795  0.004191  0.020902  0.078055  0.002836  4.006706  0.003
C  C92  1  0.85280194  0.70974005  0.66742054  1  -0.045341  -0.005576  -0.082214  -0.168569  -0.003886  3.938647  -0.004
C  C93  1  0.35279870  0.29026089  0.83257958  1  -0.045716  -0.005576  -0.082171  -0.168486  -0.003886  3.938512  -0.004
C  C94  1  0.14720001  0.29025747  0.33257909  1  -0.045627  -0.005576  -0.082182  -0.168483  -0.003886  3.938339  -0.004
C  C95  1  0.64720099  0.70973878  0.16742150  1  -0.045715  -0.005576  -0.082153  -0.168422  -0.003886  3.938486  -0.004
C  C96  1  0.88061816  0.64298992  0.59990388  1  0.474996  0.001551  0.054361  0.104907  0.000405  3.936096  0.001
C  C97  1  0.38061699  0.35700764  0.90009717  1  0.47503  0.00155  0.054341  0.104875  0.000404  3.936091  0.001
C  C98  1  0.11938303  0.35700905  0.40009448  1  0.474925  0.00155  0.054343  0.10483  0.000404  3.936111  0.001
C  C99  1  0.61938345  0.64299131  0.09990454  1  0.475044  0.00155  0.054337  0.104867  0.000404  3.936047  0.001
C  C100  1  0.03580716  0.61940164  0.66603762  1  0.459805  0.000946  0.059096  0.105276  -0.000109  3.915617  0.001
C  C101  1  0.53580651  0.38059704  0.83396324  1  0.459373  0.000945  0.059142  0.105303  -0.000109  3.915469  0.001
C  C102  1  0.96419177  0.38059445  0.33396261  1  0.460045  0.000946  0.059175  0.105292  -0.000109  3.915492  0.001
C  C103  1  0.46419243  0.61940263  0.16603784  1  0.459849  0.000946  0.059074  0.105295  -0.000109  3.915504  0.001
C  C104  1  0.01428252  0.68588194  0.73561858  1  -0.022383  -0.005793  -0.065842  -0.144673  -0.004072  3.895077  -0.004
C  C105  1  0.51428208  0.31411731  0.76438184  1  -0.021934  -0.005792  -0.065867  -0.144699  -0.004072  3.895096  -0.004
C  C106  1  0.98571491  0.31411272  0.26438159  1  -0.021675  -0.005793  -0.065902  -0.144649  -0.004072  3.895038  -0.004
C  C107  1  0.48571911  0.68588236  0.23561991  1  -0.022366  -0.005793  -0.065825  -0.144693  -0.004072  3.895089  -0.004
N  N108  1  0.80825648  0.84140831  0.83677358  1  -1.24898  0.002365  -0.210653  -0.113455  0.001524  3.690267  0.002
N  N109  1  0.30825328  0.15859446  0.66322838  1  -1.249431  0.002365  -0.210702  -0.113473  0.001524  3.690392  0.002
N  N110  1  0.19174396  0.15858993  0.16322676  1  -1.248986  0.002365  -0.210679  -0.113343  0.001524  3.69018  0.002
N  N111  1  0.69174565  0.84140808  0.33677217  1  -1.249017  0.002365  -0.210654  -0.1135  0.001524  3.690318  0.002
N  N112  1  0.92674131  0.91212332  0.91581048  1  -0.724545  0.075547  -0.250896  -0.215011  0.053641  3.579886  0.067
N  N113  1  0.42673915  0.08787816  0.58418900  1  -0.724505  0.075545  -0.250875  -0.214967  0.05364  3.579727  0.067
N  N114  1  0.07326063  0.08787708  0.08418661  1  -0.724563  0.075548  -0.250919  -0.214975  0.053641  3.5799  0.067
N  N115  1  0.57326053  0.91212151  0.41581207  1  -0.72451  0.075545  -0.250874  -0.214952  0.05364  3.579762  0.067
N  N116  1  0.97292232  0.84892096  0.85726920  1  -0.635975  0.007064  -0.210561  -0.213211  0.004527  3.16644  0.004
N  N117  1  0.47291929  0.15108300  0.64272796  1  -0.636024  0.007064  -0.210511  -0.213145  0.004527  3.166355  0.004
N  N118  1  0.02707812  0.15107944  0.14272788  1  -0.63595  0.007064  -0.210543  -0.213212  0.004527  3.166477  0.004
N  N119  1  0.52707965  0.84891667  0.35727311  1  -0.635837  0.007064  -0.210511  -0.213204  0.004527  3.166322  0.004
N  N120  1  0.97040608  0.59870442  0.59868258  1  -1.213594  -0.085659  -0.340049  -0.21654  -0.059829  3.608849  -0.075
N  N121  1  0.47040451  0.40129377  0.90132038  1  -1.213578  -0.085654  -0.340037  -0.216525  -0.059826  3.608758  -0.075
N  N122  1  0.02959511  0.40129383  0.40131709  1  -1.214118  -0.085659  -0.340059  -0.216457  -0.059829  3.608791  -0.075
N  N123  1  0.52959442  0.59870589  0.09868137  1  -1.213562  -0.085657  -0.340007  -0.216498  -0.059828  3.608778  -0.075
O  O124  1  0.57580003  0.57729021  0.91653763  1  -1.106462  -0.116565  -0.345206  -0.575249  -0.077667  2.344972  -0.105
O  O125  1  0.07580597  0.42271236  0.58345769  1  -1.106534  -0.116565  -0.345275  -0.575217  -0.077668  2.34488  -0.105
O  O126  1  0.42419364  0.42271233  0.08346292  1  -1.106633  -0.116567  -0.345245  -0.575227  -0.077668  2.344926  -0.105
O  O127  1  0.92419598  0.57728732  0.41653936  1  -1.10662  -0.116561  -0.345275  -0.575246  -0.077665  2.344917  -0.105
O  O128  1  0.42200514  0.61864265  0.86537373  1  -1.128889  -0.001547  -0.33794  -0.548453  -0.000778  2.051414  -0.002
O  O129  1  0.92201124  0.38136380  0.63462805  1  -1.12881  -0.001546  -0.337903  -0.548412  -0.000778  2.051353  -0.002
O  O130  1  0.57798928  0.38136489  0.13462975  1  -1.128843  -0.001546  -0.337923  -0.548393  -0.000778  2.051355  -0.002
O  O131  1  0.07798995  0.61863947  0.36537119  1  -1.128784  -0.001547  -0.337882  -0.548421  -0.000778  2.051417  -0.002
O  O132  1  0.57185690  0.94400888  0.60054384  1  -1.109946  0.12039  -0.342519  -0.562463  0.079688  2.324744  0.109
O  O133  1  0.07185094  0.05599794  0.89945709  1  -1.109841  0.120385  -0.342595  -0.562568  0.079685  2.324952  0.109
O  O134  1  0.42814504  0.05599437  0.39945876  1  -1.109916  0.120393  -0.342543  -0.562482  0.079689  2.324757  0.109
O  O135  1  0.92814874  0.94400246  0.10054133  1  -1.109926  0.120381  -0.342558  -0.562473  0.079682  2.324965  0.109
O  O136  1  0.42387210  0.86683017  0.61898633  1  -1.164534  0.000349  -0.340013  -0.557871  -3.9e-05  2.0637  0.001
O  O137  1  0.92386207  0.13316986  0.88101042  1  -1.163786  0.000351  -0.340072  -0.55802  -3.8e-05  2.063415  0.001
O  O138  1  0.57612834  0.13317380  0.38101428  1  -1.164548  0.000348  -0.340034  -0.557914  -4e-05  2.063597  0.001
O  O139  1  0.07613687  0.86683125  0.11898805  1  -1.163781  0.000351  -0.340076  -0.557944  -3.8e-05  2.063506  0.001
