# generated using pymatgen
data_AgH12C14N5O5F2
_symmetry_space_group_name_H-M   'P 1'
_cell_length_a   7.91923225
_cell_length_b   10.27540322
_cell_length_c   10.38732885
_cell_angle_alpha   108.72776535
_cell_angle_beta   89.99998957
_cell_angle_gamma   90.00004033
_symmetry_Int_Tables_number   1
_chemical_formula_structural   AgH12C14N5O5F2
_chemical_formula_sum   'Ag2 H24 C28 N10 O10 F4'
_cell_volume   800.49927540
_cell_formula_units_Z   2
loop_
 _symmetry_equiv_pos_site_id
 _symmetry_equiv_pos_as_xyz
  1  'x, y, z'
loop_
 _atom_site_type_symbol
 _atom_site_label
 _atom_site_symmetry_multiplicity
 _atom_site_fract_x
 _atom_site_fract_y
 _atom_site_fract_z
 _atom_site_occupancy
 _atom_site_pbe_bader_charge
 _atom_site_pbe_bader_spin_density
 _atom_site_pbe_cm5_charge
 _atom_site_pbe_ddec_charge
 _atom_site_pbe_ddec_spin_density
 _atom_site_pbe_ddec_sum_bond_order
 _atom_site_pbe_magmom
Ag  Ag0  1  0.40079797  0.75000019  0.50000075  1  0.566737  0  0.465937  0.328122  0  1.826773  0
Ag  Ag1  1  0.59920208  0.25000024  0.50000131  1  0.566747  0  0.465944  0.328166  0  1.826765  0
H  H2  1  0.09415694  0.26418068  0.25952577  1  0.52427  0  0.303531  0.270193  0  0.999283  0
H  H3  1  0.09415687  0.23581849  0.74047555  1  0.524274  0  0.303531  0.270189  0  0.999304  0
H  H4  1  0.90584311  0.73581976  0.74047629  1  0.524303  0  0.303549  0.270222  0  0.999242  0
H  H5  1  0.90584444  0.76418194  0.25952556  1  0.524268  0  0.303525  0.270188  0  0.999272  0
H  H6  1  0.69806284  0.58483185  0.35489337  1  0.162903  0  0.113583  0.112133  0  1.057183  0
H  H7  1  0.69806170  0.91516767  0.64511166  1  0.162893  0  0.113604  0.112153  0  1.057191  0
H  H8  1  0.30193847  0.41516755  0.64511125  1  0.162848  0  0.113612  0.112147  0  1.057203  0
H  H9  1  0.30193836  0.08483173  0.35489489  1  0.162911  0  0.113597  0.112149  0  1.057187  0
H  H10  1  0.52729740  0.18091388  0.11043839  1  0.194716  0  0.124301  0.169882  0  0.998482  0
H  H11  1  0.52729863  0.31908655  0.88956135  1  0.194714  0  0.124282  0.169888  0  0.998478  0
H  H12  1  0.47270013  0.81908861  0.88955855  1  0.194642  0  0.124278  0.169878  0  0.998485  0
H  H13  1  0.47270142  0.68091491  0.11043912  1  0.194674  0  0.124313  0.169885  0  0.998476  0
H  H14  1  0.19044793  0.48531465  0.37148288  1  0.081893  0  0.118761  0.103697  0  0.996297  0
H  H15  1  0.19044769  0.01468560  0.62851684  1  0.081891  0  0.118757  0.103689  0  0.996301  0
H  H16  1  0.80955086  0.51468578  0.62851822  1  0.081952  0  0.118762  0.103696  0  0.996296  0
H  H17  1  0.80955363  0.98531483  0.37148330  1  0.081923  0  0.118758  0.103681  0  0.996296  0
H  H18  1  0.91725817  0.14231922  0.05916967  1  0.095013  0  0.098659  0.114447  0  1.018343  0
H  H19  1  0.91725690  0.35768040  0.94083168  1  0.094888  0  0.098662  0.114454  0  1.018366  0
H  H20  1  0.08274315  0.85768018  0.94083207  1  0.094999  0  0.098663  0.114438  0  1.018361  0
H  H21  1  0.08274316  0.64232003  0.05916749  1  0.094874  0  0.098656  0.114438  0  1.018369  0
H  H22  1  0.96790190  0.03510304  0.15386998  1  0.072308  0  0.10147  0.119374  0  0.985916  0
H  H23  1  0.96790202  0.46489764  0.84613169  1  0.072313  0  0.101478  0.119415  0  0.985929  0
H  H24  1  0.03209688  0.96489739  0.84613208  1  0.072328  0  0.101495  0.119417  0  0.985888  0
H  H25  1  0.03209930  0.53510382  0.15386877  1  0.072317  0  0.101488  0.119419  0  0.985919  0
C  C26  1  0.59782203  0.50936762  0.31923070  1  0.518681  0  0.014128  -0.085653  0  3.961332  0
C  C27  1  0.59782221  0.99063082  0.68077304  1  0.51852  0  0.014125  -0.08568  0  3.961392  0
C  C28  1  0.40217928  0.49063281  0.68077425  1  0.519284  0  0.014159  -0.085599  0  3.96152  0
C  C29  1  0.40218037  0.00936858  0.31922869  1  0.51852  0  0.014125  -0.085669  0  3.961366  0
C  C30  1  0.62682101  0.38017350  0.22666207  1  0.428962  0  0.104368  0.273515  0  4.069039  0
C  C31  1  0.62682083  0.11982597  0.77333927  1  0.42896  0  0.104389  0.273572  0  4.068956  0
C  C32  1  0.37317778  0.61982591  0.77333871  1  0.429389  0  0.104398  0.273552  0  4.068851  0
C  C33  1  0.37317923  0.88017446  0.22666279  1  0.429005  0  0.104385  0.273512  0  4.068953  0
C  C34  1  0.50166616  0.28197718  0.18265792  1  0.01813  0  -0.079654  -0.261936  0  3.90235  0
C  C35  1  0.50166732  0.21802222  0.81734245  1  0.017957  0  -0.079639  -0.261962  0  3.90234  0
C  C36  1  0.49833263  0.71802634  0.81734224  1  0.017959  0  -0.079675  -0.261933  0  3.902181  0
C  C37  1  0.49833400  0.78197719  0.18265736  1  0.018012  0  -0.079643  -0.261899  0  3.902272  0
C  C38  1  0.33873119  0.32055727  0.23438795  1  0.484339  0  0.114552  0.248294  0  4.034135  0
C  C39  1  0.33873106  0.17944306  0.76561371  1  0.484474  0  0.114544  0.24833  0  4.034108  0
C  C40  1  0.66126887  0.67944317  0.76561219  1  0.484125  0  0.114568  0.248322  0  4.034084  0
C  C41  1  0.66127026  0.82055737  0.23438740  1  0.484257  0  0.114556  0.248289  0  4.034141  0
C  C42  1  0.31487412  0.45259038  0.32838427  1  0.51613  0  0.037582  -0.036148  0  3.904054  0
C  C43  1  0.31487390  0.04740891  0.67161609  1  0.516153  0  0.037597  -0.036116  0  3.904046  0
C  C44  1  0.68512593  0.54741108  0.67161716  1  0.516069  0  0.03759  -0.036108  0  3.903939  0
C  C45  1  0.68512615  0.95259050  0.32838565  1  0.516102  0  0.037565  -0.036147  0  3.904044  0
C  C46  1  0.18302157  0.12021155  0.08451092  1  1.393852  0  0.242323  0.535764  0  4.034941  0
C  C47  1  0.18302033  0.37978767  0.91549040  1  1.393709  0  0.242331  0.53585  0  4.034853  0
C  C48  1  0.81698353  0.87978683  0.91548568  1  1.393765  0  0.242233  0.535676  0  4.034776  0
C  C49  1  0.81698225  0.62021379  0.08451199  1  1.393748  0  0.242249  0.535693  0  4.034915  0
C  C50  1  0.00607258  0.06185301  0.06363034  1  -0.056746  0  -0.16589  -0.283996  0  3.98022  0
C  C51  1  0.00607391  0.43814611  0.93636809  1  -0.05674  0  -0.165878  -0.284039  0  3.980194  0
C  C52  1  0.99392621  0.93814537  0.93636915  1  -0.026881  0  -0.16589  -0.283987  0  3.980264  0
C  C53  1  0.99392614  0.56185535  0.06363237  1  -0.026852  0  -0.165894  -0.284033  0  3.980265  0
N  N54  1  0.44080304  0.54361366  0.36885822  1  -1.210081  0  -0.348012  -0.140117  0  3.691285  0
N  N55  1  0.44080193  0.95638572  0.63114392  1  -1.20992  0  -0.348028  -0.140148  0  3.691315  0
N  N56  1  0.55919449  0.45638575  0.63114352  1  -1.210581  0  -0.348053  -0.140248  0  3.691388  0
N  N57  1  0.55919812  0.04361368  0.36885878  1  -1.209961  0  -0.348028  -0.140134  0  3.691282  0
N  N58  1  0.19763035  0.23669422  0.19642062  1  -1.309654  0  -0.403173  -0.396309  0  3.581448  0
N  N59  1  0.19763029  0.26330501  0.80357974  1  -1.30979  0  -0.403172  -0.396364  0  3.581441  0
N  N60  1  0.80236844  0.76330621  0.80358048  1  -1.309699  0  -0.403145  -0.396299  0  3.58154  0
N  N61  1  0.80236976  0.73669440  0.19641911  1  -1.3097  0  -0.40315  -0.396268  0  3.581496  0
N  N62  1  0.99107363  0.75000036  0.49999980  1  0.741973  0  0.092487  0.702119  0  4.425353  0
N  N63  1  0.00892516  0.25000008  0.50000034  1  0.741988  0  0.09251  0.702172  0  4.425413  0
O  O64  1  0.30171615  0.06964848  0.00765690  1  -1.146571  0  -0.281595  -0.459014  0  2.126484  0
O  O65  1  0.30171619  0.43035184  0.99234475  1  -1.146578  0  -0.281605  -0.459045  0  2.126433  0
O  O66  1  0.69828012  0.93035298  0.99234742  1  -1.14654  0  -0.281579  -0.459017  0  2.126077  0
O  O67  1  0.69828133  0.56964757  0.00765410  1  -1.146553  0  -0.281568  -0.458994  0  2.126273  0
O  O68  1  0.07226358  0.72517005  0.59553954  1  -0.560372  0  -0.201235  -0.458618  0  1.985725  0
O  O69  1  0.07226362  0.77483119  0.40446035  1  -0.560379  0  -0.201235  -0.458625  0  1.985712  0
O  O70  1  0.92773521  0.27483039  0.40446060  1  -0.56038  0  -0.201253  -0.458648  0  1.985765  0
O  O71  1  0.92773517  0.22516925  0.59553979  1  -0.560388  0  -0.201238  -0.458639  0  1.985715  0
O  O72  1  0.83166424  0.75000031  0.49999980  1  -0.475754  0  -0.187472  -0.446946  0  2.036099  0
O  O73  1  0.16833455  0.25000012  0.50000034  1  -0.475742  0  -0.18747  -0.446944  0  2.036141  0
F  F74  1  0.78653219  0.35024925  0.17705082  1  -0.638937  0  -0.079191  -0.117167  0  1.380586  0
F  F75  1  0.78653455  0.14975133  0.82295085  1  -0.638961  0  -0.079204  -0.117205  0  1.380515  0
F  F76  1  0.21346660  0.64975221  0.82295061  1  -0.638943  0  -0.079198  -0.117198  0  1.380524  0
F  F77  1  0.21346677  0.85024910  0.17705218  1  -0.638958  0  -0.079192  -0.117166  0  1.38056  0
