# generated using pymatgen
data_Zn2H26C23(NO4)2
_symmetry_space_group_name_H-M   'P 1'
_cell_length_a   8.74247255
_cell_length_b   8.74629372
_cell_length_c   17.13500000
_cell_angle_alpha   100.09828397
_cell_angle_beta   100.10274405
_cell_angle_gamma   105.86000129
_symmetry_Int_Tables_number   1
_chemical_formula_structural   Zn2H26C23(NO4)2
_chemical_formula_sum   'Zn4 H52 C46 N4 O16'
_cell_volume   1205.81738965
_cell_formula_units_Z   2
loop_
 _symmetry_equiv_pos_site_id
 _symmetry_equiv_pos_as_xyz
  1  'x, y, z'
loop_
 _atom_site_type_symbol
 _atom_site_label
 _atom_site_symmetry_multiplicity
 _atom_site_fract_x
 _atom_site_fract_y
 _atom_site_fract_z
 _atom_site_occupancy
 _atom_site_hle17_bader_spin_density
 _atom_site_hle17_ddec_charge
 _atom_site_hle17_ddec_spin_density
 _atom_site_hle17_ddec_sum_bond_order
 _atom_site_hle17_magmom
 _atom_site_hse06_10hf_bader_spin_density
 _atom_site_hse06_10hf_ddec_charge
 _atom_site_hse06_10hf_ddec_spin_density
 _atom_site_hse06_10hf_ddec_sum_bond_order
 _atom_site_hse06_10hf_magmom
 _atom_site_hse06_bader_spin_density
 _atom_site_hse06_ddec_charge
 _atom_site_hse06_ddec_spin_density
 _atom_site_hse06_ddec_sum_bond_order
 _atom_site_hse06_magmom
 _atom_site_pbe_bader_charge
 _atom_site_pbe_bader_spin_density
 _atom_site_pbe_cm5_charge
 _atom_site_pbe_ddec_charge
 _atom_site_pbe_ddec_spin_density
 _atom_site_pbe_ddec_sum_bond_order
 _atom_site_pbe_magmom
Zn  Zn0  1  0.74026765  0.25323481  0.14672697  1  0  1.056274  0  1.837053  0  0  0.868248  0  2.32802  0  0  0.920081  0  2.263498  0  1.282962  0  0.686179  0.831897  0  2.372557  0
Zn  Zn1  1  0.74663830  0.25962900  0.35325020  1  0  1.056028  0  1.836872  0  0  0.868112  0  2.327734  0  0  0.919951  0  2.263208  0  1.282961  0  0.686063  0.831753  0  2.372272  0
Zn  Zn2  1  0.25972949  0.74676559  0.85327292  1  0  1.056252  0  1.837095  0  0  0.868246  0  2.328024  0  0  0.920076  0  2.263503  0  1.283015  0  0.686161  0.831894  0  2.372562  0
Zn  Zn3  1  0.25336349  0.74037140  0.64675011  1  0  1.055929  0  1.836955  0  0  0.867977  0  2.327845  0  0  0.919819  0  2.263322  0  1.28291  0  0.68603  0.831617  0  2.372382  0
H  H4  1  0.33144905  0.46131398  0.13107806  1  0  0.09301  0  0.931416  0  0  0.108466  0  0.991741  0  0  0.110598  0  0.990926  0  0.04319  0  0.094178  0.106962  0  0.992358  0
H  H5  1  0.53875402  0.66848074  0.36893703  1  0  0.093027  0  0.931751  0  0  0.108566  0  0.991858  0  0  0.110693  0  0.991049  0  0.042846  0  0.094261  0.107058  0  0.992483  0
H  H6  1  0.66854924  0.53869009  0.86892285  1  0  0.093022  0  0.931404  0  0  0.108456  0  0.991736  0  0  0.110585  0  0.990924  0  0.043239  0  0.094164  0.106952  0  0.992352  0
H  H7  1  0.46124737  0.33152210  0.63106288  1  0  0.093065  0  0.931752  0  0  0.108605  0  0.991859  0  0  0.110732  0  0.991051  0  0.042922  0  0.094272  0.107097  0  0.992484  0
H  H8  1  0.36043913  0.45050940  0.03087312  1  0  0.111865  0  0.949746  0  0  0.125891  0  1.012536  0  0  0.128327  0  1.012003  0  0.097925  0  0.102002  0.124135  0  1.013007  0
H  H9  1  0.54958468  0.63952952  0.46914195  1  0  0.111922  0  0.949682  0  0  0.125872  0  1.012522  0  0  0.128316  0  1.01197  0  0.098434  0  0.101949  0.124109  0  1.013002  0
H  H10  1  0.63956071  0.54949222  0.96912771  1  0  0.111865  0  0.949778  0  0  0.125875  0  1.012559  0  0  0.128311  0  1.012028  0  0.0979  0  0.101999  0.124123  0  1.013026  0
H  H11  1  0.45041866  0.36046843  0.53085653  1  0  0.111895  0  0.949739  0  0  0.125874  0  1.012536  0  0  0.128316  0  1.011987  0  0.098469  0  0.101937  0.124111  0  1.013017  0
H  H12  1  0.56124995  0.73444564  0.07557661  1  0  0.070745  0  0.939717  0  0  0.085998  0  1.006248  0  0  0.087651  0  1.004986  0  0.044089  0  0.091212  0.084715  0  1.007329  0
H  H13  1  0.26552331  0.43879854  0.42442040  1  0  0.070773  0  0.939904  0  0  0.08607  0  1.006387  0  0  0.087726  0  1.005122  0  0.044437  0  0.09126  0.08479  0  1.007469  0
H  H14  1  0.43875184  0.26555476  0.92442428  1  0  0.070724  0  0.93969  0  0  0.085985  0  1.006228  0  0  0.087638  0  1.004965  0  0.044091  0  0.091197  0.084702  0  1.007307  0
H  H15  1  0.73447963  0.56120186  0.57557885  1  0  0.070772  0  0.939906  0  0  0.086058  0  1.006396  0  0  0.087713  0  1.005134  0  0.044573  0  0.091264  0.084775  0  1.007477  0
H  H16  1  0.36073107  0.72755610  0.08349133  1  0  0.058485  0  0.961874  0  0  0.075417  0  1.025366  0  0  0.075088  0  1.02864  0  0.036142  0  0.08426  0.075635  0  1.023128  0
H  H17  1  0.27239500  0.63921519  0.41649844  1  0  0.058323  0  0.962035  0  0  0.075334  0  1.025437  0  0  0.075006  0  1.028709  0  0.036264  0  0.084213  0.075554  0  1.0232  0
H  H18  1  0.63927070  0.27244797  0.91650931  1  0  0.058482  0  0.96187  0  0  0.075425  0  1.025359  0  0  0.075096  0  1.028631  0  0.036132  0  0.084271  0.075642  0  1.02312  0
H  H19  1  0.72760795  0.36078521  0.58350256  1  0  0.05835  0  0.962044  0  0  0.075363  0  1.025436  0  0  0.075036  0  1.028709  0  0.036241  0  0.084229  0.07558  0  1.023198  0
H  H20  1  0.43861711  0.75070509  0.23361460  1  0  0.095366  0  0.942071  0  0  0.111141  0  1.001857  0  0  0.11325  0  1.001044  0  0.042449  0  0.09763  0.109621  0  1.002528  0
H  H21  1  0.24931443  0.56136942  0.26638430  1  0  0.09517  0  0.942314  0  0  0.111096  0  1.001989  0  0  0.113198  0  1.001178  0  0.041059  0  0.097613  0.109569  0  1.002659  0
H  H22  1  0.56138468  0.24929531  0.76638629  1  0  0.095389  0  0.94203  0  0  0.11119  0  1.00181  0  0  0.113299  0  1.000996  0  0.041564  0  0.09765  0.109666  0  1.002484  0
H  H23  1  0.75068658  0.43863220  0.73361547  1  0  0.095157  0  0.942316  0  0  0.111093  0  1.001996  0  0  0.113184  0  1.001198  0  0.041959  0  0.097607  0.109567  0  1.002666  0
H  H24  1  0.63157700  0.73365309  0.22600642  1  0  0.110574  0  0.913384  0  0  0.129041  0  0.966841  0  0  0.131158  0  0.966337  0  0.06108  0  0.106851  0.127498  0  0.967347  0
H  H25  1  0.26643154  0.36853089  0.27401210  1  0  0.110636  0  0.91349  0  0  0.129055  0  0.967059  0  0  0.131166  0  0.966557  0  0.062012  0  0.106901  0.12751  0  0.967557  0
H  H26  1  0.36842556  0.26634609  0.77399444  1  0  0.110568  0  0.913377  0  0  0.129018  0  0.966879  0  0  0.131131  0  0.966381  0  0.061111  0  0.106861  0.127478  0  0.967378  0
H  H27  1  0.73356985  0.63147196  0.72598723  1  0  0.110628  0  0.913474  0  0  0.129068  0  0.967035  0  0  0.131179  0  0.966533  0  0.062018  0  0.106892  0.127523  0  0.967533  0
H  H28  1  0.59203970  0.00601504  0.43334505  1  0  0.083026  0  0.942272  0  0  0.092626  0  1.005267  0  0  0.095009  0  1.003176  0  0.128227  0  0.119384  0.090812  0  1.006894  0
H  H29  1  0.99391720  0.40785861  0.06661714  1  0  0.083075  0  0.942356  0  0  0.092682  0  1.005364  0  0  0.095054  0  1.003281  0  0.129238  0  0.119462  0.09087  0  1.00699  0
H  H30  1  0.40796208  0.99398903  0.56665676  1  0  0.083052  0  0.942272  0  0  0.092645  0  1.005274  0  0  0.095031  0  1.003182  0  0.128261  0  0.119384  0.090831  0  1.006901  0
H  H31  1  0.00607843  0.59212956  0.93338328  1  0  0.083065  0  0.942303  0  0  0.092666  0  1.005352  0  0  0.095032  0  1.003268  0  0.129159  0  0.11943  0.090853  0  1.006979  0
H  H32  1  0.66372538  0.90487636  0.55948939  1  0  0.130026  0  0.971833  0  0  0.138016  0  1.034833  0  0  0.141918  0  1.032808  0  0.147234  0  0.11046  0.135187  0  1.036465  0
H  H33  1  0.09510730  0.33624314  0.94048193  1  0  0.129866  0  0.971977  0  0  0.137883  0  1.034931  0  0  0.141788  0  1.032896  0  0.147525  0  0.110415  0.13505  0  1.036566  0
H  H34  1  0.33627602  0.09512282  0.44051077  1  0  0.130008  0  0.971822  0  0  0.137998  0  1.034821  0  0  0.141899  0  1.032795  0  0.147159  0  0.110464  0.135167  0  1.036455  0
H  H35  1  0.90488754  0.66374992  0.05951885  1  0  0.129844  0  0.971978  0  0  0.137858  0  1.034945  0  0  0.141762  0  1.032913  0  0.147464  0  0.11039  0.135025  0  1.036579  0
H  H36  1  0.13095886  0.28696455  0.62065754  1  0  0.125082  0  0.962352  0  0  0.133545  0  1.022373  0  0  0.137716  0  1.020365  0  0.133973  0  0.107933  0.130525  0  1.023955  0
H  H37  1  0.71305091  0.86909920  0.87937601  1  0  0.125074  0  0.962744  0  0  0.13366  0  1.02261  0  0  0.137837  0  1.020596  0  0.13475  0  0.108018  0.130637  0  1.024196  0
H  H38  1  0.86904176  0.71303585  0.37934326  1  0  0.125096  0  0.962336  0  0  0.133547  0  1.022375  0  0  0.137718  0  1.020368  0  0.134005  0  0.10794  0.130527  0  1.023958  0
H  H39  1  0.28694315  0.13089508  0.12062132  1  0  0.125039  0  0.962796  0  0  0.133648  0  1.02263  0  0  0.137823  0  1.020617  0  0.134797  0  0.108016  0.130626  0  1.024216  0
H  H40  1  0.04216288  0.36669384  0.49291115  1  0  0.079399  0  0.944247  0  0  0.08798  0  1.010658  0  0  0.090318  0  1.0083  0  0.121053  0  0.118144  0.086227  0  1.012388  0
H  H41  1  0.63326958  0.95783150  0.00711553  1  0  0.079393  0  0.944274  0  0  0.088127  0  1.010517  0  0  0.090481  0  1.008162  0  0.120643  0  0.118213  0.086371  0  1.012248  0
H  H42  1  0.95783929  0.63330778  0.50709047  1  0  0.079425  0  0.944216  0  0  0.088004  0  1.010628  0  0  0.090343  0  1.008268  0  0.121188  0  0.118157  0.086251  0  1.012358  0
H  H43  1  0.36672487  0.04216034  0.99288336  1  0  0.079364  0  0.944284  0  0  0.088084  0  1.01055  0  0  0.090439  0  1.008194  0  0.120711  0  0.118182  0.086328  0  1.012279  0
H  H44  1  0.08975564  0.06078888  0.69116823  1  0  0.077631  0  0.934712  0  0  0.095796  0  0.994162  0  0  0.09625  0  0.994758  0  0.004727  0  0.094355  0.095394  0  0.993792  0
H  H45  1  0.93920968  0.91033736  0.80884941  1  0  0.077548  0  0.934231  0  0  0.095675  0  0.993741  0  0  0.096147  0  0.994314  0  0.005748  0  0.094252  0.095271  0  0.993381  0
H  H46  1  0.91024228  0.93921030  0.30883221  1  0  0.077642  0  0.934682  0  0  0.095786  0  0.99414  0  0  0.096242  0  0.994739  0  0.004724  0  0.094347  0.095385  0  0.99377  0
H  H47  1  0.06078514  0.08965938  0.19114936  1  0  0.077533  0  0.934253  0  0  0.095679  0  0.993737  0  0  0.096151  0  0.99431  0  0.005763  0  0.094245  0.095275  0  0.993377  0
H  H48  1  0.90635272  0.89454878  0.66167227  1  0  0.094024  0  0.93592  0  0  0.111288  0  0.994434  0  0  0.112371  0  0.994519  0  0.037795  0  0.098669  0.110435  0  0.994457  0
H  H49  1  0.10553444  0.09363679  0.83833144  1  0  0.093902  0  0.936031  0  0  0.111145  0  0.994586  0  0  0.112222  0  0.994685  0  0.036942  0  0.098692  0.110307  0  0.99459  0
H  H50  1  0.09364829  0.10545284  0.33832867  1  0  0.09404  0  0.935901  0  0  0.111283  0  0.994413  0  0  0.112369  0  0.994497  0  0.037783  0  0.098649  0.110432  0  0.994434  0
H  H51  1  0.89446077  0.90636117  0.16166923  1  0  0.093902  0  0.935946  0  0  0.11109  0  0.994581  0  0  0.112165  0  0.994681  0  0.036935  0  0.098692  0.110252  0  0.994585  0
H  H52  1  0.76506440  0.05868887  0.73703225  1  0  0.073822  0  0.928353  0  0  0.094737  0  0.983405  0  0  0.095365  0  0.984487  0  0.006421  0  0.091671  0.094206  0  0.982728  0
H  H53  1  0.94129152  0.23483743  0.76295557  1  0  0.073705  0  0.928445  0  0  0.094851  0  0.983232  0  0  0.095489  0  0.984293  0  0.007259  0  0.091724  0.09431  0  0.982561  0
H  H54  1  0.23493660  0.94131642  0.26296726  1  0  0.073835  0  0.928342  0  0  0.094775  0  0.983384  0  0  0.095402  0  0.984466  0  0.006606  0  0.091691  0.094244  0  0.982708  0
H  H55  1  0.05871027  0.76516297  0.23704474  1  0  0.073714  0  0.928435  0  0  0.094851  0  0.983256  0  0  0.095486  0  0.984322  0  0.00725  0  0.091738  0.094314  0  0.982585  0
C  C56  1  0.56609462  0.44762174  0.11553929  1  0  0.684449  0  3.853612  0  0  0.64314  0  4.144543  0  0  0.67578  0  4.139647  0  1.534525  0  0.199398  0.620926  0  4.147082  0
C  C57  1  0.55244225  0.43393318  0.38446204  1  0  0.684431  0  3.854033  0  0  0.642987  0  4.145101  0  0  0.675622  0  4.140212  0  1.533299  0  0.199239  0.62077  0  4.14763  0
C  C58  1  0.43389905  0.55237499  0.88446055  1  0  0.684432  0  3.853711  0  0  0.643154  0  4.144554  0  0  0.675791  0  4.139662  0  1.534538  0  0.199417  0.62094  0  4.147094  0
C  C59  1  0.44756108  0.56606845  0.61553385  1  0  0.684443  0  3.853824  0  0  0.642905  0  4.145015  0  0  0.675542  0  4.140127  0  1.533784  0  0.199255  0.620688  0  4.147542  0
C  C60  1  0.41993835  0.50777218  0.09575497  1  0  -0.268949  0  3.674695  0  0  -0.304481  0  3.921689  0  0  -0.311404  0  3.93122  0  -0.077694  0  -0.169133  -0.299644  0  3.915047  0
C  C61  1  0.49230972  0.58003954  0.40426684  1  0  -0.269089  0  3.675457  0  0  -0.304439  0  3.922077  0  0  -0.311339  0  3.931564  0  -0.078257  0  -0.169004  -0.299598  0  3.915448  0
C  C62  1  0.58006033  0.49222944  0.90424576  1  0  -0.269011  0  3.674733  0  0  -0.304469  0  3.92164  0  0  -0.311383  0  3.931156  0  -0.0777  0  -0.169126  -0.299637  0  3.915002  0
C  C63  1  0.50769168  0.41995964  0.59573158  1  0  -0.269131  0  3.675497  0  0  -0.304483  0  3.922158  0  0  -0.311384  0  3.931651  0  -0.078323  0  -0.169013  -0.299646  0  3.915525  0
C  C64  1  0.46730943  0.69313410  0.10891505  1  0  -0.05707  0  3.708625  0  0  -0.100753  0  3.969092  0  0  -0.10022  0  3.98317  0  0.023129  0  -0.169803  -0.100938  0  3.959396  0
C  C65  1  0.30686910  0.53270318  0.39108940  1  0  -0.057028  0  3.708982  0  0  -0.100796  0  3.969462  0  0  -0.100276  0  3.983536  0  0.023105  0  -0.169936  -0.101  0  3.959766  0
C  C66  1  0.53269274  0.30686752  0.89108599  1  0  -0.057079  0  3.708532  0  0  -0.100786  0  3.969041  0  0  -0.100255  0  3.983117  0  0.02322  0  -0.169841  -0.100973  0  3.959343  0
C  C67  1  0.69313307  0.46729845  0.60891047  1  0  -0.057057  0  3.708934  0  0  -0.100802  0  3.969432  0  0  -0.100283  0  3.983506  0  0.02287  0  -0.169937  -0.100992  0  3.959718  0
C  C68  1  0.53305085  0.77874268  0.19894848  1  0  -0.270398  0  3.684481  0  0  -0.306723  0  3.93646  0  0  -0.313581  0  3.94525  0  -0.061118  0  -0.163728  -0.302015  0  3.93043  0
C  C69  1  0.22128060  0.46698534  0.30105462  1  0  -0.270236  0  3.684543  0  0  -0.306742  0  3.936706  0  0  -0.313609  0  3.945536  0  -0.06157  0  -0.163775  -0.302012  0  3.930664  0
C  C70  1  0.46695094  0.22125772  0.80105241  1  0  -0.270341  0  3.684329  0  0  -0.306725  0  3.936428  0  0  -0.313579  0  3.945214  0  -0.061122  0  -0.163726  -0.302018  0  3.930404  0
C  C71  1  0.77872079  0.53301751  0.69894529  1  0  -0.27021  0  3.684495  0  0  -0.306776  0  3.936743  0  0  -0.313633  0  3.94557  0  -0.061559  0  -0.16379  -0.30205  0  3.930698  0
C  C72  1  0.60654077  0.96275434  0.21718028  1  0  0.726956  0  3.825564  0  0  0.675632  0  4.123837  0  0  0.711271  0  4.115093  0  1.573567  0  0.224476  0.651345  0  4.129067  0
C  C73  1  0.03721510  0.39343987  0.28280486  1  0  0.727355  0  3.825869  0  0  0.67599  0  4.124228  0  0  0.71163  0  4.115485  0  1.574611  0  0.224706  0.651693  0  4.129452  0
C  C74  1  0.39345675  0.03724728  0.78282034  1  0  0.726948  0  3.825546  0  0  0.675625  0  4.123851  0  0  0.711264  0  4.115107  0  1.573608  0  0.224447  0.651334  0  4.129084  0
C  C75  1  0.96278591  0.60656175  0.71719549  1  0  0.727284  0  3.825858  0  0  0.675918  0  4.12423  0  0  0.711558  0  4.115485  0  1.574582  0  0.224662  0.651621  0  4.129455  0
C  C76  1  0.70946458  0.06390403  0.47729619  1  0  0.129537  0  3.712609  0  0  0.097191  0  3.963832  0  0  0.104572  0  3.982945  0  0.423804  0  0.044437  0.09246  0  3.950782  0
C  C77  1  0.93605322  0.29047108  0.02268384  1  0  0.129274  0  3.712872  0  0  0.096824  0  3.964103  0  0  0.104216  0  3.983199  0  0.422035  0  0.044047  0.092089  0  3.951059  0
C  C78  1  0.29053564  0.93610249  0.52270570  1  0  0.129448  0  3.712727  0  0  0.097103  0  3.963939  0  0  0.104482  0  3.983053  0  0.423814  0  0.044406  0.092373  0  3.950889  0
C  C79  1  0.06394510  0.70952198  0.97731667  1  0  0.129211  0  3.712739  0  0  0.096751  0  3.963976  0  0  0.104154  0  3.983066  0  0.42211  0  0.044073  0.092016  0  3.950933  0
C  C80  1  0.75004734  0.00894674  0.54701932  1  0  -0.185139  0  3.684246  0  0  -0.2014  0  3.930189  0  0  -0.210545  0  3.951754  0  -0.028875  0  -0.083281  -0.195521  0  3.915794  0
C  C81  1  0.99102639  0.24993253  0.95296375  1  0  -0.18455  0  3.683889  0  0  -0.200752  0  3.929662  0  0  -0.209886  0  3.951196  0  -0.029392  0  -0.082905  -0.194869  0  3.91527  0
C  C82  1  0.24995600  0.99105122  0.45298032  1  0  -0.184988  0  3.684175  0  0  -0.201262  0  3.930086  0  0  -0.210407  0  3.951651  0  -0.02887  0  -0.083233  -0.195385  0  3.915691  0
C  C83  1  0.00897075  0.75006787  0.04703790  1  0  -0.184432  0  3.683872  0  0  -0.200635  0  3.929644  0  0  -0.209769  0  3.951177  0  -0.029398  0  -0.082854  -0.194755  0  3.915256  0
C  C84  1  0.90445203  0.08640602  0.60064671  1  0  0.172774  0  3.705625  0  0  0.185719  0  3.944826  0  0  0.191584  0  3.966888  0  -0.05851  0  0.019985  0.181953  0  3.929726  0
C  C85  1  0.91359364  0.09557290  0.89935678  1  0  0.172404  0  3.705616  0  0  0.185381  0  3.94473  0  0  0.191253  0  3.966779  0  -0.058391  0  0.019858  0.181612  0  3.92964  0
C  C86  1  0.09554937  0.91359316  0.39935463  1  0  0.17262  0  3.705732  0  0  0.18562  0  3.944819  0  0  0.191488  0  3.966885  0  -0.058447  0  0.019915  0.181855  0  3.92972  0
C  C87  1  0.08640349  0.90443117  0.10064345  1  0  0.172316  0  3.705784  0  0  0.185298  0  3.944905  0  0  0.191171  0  3.966948  0  -0.058283  0  0.019837  0.181528  0  3.929814  0
C  C88  1  0.01011702  0.21888008  0.58140407  1  0  -0.172322  0  3.685706  0  0  -0.188639  0  3.930273  0  0  -0.197973  0  3.951961  0  0.001145  0  -0.083274  -0.182651  0  3.915835  0
C  C89  1  0.78111328  0.98991744  0.91861546  1  0  -0.172323  0  3.686543  0  0  -0.188789  0  3.931138  0  0  -0.19813  0  3.952839  0  0.000989  0  -0.083457  -0.182801  0  3.916701  0
C  C90  1  0.98988400  0.78111788  0.41859712  1  0  -0.172255  0  3.685849  0  0  -0.188596  0  3.93041  0  0  -0.19793  0  3.952098  0  0.001107  0  -0.08329  -0.182609  0  3.915971  0
C  C91  1  0.21888309  0.01008052  0.08138240  1  0  -0.172303  0  3.686772  0  0  -0.188772  0  3.931363  0  0  -0.198114  0  3.953065  0  0.000777  0  -0.083462  -0.182786  0  3.916925  0
C  C92  1  0.96120811  0.26629839  0.51035389  1  0  0.13908  0  3.699068  0  0  0.106228  0  3.951967  0  0  0.114294  0  3.970275  0  0.419564  0  0.048124  0.101036  0  3.939513  0
C  C93  1  0.73367484  0.03878346  0.98966117  1  0  0.138968  0  3.699339  0  0  0.10593  0  3.952283  0  0  0.113967  0  3.970619  0  0.419107  0  0.047932  0.100742  0  3.939829  0
C  C94  1  0.03879406  0.73370324  0.48964715  1  0  0.139018  0  3.699126  0  0  0.106178  0  3.952022  0  0  0.114243  0  3.970331  0  0.419316  0  0.048106  0.100988  0  3.939567  0
C  C95  1  0.26632347  0.96121328  0.01033908  1  0  0.139038  0  3.699447  0  0  0.105997  0  3.952394  0  0  0.114033  0  3.970736  0  0.419017  0  0.047981  0.100814  0  3.939935  0
C  C96  1  0.95552884  0.02863934  0.67544745  1  0  -0.164681  0  3.68892  0  0  -0.205346  0  3.940073  0  0  -0.2067  0  3.95183  0  0.058514  0  -0.158953  -0.204177  0  3.931723  0
C  C97  1  0.97138415  0.04450496  0.82456188  1  0  -0.16434  0  3.688352  0  0  -0.205023  0  3.939511  0  0  -0.206391  0  3.951286  0  0.058815  0  -0.158841  -0.203862  0  3.931159  0
C  C98  1  0.04447178  0.97136106  0.32455334  1  0  -0.164766  0  3.688908  0  0  -0.205339  0  3.939951  0  0  -0.206705  0  3.951723  0  0.058573  0  -0.158933  -0.204171  0  3.931602  0
C  C99  1  0.02861145  0.95549421  0.17543777  1  0  -0.164299  0  3.688239  0  0  -0.204955  0  3.939454  0  0  -0.206321  0  3.951227  0  0.058775  0  -0.158846  -0.203794  0  3.931104  0
C  C100  1  0.89972185  0.10024747  0.74999731  1  0  -0.08527  0  3.643886  0  0  -0.124381  0  3.900263  0  0  -0.126401  0  3.914591  0  0.045395  0  -0.154148  -0.12276  0  3.890108  0
C  C101  1  0.10027877  0.89975293  0.25000173  1  0  -0.085211  0  3.643799  0  0  -0.124393  0  3.900234  0  0  -0.126411  0  3.914564  0  0.045242  0  -0.154141  -0.122778  0  3.890086  0
N  N102  1  0.81342092  0.19023340  0.45869011  1  0  -0.351319  0  3.318938  0  0  -0.266066  0  3.596848  0  0  -0.286984  0  3.611679  0  -1.271966  0  -0.33729  -0.251938  0  3.586599  0
N  N103  1  0.80971805  0.18653118  0.04130487  1  0  -0.351219  0  3.319109  0  0  -0.265805  0  3.596864  0  0  -0.286734  0  3.611726  0  -1.271263  0  -0.337074  -0.251681  0  3.586619  0
N  N104  1  0.18658241  0.80977189  0.54131078  1  0  -0.351254  0  3.319017  0  0  -0.266004  0  3.596924  0  0  -0.286922  0  3.611756  0  -1.271885  0  -0.337238  -0.251875  0  3.586671  0
N  N105  1  0.19027832  0.81346678  0.95869415  1  0  -0.351198  0  3.319091  0  0  -0.26579  0  3.596871  0  0  -0.28671  0  3.611708  0  -1.271105  0  -0.337083  -0.251666  0  3.586626  0
O  O106  1  0.53859363  0.31284220  0.14089526  1  0  -0.670048  0  2.016927  0  0  -0.595612  0  2.284752  0  0  -0.625903  0  2.269186  0  -1.165831  0  -0.339635  -0.574323  0  2.294654  0
O  O107  1  0.68723599  0.46134333  0.35907470  1  0  -0.669992  0  2.017691  0  0  -0.595503  0  2.285451  0  0  -0.625797  0  2.269899  0  -1.164266  0  -0.339598  -0.574228  0  2.295381  0
O  O108  1  0.46140081  0.68715698  0.85910487  1  0  -0.670009  0  2.016893  0  0  -0.595602  0  2.284728  0  0  -0.625896  0  2.269167  0  -1.165842  0  -0.339632  -0.574305  0  2.29461  0
O  O109  1  0.31276231  0.53865707  0.64091830  1  0  -0.669944  0  2.017492  0  0  -0.595431  0  2.285301  0  0  -0.625726  0  2.269752  0  -1.164577  0  -0.339622  -0.574154  0  2.295228  0
O  O110  1  0.70307268  0.52080151  0.10512947  1  0  -0.629072  0  1.908909  0  0  -0.576737  0  2.130681  0  0  -0.600846  0  2.122147  0  -1.193895  0  -0.32332  -0.559848  0  2.136048  0
O  O111  1  0.47917517  0.29702305  0.39487596  1  0  -0.629113  0  1.908282  0  0  -0.576745  0  2.130088  0  0  -0.600862  0  2.121555  0  -1.193901  0  -0.323291  -0.559845  0  2.135452  0
O  O112  1  0.29692447  0.47919522  0.89487068  1  0  -0.62903  0  1.909014  0  0  -0.576719  0  2.130771  0  0  -0.600821  0  2.122231  0  -1.193982  0  -0.32331  -0.559833  0  2.136138  0
O  O113  1  0.52082932  0.70297857  0.60512237  1  0  -0.629088  0  1.908301  0  0  -0.576681  0  2.130157  0  0  -0.600798  0  2.12163  0  -1.194044  0  -0.323261  -0.559782  0  2.13552  0
O  O114  1  0.61063676  0.04079418  0.28816473  1  0  -0.65466  0  2.098014  0  0  -0.58667  0  2.386367  0  0  -0.614808  0  2.366708  0  -1.191162  0  -0.322284  -0.567102  0  2.399224  0
O  O115  1  0.95913074  0.38933526  0.21181741  1  0  -0.654978  0  2.098443  0  0  -0.586863  0  2.386728  0  0  -0.614988  0  2.367061  0  -1.19109  0  -0.322448  -0.567291  0  2.399576  0
O  O116  1  0.38937007  0.95920378  0.71183699  1  0  -0.654645  0  2.098057  0  0  -0.586625  0  2.386376  0  0  -0.61477  0  2.366733  0  -1.191216  0  -0.32225  -0.567056  0  2.399235  0
O  O117  1  0.04086795  0.61066636  0.78818273  1  0  -0.654972  0  2.098469  0  0  -0.586853  0  2.386758  0  0  -0.614979  0  2.36709  0  -1.191105  0  -0.322435  -0.567283  0  2.399606  0
O  O118  1  0.97472464  0.33645596  0.33730332  1  0  -0.645619  0  2.103595  0  0  -0.571606  0  2.385648  0  0  -0.60056  0  2.3694  0  -1.196443  0  -0.311526  -0.551529  0  2.39626  0
O  O119  1  0.66348495  0.02525633  0.16267464  1  0  -0.645604  0  2.103669  0  0  -0.571489  0  2.385545  0  0  -0.600444  0  2.369306  0  -1.195385  0  -0.31146  -0.551414  0  2.396153  0
O  O120  1  0.02527792  0.66354689  0.66269787  1  0  -0.645541  0  2.103604  0  0  -0.571485  0  2.385615  0  0  -0.600438  0  2.369367  0  -1.196365  0  -0.311481  -0.551409  0  2.396227  0
O  O121  1  0.33651567  0.97474407  0.83732616  1  0  -0.645633  0  2.10367  0  0  -0.571495  0  2.385533  0  0  -0.60045  0  2.369294  0  -1.195437  0  -0.311449  -0.55142  0  2.396142  0
