# generated using pymatgen
data_FeH4Pt(C4N3)2
_symmetry_space_group_name_H-M   'P 1'
_cell_length_a   6.71203339
_cell_length_b   7.18590718
_cell_length_c   7.05023025
_cell_angle_alpha   89.99968175
_cell_angle_beta   89.99995878
_cell_angle_gamma   90.00007185
_symmetry_Int_Tables_number   1
_chemical_formula_structural   FeH4Pt(C4N3)2
_chemical_formula_sum   'Fe1 H4 Pt1 C8 N6'
_cell_volume   340.04705062
_cell_formula_units_Z   1
loop_
 _symmetry_equiv_pos_site_id
 _symmetry_equiv_pos_as_xyz
  1  'x, y, z'
loop_
 _atom_site_type_symbol
 _atom_site_label
 _atom_site_symmetry_multiplicity
 _atom_site_fract_x
 _atom_site_fract_y
 _atom_site_fract_z
 _atom_site_occupancy
 _atom_site_pbe_bader_charge
 _atom_site_pbe_bader_spin_density
 _atom_site_pbe_cm5_charge
 _atom_site_pbe_ddec_charge
 _atom_site_pbe_ddec_spin_density
 _atom_site_pbe_ddec_sum_bond_order
 _atom_site_pbe_magmom
Fe  Fe0  1  0.49999929  0.99999086  0.99998719  1  1.261576  0  0.91758  0.583586  0  3.97957  0
H  H1  1  0.18670395  0.71080807  0.00000371  1  0.132372  0  0.132558  0.111901  0  0.991402  0
H  H2  1  0.81329621  0.28920127  0.00000320  1  0.131219  0  0.132529  0.111831  0  0.991441  0
H  H3  1  0.81329649  0.71080705  0.00000207  1  0.132362  0  0.132557  0.111893  0  0.991423  0
H  H4  1  0.18670516  0.28920229  0.00000342  1  0.131208  0  0.132526  0.111825  0  0.991421  0
Pt  Pt5  1  0.49999766  0.50001088  0.50002329  1  0.547536  0  0.504352  0.06616  0  4.760234  0
C  C6  1  0.50000341  0.30403646  0.69607983  1  0.812894  0  -0.001988  0.042029  0  3.931226  0
C  C7  1  0.50000367  0.69594800  0.69607736  1  0.812598  0  -0.002057  0.041811  0  3.931379  0
C  C8  1  0.50000356  0.30403063  0.30390682  1  0.811616  0  -0.001849  0.041941  0  3.930859  0
C  C9  1  0.49999935  0.69595609  0.30390861  1  0.811447  0  -0.001938  0.041869  0  3.931079  0
C  C10  1  0.10313324  0.84026418  0.00000481  1  0.578494  0  0.06129  0.039442  0  3.883093  0
C  C11  1  0.89686543  0.15974237  0.00000494  1  0.578495  0  0.061324  0.039492  0  3.882992  0
C  C12  1  0.89686737  0.84026326  0.00000453  1  0.399789  0  0.061299  0.039445  0  3.88312  0
C  C13  1  0.10313428  0.15974329  0.00000521  1  0.401055  0  0.061341  0.03953  0  3.882907  0
N  N14  1  0.49999882  0.18688042  0.81147353  1  -1.306632  0  -0.390435  -0.307007  0  3.620673  0
N  N15  1  0.49999775  0.81311451  0.81148462  1  -1.306493  0  -0.390503  -0.306964  0  3.620665  0
N  N16  1  0.49999906  0.18688500  0.18852083  1  -1.30516  0  -0.390446  -0.306892  0  3.62083  0
N  N17  1  0.49999798  0.81311490  0.18851490  1  -1.305124  0  -0.390514  -0.306967  0  3.620844  0
N  N18  1  0.20909423  0.00000282  0.99999847  1  -1.159637  0  -0.313816  -0.097472  0  3.587126  0
N  N19  1  0.79090451  0.00000038  0.99999827  1  -1.159617  0  -0.313811  -0.097452  0  3.587139  0
