# generated using pymatgen
data_ZnH27C31I4NO8
_symmetry_space_group_name_H-M   'P 1'
_cell_length_a   10.87561840
_cell_length_b   18.46483840
_cell_length_c   18.81028155
_cell_angle_alpha   90.16749287
_cell_angle_beta   91.31702817
_cell_angle_gamma   89.79796105
_symmetry_Int_Tables_number   1
_chemical_formula_structural   ZnH27C31I4NO8
_chemical_formula_sum   'Zn2 H54 C62 I8 N2 O16'
_cell_volume   3776.37893778
_cell_formula_units_Z   2
loop_
 _symmetry_equiv_pos_site_id
 _symmetry_equiv_pos_as_xyz
  1  'x, y, z'
loop_
 _atom_site_type_symbol
 _atom_site_label
 _atom_site_symmetry_multiplicity
 _atom_site_fract_x
 _atom_site_fract_y
 _atom_site_fract_z
 _atom_site_occupancy
 _atom_site_pbe_bader_charge
 _atom_site_pbe_bader_spin_density
 _atom_site_pbe_cm5_charge
 _atom_site_pbe_ddec_charge
 _atom_site_pbe_ddec_spin_density
 _atom_site_pbe_ddec_sum_bond_order
 _atom_site_pbe_magmom
Zn  Zn0  1  0.51602672  0.41708693  0.50173338  1  1.288095  0  0.677626  0.841595  0  2.376196  0
Zn  Zn1  1  0.51247732  0.58144752  0.50573827  1  1.333379  0  0.699951  0.917339  0  2.29498  0
H  H2  1  0.56771676  0.30182500  0.60858433  1  0.135827  0  0.125163  0.105  0  0.984016  0
H  H3  1  0.45073160  0.30219672  0.39816829  1  0.134185  0  0.123621  0.102917  0  0.994531  0
H  H4  1  0.56565107  0.16621326  0.61387079  1  0.056254  0  0.110769  0.119101  0  0.990195  0
H  H5  1  0.43632992  0.16676157  0.39494272  1  0.069595  0  0.110855  0.119431  0  0.989805  0
H  H6  1  0.56447379  0.06829460  0.39651400  1  0.067914  0  0.101721  0.110652  0  1.049638  0
H  H7  1  0.43514966  0.06594203  0.61109705  1  0.069928  0  0.102223  0.111767  0  1.04635  0
H  H8  1  0.88899019  0.34111036  0.54520207  1  0.127308  0  0.102569  0.119594  0  0.972446  0
H  H9  1  0.14219598  0.33655941  0.47415835  1  0.112494  0  0.09989  0.116739  0  0.978728  0
H  H10  1  0.37168496  0.58689145  0.85555160  1  0.1328  0  0.104236  0.117311  0  1.01409  0
H  H11  1  0.46339527  0.56304527  0.12931169  1  0.091717  0  0.106287  0.122128  0  0.988227  0
H  H12  1  0.42491109  0.37717635  0.69627084  1  0.119637  0  0.098973  0.115199  0  1.036781  0
H  H13  1  0.28598054  0.40352668  0.31160746  1  0.088415  0  0.106345  0.122473  0  0.991319  0
H  H14  1  0.43092537  0.38074012  0.06958528  1  0.08327  0  0.100784  0.110262  0  0.987346  0
H  H15  1  0.44387807  0.37713331  0.93830739  1  0.067741  0  0.093832  0.10398  0  1.009961  0
H  H16  1  0.68512223  0.99583852  0.33445753  1  0.03939  0  0.100282  0.058024  0  0.965394  0
H  H17  1  0.53087831  0.98784204  0.30039970  1  0.045963  0  0.10211  0.061167  0  0.959057  0
H  H18  1  0.57809691  0.86063430  0.25890668  1  0.052079  0  0.097581  0.134312  0  0.988982  0
H  H19  1  0.67877761  0.92473177  0.22035974  1  0.046923  0  0.096978  0.128894  0  0.993108  0
H  H20  1  0.73189177  0.86967465  0.29234186  1  0.044695  0  0.093619  0.1269  0  0.994401  0
H  H21  1  0.46236283  0.98387659  0.70624711  1  0.050616  0  0.101499  0.061283  0  0.959053  0
H  H22  1  0.31076491  0.99047360  0.66783196  1  0.034291  0  0.100383  0.058637  0  0.966301  0
H  H23  1  0.31008524  0.91714447  0.78009608  1  0.048977  0  0.097763  0.131055  0  0.989829  0
H  H24  1  0.26717480  0.86264148  0.70543731  1  0.050911  0  0.093052  0.127528  0  0.994691  0
H  H25  1  0.41794596  0.85537666  0.74367131  1  0.04661  0  0.09166  0.12972  0  1.000331  0
H  H26  1  0.74555866  0.87833327  0.47214468  1  0.065704  0  0.095994  0.057827  0  1.014037  0
H  H27  1  0.86115495  0.83356650  0.52460775  1  0.021456  0  0.085221  0.040274  0  1.014684  0
H  H28  1  0.86625448  0.94078283  0.60913508  1  0.055594  0  0.091561  0.126326  0  0.988723  0
H  H29  1  0.90062303  0.96747497  0.52098251  1  0.02432  0  0.089903  0.118941  0  1.015413  0
H  H30  1  0.75192198  0.98496936  0.55505582  1  0.021367  0  0.087451  0.12365  0  1.018499  0
H  H31  1  0.15165834  0.82312817  0.47558416  1  0.04274  0  0.08485  0.044099  0  1.014691  0
H  H32  1  0.26089372  0.87291617  0.52817622  1  0.053173  0  0.095135  0.056799  0  1.011211  0
H  H33  1  0.13776799  0.92817684  0.38910162  1  0.04115  0  0.09111  0.12543  0  0.991777  0
H  H34  1  0.09824344  0.95580019  0.47641992  1  0.021604  0  0.088981  0.118444  0  1.018834  0
H  H35  1  0.24594387  0.97706685  0.44327012  1  0.046564  0  0.087369  0.122892  0  1.015937  0
H  H36  1  0.71785036  0.74677380  0.66671057  1  0.057897  0  0.095094  0.062217  0  0.985825  0
H  H37  1  0.83521178  0.74190037  0.60177920  1  0.041109  0  0.087253  0.041106  0  1.042165  0
H  H38  1  0.86178606  0.60920744  0.62529390  1  0.022699  0  0.082806  0.123499  0  1.0203  0
H  H39  1  0.88809788  0.66133600  0.70363807  1  0.018402  0  0.08843  0.122297  0  1.01468  0
H  H40  1  0.74623468  0.61362226  0.69092172  1  0.026665  0  0.083831  0.128014  0  1.021846  0
H  H41  1  0.40330962  0.68022084  0.32547066  1  0.081906  0  0.082104  0.044383  0  1.045239  0
H  H42  1  0.29781682  0.75289601  0.34295123  1  0.084552  0  0.097223  0.061321  0  1.008676  0
H  H43  1  0.12774330  0.66288200  0.35778296  1  0.043052  0  0.071225  0.097511  0  1.070925  0
H  H44  1  0.19649691  0.65041957  0.27339659  1  0.019114  0  0.090832  0.125221  0  0.992115  0
H  H45  1  0.23399663  0.59045422  0.34450053  1  0.077574  0  0.087904  0.132353  0  1.00815  0
H  H46  1  0.99881587  0.51333809  0.89867268  1  0.0446  0  0.095289  0.053268  0  0.973909  0
H  H47  1  0.11737868  0.48285560  0.84176206  1  0.057521  0  0.091479  0.049707  0  1.018175  0
H  H48  1  0.11731766  0.60231374  0.77944805  1  0.048823  0  0.087818  0.122138  0  1.015807  0
H  H49  1  0.96746308  0.56368005  0.77672498  1  0.022326  0  0.095823  0.134337  0  0.992611  0
H  H50  1  0.00185747  0.63547417  0.83727570  1  0.049959  0  0.091495  0.125325  0  0.991851  0
H  H51  1  0.05220275  0.61327054  0.13102271  1  0.054746  0  0.105948  0.07423  0  0.95059  0
H  H52  1  0.10960647  0.52502726  0.14995367  1  0.049918  0  0.084837  0.043889  0  1.046418  0
H  H53  1  0.92696489  0.56351057  0.02764009  1  0.053297  0  0.090681  0.128392  0  0.993987  0
H  H54  1  0.88961485  0.51901677  0.10834414  1  0.041196  0  0.089373  0.125089  0  1.00373  0
H  H55  1  0.98540879  0.47480328  0.04636042  1  0.026922  0  0.081871  0.111744  0  1.027101  0
C  C56  1  0.45648286  0.48801597  0.36890757  1  1.619971  0  0.210705  0.59506  0  4.196592  0
C  C57  1  0.51922140  0.49074433  0.63898184  1  1.612319  0  0.208848  0.593968  0  4.177122  0
C  C58  1  0.35861417  0.41356201  0.79770344  1  -0.294027  0  -0.049784  0.010027  0  3.882089  0
C  C59  1  0.28110867  0.43524152  0.20095177  1  -0.249001  0  -0.047982  0.009609  0  3.907062  0
C  C60  1  0.41437889  0.42247217  0.73271695  1  -0.004475  0  -0.095603  -0.123812  0  3.989198  0
C  C61  1  0.32332465  0.43903597  0.27136406  1  0.034675  0  -0.091093  -0.129467  0  3.974828  0
C  C62  1  0.45748042  0.49008149  0.70992365  1  0.055089  0  -0.019595  -0.05043  0  3.912416  0
C  C63  1  0.41622759  0.48771639  0.29183393  1  -0.027915  0  -0.013886  -0.036271  0  3.947091  0
C  C64  1  0.23738900  0.51522332  0.95456090  1  0.551899  0  0.078233  0.11531  0  4.01697  0
C  C65  1  0.23503786  0.52002492  0.02964182  1  0.487295  0  0.076482  0.117897  0  4.029872  0
C  C66  1  0.30689729  0.47173833  0.07097117  1  0.00852  0  -0.025506  -0.030858  0  4.037117  0
C  C67  1  0.31678234  0.46563994  0.92132984  1  0.018509  0  -0.026061  -0.036472  0  4.037918  0
C  C68  1  0.37577480  0.41792874  0.03703434  1  -0.00866  0  -0.102823  -0.132165  0  4.044603  0
C  C69  1  0.38217454  0.41549500  0.96355572  1  -0.096363  0  -0.105617  -0.127577  0  4.050097  0
C  C70  1  0.54006336  0.26905909  0.56265054  1  0.450146  0  0.054232  0.098741  0  3.940913  0
C  C71  1  0.47401403  0.26927451  0.44462036  1  0.456622  0  0.054  0.100706  0  3.937427  0
C  C72  1  0.53703432  0.19398202  0.56517760  1  -0.006991  0  -0.082367  -0.177297  0  3.949499  0
C  C73  1  0.46803279  0.19427656  0.44324572  1  -0.033981  0  -0.08338  -0.178529  0  3.948235  0
C  C74  1  0.50091801  0.15451984  0.50433594  1  -0.012006  0  0.016631  0.121706  0  3.969719  0
C  C75  1  0.53480632  0.03771218  0.44228487  1  -0.012707  0  -0.12173  -0.306787  0  4.021644  0
C  C76  1  0.46522301  0.03642347  0.56447903  1  0.03269  0  -0.120963  -0.304824  0  4.017108  0
C  C77  1  0.28149877  0.50516552  0.52423871  1  1.588717  0  0.211297  0.596957  0  4.182341  0
C  C78  1  0.74360263  0.50221429  0.48100432  1  1.615459  0  0.216682  0.603133  0  4.176151  0
C  C79  1  0.53721143  0.96196732  0.44191175  1  0.480498  0  0.089051  0.235514  0  4.07552  0
C  C80  1  0.46557972  0.96060007  0.56308744  1  0.433547  0  0.089501  0.236182  0  4.073351  0
C  C81  1  0.50261467  0.92276008  0.50213888  1  0.088726  0  -0.02164  -0.117114  0  3.96675  0
C  C82  1  0.49976032  0.07466156  0.50386155  1  0.042307  0  -0.010731  0.108126  0  4.059498  0
C  C83  1  0.60052787  0.80607642  0.53851433  1  0.575051  0  0.062822  0.039086  0  4.070915  0
C  C84  1  0.41508677  0.80375678  0.46394829  1  0.532984  0  0.064448  0.039926  0  4.09006  0
C  C85  1  0.59728699  0.72987435  0.54034896  1  1.081052  0  0.203191  0.298981  0  4.112977  0
C  C86  1  0.42340651  0.72786518  0.46303350  1  1.14698  0  0.204952  0.308494  0  4.107609  0
C  C87  1  0.50598441  0.84263319  0.50137135  1  0.010932  0  -0.004737  -0.025558  0  4.058018  0
C  C88  1  0.07705817  0.44591708  0.50920488  1  0.024793  0  -0.011515  0.04862  0  3.92303  0
C  C89  1  0.95058521  0.44492028  0.49698157  1  0.002969  0  -0.011538  0.045148  0  3.91636  0
C  C90  1  0.14382734  0.50965722  0.51888448  1  0.042329  0  -0.011909  -0.074878  0  3.909307  0
C  C91  1  0.88133443  0.50759345  0.48430714  1  0.056683  0  -0.010528  -0.074149  0  3.905759  0
C  C92  1  0.07320871  0.57415214  0.51359829  1  -0.149946  0  -0.036134  0.017475  0  3.802553  0
C  C93  1  0.94954990  0.57285120  0.48738001  1  -0.230662  0  -0.037766  0.012189  0  3.808439  0
C  C94  1  0.94337191  0.36388213  0.50258308  1  -0.148334  0  -0.092406  -0.048075  0  3.714469  0
C  C95  1  0.08717086  0.36486652  0.51348937  1  -0.126602  0  -0.096472  -0.057669  0  3.716557  0
C  C96  1  0.43425337  0.55019757  0.75380265  1  -0.238728  0  -0.038573  0.057742  0  3.86688  0
C  C97  1  0.46557502  0.53298646  0.24014968  1  -0.198704  0  -0.042724  0.04591  0  3.891802  0
C  C98  1  0.38374654  0.54040471  0.82062146  1  -0.034325  0  -0.093067  -0.163105  0  3.951565  0
C  C99  1  0.42236444  0.52946135  0.16988967  1  -0.004921  0  -0.090211  -0.15415  0  3.950439  0
C  C100  1  0.34819460  0.47195625  0.84547369  1  0.047745  0  -0.004177  0.075214  0  3.986016  0
C  C101  1  0.33026577  0.48016373  0.14872904  1  0.023897  0  -0.008372  0.062888  0  3.998272  0
C  C102  1  0.61047945  0.95715709  0.32203618  1  0.411317  0  -0.061391  0.092714  0  3.912631  0
C  C103  1  0.65213131  0.89946257  0.27047064  1  -0.070779  0  -0.239696  -0.397302  0  3.977497  0
C  C104  1  0.38630284  0.95258037  0.68157065  1  0.417385  0  -0.061468  0.091406  0  3.914762  0
C  C105  1  0.34300030  0.89332267  0.73042395  1  -0.080585  0  -0.240917  -0.397259  0  3.9742  0
C  C106  1  0.78511097  0.87336605  0.52629882  1  0.405024  0  -0.071149  0.084401  0  3.887998  0
C  C107  1  0.82826418  0.94589872  0.55477030  1  -0.058044  0  -0.245597  -0.387098  0  3.967493  0
C  C108  1  0.22315215  0.86531979  0.47387195  1  0.406094  0  -0.071386  0.08636  0  3.882634  0
C  C109  1  0.17360702  0.93573924  0.44366185  1  -0.078138  0  -0.246341  -0.389258  0  3.97564  0
C  C110  1  0.76385980  0.71103378  0.62876955  1  0.380837  0  -0.069944  0.089613  0  3.8864  0
C  C111  1  0.81767270  0.64451068  0.66429601  1  0.028275  0  -0.254647  -0.401557  0  3.965331  0
C  C112  1  0.31864489  0.69550847  0.35275733  1  0.321195  0  -0.07005  0.096512  0  3.847853  0
C  C113  1  0.21255150  0.64693553  0.33120121  1  -0.070459  0  -0.251563  -0.383415  0  3.954101  0
C  C114  1  0.07755579  0.53111053  0.86715472  1  0.372252  0  -0.066306  0.090797  0  3.905864  0
C  C115  1  0.03923220  0.58666156  0.81202969  1  -0.045242  0  -0.245028  -0.396817  0  3.974299  0
C  C116  1  0.07440271  0.56057745  0.10720404  1  0.40789  0  -0.069295  0.088584  0  3.907758  0
C  C117  1  0.96268721  0.52763576  0.06982990  1  -0.092147  0  -0.251352  -0.40929  0  3.98636  0
I  I118  1  0.13926566  0.67149094  0.55966118  1  0.173887  0  0.109378  0.009821  0  1.736222  0
I  I119  1  0.87710333  0.66886680  0.44119440  1  0.156071  0  0.103924  0.008226  0  1.730141  0
I  I120  1  0.88162650  0.30558925  0.40739005  1  -0.007941  0  -0.021703  -0.117613  0  1.208255  0
I  I121  1  0.15190819  0.32237176  0.61589022  1  0.00459  0  -0.011889  -0.116426  0  1.363741  0
I  I122  1  0.46423745  0.65946003  0.72604541  1  0.117739  0  0.07662  -0.030019  0  1.534139  0
I  I123  1  0.61787470  0.60042273  0.26345629  1  0.10469  0  0.0634  -0.04562  0  1.438499  0
I  I124  1  0.28215620  0.31067186  0.81854100  1  0.068516  0  0.045223  -0.061234  0  1.425301  0
I  I125  1  0.14366847  0.35883686  0.17432329  1  0.085574  0  0.05484  -0.060916  0  1.371244  0
N  N126  1  0.50966421  0.30618505  0.50332084  1  -1.235903  0  -0.324833  -0.212671  0  3.536456  0
N  N127  1  0.51117307  0.69322990  0.50182146  1  -1.251694  0  -0.336115  -0.38868  0  3.517997  0
O  O128  1  0.48609163  0.42646394  0.39456373  1  -1.156301  0  -0.31544  -0.542711  0  2.332916  0
O  O129  1  0.52877228  0.42877550  0.60892099  1  -1.169426  0  -0.325616  -0.558407  0  2.367784  0
O  O130  1  0.45313332  0.54792876  0.40120927  1  -1.167374  0  -0.299337  -0.538399  0  2.374097  0
O  O131  1  0.55505566  0.55005228  0.61347123  1  -1.172316  0  -0.310812  -0.541147  0  2.374303  0
O  O132  1  0.32685813  0.44337709  0.51017085  1  -1.151641  0  -0.306998  -0.535316  0  2.32301  0
O  O133  1  0.70091158  0.43924144  0.49123097  1  -1.152344  0  -0.305745  -0.524984  0  2.337816  0
O  O134  1  0.34037670  0.56269577  0.53814444  1  -1.166358  0  -0.310697  -0.534948  0  2.471892  0
O  O135  1  0.68262171  0.56025630  0.47326512  1  -1.172728  0  -0.31281  -0.543095  0  2.493483  0
O  O136  1  0.57556403  0.92103317  0.38616196  1  -1.068355  0  -0.176414  -0.199647  0  2.552734  0
O  O137  1  0.42853877  0.91821511  0.61775313  1  -1.075531  0  -0.176805  -0.198861  0  2.554157  0
O  O138  1  0.69176047  0.84519839  0.57290350  1  -1.07271  0  -0.204333  -0.219375  0  2.530219  0
O  O139  1  0.32080478  0.83927111  0.42854268  1  -1.065985  0  -0.201839  -0.21628  0  2.52665  0
O  O140  1  0.67379945  0.68564530  0.57630863  1  -1.075239  0  -0.163444  -0.191075  0  2.639224  0
O  O141  1  0.34206224  0.68474370  0.42882867  1  -1.07246  0  -0.17787  -0.214455  0  2.590553  0
O  O142  1  0.16749357  0.56354239  0.91558449  1  -1.070745  0  -0.199818  -0.218716  0  2.518602  0
O  O143  1  0.17145576  0.57696646  0.05832613  1  -1.059915  0  -0.205585  -0.225  0  2.512257  0
