# generated using pymatgen
data_AgH12C13S2ClO4
_symmetry_space_group_name_H-M   'P 1'
_cell_length_a   9.31122922
_cell_length_b   11.01171947
_cell_length_c   14.56230000
_cell_angle_alpha   90.00000000
_cell_angle_beta   96.68033533
_cell_angle_gamma   90.00000000
_symmetry_Int_Tables_number   1
_chemical_formula_structural   AgH12C13S2ClO4
_chemical_formula_sum   'Ag4 H48 C52 S8 Cl4 O16'
_cell_volume   1482.97384399
_cell_formula_units_Z   4
loop_
 _symmetry_equiv_pos_site_id
 _symmetry_equiv_pos_as_xyz
  1  'x, y, z'
loop_
 _atom_site_type_symbol
 _atom_site_label
 _atom_site_symmetry_multiplicity
 _atom_site_fract_x
 _atom_site_fract_y
 _atom_site_fract_z
 _atom_site_occupancy
 _atom_site_hle17_bader_spin_density
 _atom_site_hle17_ddec_charge
 _atom_site_hle17_ddec_spin_density
 _atom_site_hle17_ddec_sum_bond_order
 _atom_site_hle17_magmom
 _atom_site_hse06_10hf_bader_spin_density
 _atom_site_hse06_10hf_ddec_charge
 _atom_site_hse06_10hf_ddec_spin_density
 _atom_site_hse06_10hf_ddec_sum_bond_order
 _atom_site_hse06_10hf_magmom
 _atom_site_hse06_bader_spin_density
 _atom_site_hse06_ddec_charge
 _atom_site_hse06_ddec_spin_density
 _atom_site_hse06_ddec_sum_bond_order
 _atom_site_hse06_magmom
 _atom_site_pbe_bader_charge
 _atom_site_pbe_bader_spin_density
 _atom_site_pbe_cm5_charge
 _atom_site_pbe_ddec_charge
 _atom_site_pbe_ddec_spin_density
 _atom_site_pbe_ddec_sum_bond_order
 _atom_site_pbe_magmom
Ag  Ag0  1  0.84691717  0.40653233  0.32762741  1  0  0.432645  0  1.577765  0  0  0.320699  0  2.035123  0  0  0.339124  0  1.997811  0  0.515685  0  0.394857  0.310321  0  2.05939  0
Ag  Ag1  1  0.65308307  0.90653236  0.17237267  1  0  0.432637  0  1.577763  0  0  0.320694  0  2.03512  0  0  0.339121  0  1.997805  0  0.515697  0  0.394853  0.310314  0  2.059387  0
Ag  Ag2  1  0.15308371  0.59346862  0.67237293  1  0  0.432662  0  1.57775  0  0  0.320697  0  2.035129  0  0  0.339123  0  1.997814  0  0.515682  0  0.394861  0.310319  0  2.059398  0
Ag  Ag3  1  0.34691673  0.09346860  0.82762758  1  0  0.432647  0  1.577776  0  0  0.320697  0  2.035164  0  0  0.339122  0  1.997851  0  0.515693  0  0.394858  0.310316  0  2.059431  0
H  H4  1  0.99820590  0.22027350  0.45802453  1  0  0.103216  0  0.972375  0  0  0.11261  0  1.039367  0  0  0.115372  0  1.037242  0  0.128298  0  0.097987  0.110531  0  1.041018  0
H  H5  1  0.50179650  0.72027443  0.04197503  1  0  0.103138  0  0.972428  0  0  0.112531  0  1.039426  0  0  0.115297  0  1.037287  0  0.12825  0  0.097939  0.110452  0  1.041077  0
H  H6  1  0.00179498  0.77972655  0.54197581  1  0  0.103211  0  0.972369  0  0  0.112608  0  1.039359  0  0  0.11537  0  1.037235  0  0.128297  0  0.097987  0.110529  0  1.04101  0
H  H7  1  0.49820438  0.27972743  0.95802463  1  0  0.103209  0  0.972361  0  0  0.112603  0  1.039354  0  0  0.115363  0  1.037231  0  0.128282  0  0.097977  0.110524  0  1.041005  0
H  H8  1  0.15044423  0.09089044  0.57072216  1  0  0.076114  0  0.992781  0  0  0.08101  0  1.0669  0  0  0.082881  0  1.067825  0  0.058043  0  0.088772  0.079538  0  1.066543  0
H  H9  1  0.34955729  0.59088865  0.92927775  1  0  0.076087  0  0.992863  0  0  0.080977  0  1.066984  0  0  0.082849  0  1.067908  0  0.058197  0  0.08877  0.079506  0  1.066625  0
H  H10  1  0.84955557  0.90910961  0.42927742  1  0  0.076167  0  0.992683  0  0  0.081077  0  1.066778  0  0  0.082955  0  1.06771  0  0.058191  0  0.088801  0.079606  0  1.06642  0
H  H11  1  0.65044359  0.40911140  0.07072190  1  0  0.0761  0  0.992815  0  0  0.081001  0  1.066928  0  0  0.082871  0  1.067852  0  0.058215  0  0.088787  0.079528  0  1.06657  0
H  H12  1  0.35952917  0.97732875  0.52129146  1  0  0.081851  0  0.969124  0  0  0.094333  0  1.029048  0  0  0.0964  0  1.028666  0  0.056253  0  0.095967  0.09272  0  1.029591  0
H  H13  1  0.14047127  0.47732691  0.97870837  1  0  0.081843  0  0.969121  0  0  0.09431  0  1.029071  0  0  0.096376  0  1.028689  0  0.056241  0  0.095986  0.092698  0  1.029611  0
H  H14  1  0.64046955  0.02267312  0.47870803  1  0  0.081872  0  0.969092  0  0  0.094352  0  1.029017  0  0  0.096419  0  1.028633  0  0.056223  0  0.095976  0.092739  0  1.029559  0
H  H15  1  0.85953069  0.52267314  0.02129274  1  0  0.081878  0  0.969101  0  0  0.094354  0  1.02903  0  0  0.096421  0  1.028647  0  0.056212  0  0.095994  0.09274  0  1.029573  0
H  H16  1  0.41225834  0.98865577  0.35736851  1  0  0.080225  0  0.964046  0  0  0.087526  0  1.032821  0  0  0.089965  0  1.032353  0  0.035236  0  0.093097  0.085939  0  1.032874  0
H  H17  1  0.08774318  0.48865484  0.14263277  1  0  0.08027  0  0.963944  0  0  0.087581  0  1.032714  0  0  0.09002  0  1.032247  0  0.035268  0  0.093138  0.085992  0  1.032768  0
H  H18  1  0.58774254  0.01134337  0.64263251  1  0  0.08019  0  0.96411  0  0  0.08752  0  1.032847  0  0  0.089958  0  1.03238  0  0.035233  0  0.093107  0.085933  0  1.032899  0
H  H19  1  0.91225770  0.51134339  0.85736826  1  0  0.080192  0  0.964086  0  0  0.087529  0  1.032819  0  0  0.089968  0  1.032351  0  0.035238  0  0.093098  0.085941  0  1.032872  0
H  H20  1  0.26112856  0.11770641  0.24525711  1  0  0.103704  0  0.979529  0  0  0.109424  0  1.049198  0  0  0.112019  0  1.048311  0  0.150705  0  0.09885  0.107824  0  1.049146  0
H  H21  1  0.23887404  0.61770644  0.25474150  1  0  0.103683  0  0.979558  0  0  0.109397  0  1.049231  0  0  0.111988  0  1.048344  0  0.150727  0  0.098838  0.107797  0  1.049177  0
H  H22  1  0.73887124  0.88229364  0.75474246  1  0  0.103699  0  0.979569  0  0  0.109415  0  1.049239  0  0  0.11201  0  1.048355  0  0.15071  0  0.09884  0.107815  0  1.049186  0
H  H23  1  0.76112792  0.38229361  0.74525823  1  0  0.103705  0  0.979554  0  0  0.10942  0  1.049226  0  0  0.112016  0  1.048339  0  0.150733  0  0.098844  0.107819  0  1.049174  0
H  H24  1  0.97894554  0.08116353  0.17177426  1  0  0.139449  0  0.95148  0  0  0.153337  0  1.012111  0  0  0.154235  0  1.012822  0  0.161593  0  0.111078  0.152497  0  1.012184  0
H  H25  1  0.52105361  0.58116264  0.32822574  1  0  0.139444  0  0.951463  0  0  0.15333  0  1.012105  0  0  0.154228  0  1.012817  0  0.161592  0  0.111078  0.152489  0  1.01218  0
H  H26  1  0.02105425  0.91883743  0.82822600  1  0  0.139443  0  0.951479  0  0  0.153328  0  1.012119  0  0  0.154226  0  1.01283  0  0.161583  0  0.111085  0.152487  0  1.012192  0
H  H27  1  0.47894510  0.41883740  0.67177444  1  0  0.139447  0  0.95148  0  0  0.153327  0  1.012132  0  0  0.154225  0  1.012842  0  0.161589  0  0.111094  0.152486  0  1.012205  0
H  H28  1  0.84671820  0.19353472  0.13644913  1  0  0.14168  0  0.924787  0  0  0.160854  0  0.974713  0  0  0.161878  0  0.974966  0  0.13037  0  0.114647  0.160023  0  0.974877  0
H  H29  1  0.65328203  0.69353383  0.36355096  1  0  0.141668  0  0.924795  0  0  0.160836  0  0.974738  0  0  0.16186  0  0.974987  0  0.130367  0  0.114644  0.160004  0  0.974902  0
H  H30  1  0.15328159  0.80646715  0.86355113  1  0  0.141674  0  0.924789  0  0  0.160854  0  0.974704  0  0  0.161876  0  0.974959  0  0.130375  0  0.114664  0.160023  0  0.974867  0
H  H31  1  0.34671776  0.30646622  0.63644930  1  0  0.141598  0  0.924764  0  0  0.160774  0  0.974704  0  0  0.161798  0  0.974954  0  0.130377  0  0.114614  0.159943  0  0.974867  0
H  H32  1  0.70053543  0.20571265  0.41769582  1  0  0.103457  0  0.958384  0  0  0.112868  0  1.020327  0  0  0.115828  0  1.018599  0  0.083549  0  0.101364  0.110898  0  1.021327  0
H  H33  1  0.79946697  0.70571267  0.08230443  1  0  0.103462  0  0.958352  0  0  0.112872  0  1.02029  0  0  0.115831  0  1.018565  0  0.083565  0  0.101369  0.110902  0  1.02129  0
H  H34  1  0.29946545  0.79428649  0.58230453  1  0  0.103453  0  0.958348  0  0  0.11285  0  1.0203  0  0  0.115811  0  1.018574  0  0.083568  0  0.101374  0.110881  0  1.021298  0
H  H35  1  0.20053175  0.29428828  0.91769506  1  0  0.103487  0  0.958285  0  0  0.112904  0  1.020211  0  0  0.115865  0  1.018483  0  0.083591  0  0.101371  0.110934  0  1.021211  0
H  H36  1  0.50737392  0.35897119  0.42962542  1  0  0.109853  0  0.957165  0  0  0.117802  0  1.018784  0  0  0.12102  0  1.017157  0  0.156891  0  0.10166  0.115377  0  1.020093  0
H  H37  1  0.99262848  0.85897212  0.07037620  1  0  0.109847  0  0.95719  0  0  0.117796  0  1.018802  0  0  0.121014  0  1.017175  0  0.156908  0  0.101653  0.115371  0  1.020111  0
H  H38  1  0.49262480  0.64102795  0.57037545  1  0  0.10989  0  0.957127  0  0  0.117839  0  1.01874  0  0  0.121059  0  1.01711  0  0.156915  0  0.101667  0.115414  0  1.020049  0
H  H39  1  0.00737240  0.14102702  0.92962345  1  0  0.109882  0  0.957151  0  0  0.11781  0  1.018784  0  0  0.12103  0  1.017155  0  0.156925  0  0.101646  0.115385  0  1.020096  0
H  H40  1  0.34646257  0.42049382  0.28872700  1  0  0.091572  0  0.980551  0  0  0.097587  0  1.051566  0  0  0.100103  0  1.050746  0  0.092406  0  0.096825  0.09505  0  1.053841  0
H  H41  1  0.15353787  0.92049385  0.21127557  1  0  0.091601  0  0.980495  0  0  0.097597  0  1.051534  0  0  0.100123  0  1.050705  0  0.092477  0  0.096828  0.095058  0  1.05381  0
H  H42  1  0.65353614  0.57950623  0.71127386  1  0  0.091596  0  0.980522  0  0  0.097611  0  1.051535  0  0  0.100127  0  1.050716  0  0.092442  0  0.09684  0.095072  0  1.05381  0
H  H43  1  0.84646409  0.07950439  0.78872416  1  0  0.091587  0  0.980511  0  0  0.097582  0  1.051547  0  0  0.100106  0  1.050718  0  0.092622  0  0.09682  0.095042  0  1.053824  0
H  H44  1  0.38317209  0.33449454  0.13555153  1  0  0.094882  0  0.94495  0  0  0.106401  0  1.002094  0  0  0.108848  0  1.002037  0  0.068561  0  0.101486  0.105041  0  1.001518  0
H  H45  1  0.11682727  0.83449274  0.36444959  1  0  0.094874  0  0.945023  0  0  0.106402  0  1.002157  0  0  0.10885  0  1.002101  0  0.06856  0  0.101488  0.105043  0  1.00158  0
H  H46  1  0.61682771  0.66550642  0.86444873  1  0  0.094878  0  0.945001  0  0  0.106407  0  1.002134  0  0  0.108856  0  1.002076  0  0.06856  0  0.101483  0.105047  0  1.001558  0
H  H47  1  0.88317361  0.16550549  0.63555006  1  0  0.094904  0  0.945005  0  0  0.106414  0  1.002159  0  0  0.108863  0  1.002101  0  0.068532  0  0.101478  0.105055  0  1.001582  0
H  H48  1  0.57302370  0.17845442  0.12318139  1  0  0.111144  0  0.957877  0  0  0.119143  0  1.024281  0  0  0.122352  0  1.022231  0  0.115605  0  0.10177  0.11675  0  1.026112  0
H  H49  1  0.92697545  0.67845354  0.37681930  1  0  0.11113  0  0.957919  0  0  0.119145  0  1.024303  0  0  0.122355  0  1.022252  0  0.115783  0  0.101781  0.116753  0  1.026132  0
H  H50  1  0.42697610  0.82154654  0.87681955  1  0  0.111101  0  0.957916  0  0  0.119136  0  1.024292  0  0  0.122343  0  1.022244  0  0.115576  0  0.101782  0.116744  0  1.026121  0
H  H51  1  0.07302434  0.32154561  0.62318027  1  0  0.111144  0  0.957884  0  0  0.119164  0  1.024294  0  0  0.122372  0  1.022243  0  0.115577  0  0.101774  0.116775  0  1.026115  0
C  C52  1  0.08841576  0.16900630  0.43624974  1  0  -0.092953  0  3.737949  0  0  -0.116739  0  3.983481  0  0  -0.117896  0  4.005113  0  -0.054022  0  -0.089268  -0.116083  0  3.96915  0
C  C53  1  0.41158792  0.66900814  0.06374895  1  0  -0.092801  0  3.737913  0  0  -0.116612  0  3.98343  0  0  -0.117768  0  4.005071  0  -0.053825  0  -0.089173  -0.115959  0  3.969101  0
C  C54  1  0.91158404  0.83099284  0.56375052  1  0  -0.092976  0  3.737982  0  0  -0.116779  0  3.983513  0  0  -0.117935  0  4.005147  0  -0.054  0  -0.089288  -0.116122  0  3.96918  0
C  C55  1  0.58841404  0.33099554  0.93625010  1  0  -0.092958  0  3.73786  0  0  -0.116757  0  3.983388  0  0  -0.117914  0  4.005023  0  -0.053978  0  -0.089253  -0.116099  0  3.969051  0
C  C56  1  0.17521279  0.09740077  0.49956160  1  0  -0.069609  0  3.771891  0  0  -0.077594  0  4.015256  0  0  -0.0812  0  4.038858  0  -0.006034  0  -0.096279  -0.075092  0  3.999399  0
C  C57  1  0.32478765  0.59739989  0.00043754  1  0  -0.069634  0  3.772017  0  0  -0.0776  0  4.01537  0  0  -0.081211  0  4.038977  0  -0.006378  0  -0.096302  -0.075099  0  3.999514  0
C  C58  1  0.82478484  0.90259837  0.50043712  1  0  -0.069676  0  3.77175  0  0  -0.077652  0  4.01507  0  0  -0.081276  0  4.038686  0  -0.006182  0  -0.096327  -0.075152  0  3.999216  0
C  C59  1  0.67521323  0.40260197  0.99956212  1  0  -0.069563  0  3.771835  0  0  -0.07755  0  4.015198  0  0  -0.081158  0  4.038802  0  -0.006395  0  -0.096296  -0.075049  0  3.999344  0
C  C60  1  0.29192220  0.03301029  0.47165438  1  0  -0.07083  0  3.761683  0  0  -0.081812  0  3.997767  0  0  -0.082841  0  4.019392  0  -0.113088  0  -0.08972  -0.081054  0  3.983601  0
C  C61  1  0.20807607  0.53301213  0.02834460  1  0  -0.070788  0  3.761698  0  0  -0.081769  0  3.997788  0  0  -0.082794  0  4.019414  0  -0.113081  0  -0.089756  -0.08101  0  3.983623  0
C  C62  1  0.70807543  0.96698704  0.52834572  1  0  -0.070914  0  3.761594  0  0  -0.081904  0  3.997702  0  0  -0.082932  0  4.019328  0  -0.113071  0  -0.089765  -0.081146  0  3.983537  0
C  C63  1  0.79192372  0.46698883  0.97165428  1  0  -0.070884  0  3.761654  0  0  -0.081862  0  3.997752  0  0  -0.082888  0  4.019373  0  -0.11292  0  -0.089752  -0.081103  0  3.983586  0
C  C64  1  0.32237091  0.03961143  0.38006522  1  0  -0.059626  0  3.76203  0  0  -0.069125  0  4.006089  0  0  -0.072627  0  4.029369  0  0.034688  0  -0.089135  -0.067122  0  3.990327  0
C  C65  1  0.17762953  0.53961146  0.11993460  1  0  -0.059728  0  3.761856  0  0  -0.069237  0  4.005932  0  0  -0.072743  0  4.029213  0  0.034678  0  -0.089174  -0.067236  0  3.990173  0
C  C66  1  0.67762781  0.96038771  0.61993564  1  0  -0.059528  0  3.761981  0  0  -0.069047  0  4.006036  0  0  -0.072546  0  4.029314  0  0.034671  0  -0.089106  -0.067045  0  3.990277  0
C  C67  1  0.82237135  0.46038859  0.88006505  1  0  -0.059589  0  3.762059  0  0  -0.069118  0  4.006119  0  0  -0.072621  0  4.0294  0  0.034674  0  -0.089145  -0.067115  0  3.990355  0
C  C68  1  0.23700986  0.11139496  0.31646326  1  0  -0.093422  0  3.727371  0  0  -0.110433  0  3.964042  0  0  -0.112572  0  3.987563  0  -0.05087  0  -0.08721  -0.108795  0  3.947948  0
C  C69  1  0.26299058  0.61139498  0.18353657  1  0  -0.093311  0  3.727312  0  0  -0.110338  0  3.963971  0  0  -0.11247  0  3.987486  0  -0.050837  0  -0.087197  -0.108698  0  3.947874  0
C  C70  1  0.76298886  0.88860509  0.68353623  1  0  -0.093473  0  3.72749  0  0  -0.110492  0  3.964166  0  0  -0.112635  0  3.987689  0  -0.050883  0  -0.087219  -0.108854  0  3.948072  0
C  C71  1  0.73701138  0.38860507  0.81646385  1  0  -0.09342  0  3.72744  0  0  -0.110448  0  3.964118  0  0  -0.112589  0  3.987638  0  -0.050873  0  -0.087209  -0.10881  0  3.948023  0
C  C72  1  0.11985819  0.17526872  0.34480936  1  0  0.03064  0  3.756394  0  0  0.054214  0  4.00192  0  0  0.052507  0  4.028252  0  -0.174764  0  -0.014112  0.055071  0  3.985025  0
C  C73  1  0.38014441  0.67526965  0.15519063  1  0  0.03051  0  3.756535  0  0  0.054146  0  4.001978  0  0  0.05244  0  4.028309  0  -0.174794  0  -0.014124  0.055005  0  3.985082  0
C  C74  1  0.88014268  0.82473223  0.65519098  1  0  0.030739  0  3.756496  0  0  0.054328  0  4.001982  0  0  0.052622  0  4.028311  0  -0.174762  0  -0.01405  0.055184  0  3.985086  0
C  C75  1  0.61985647  0.32473221  0.84480902  1  0  0.030616  0  3.756457  0  0  0.054231  0  4.001928  0  0  0.052524  0  4.02826  0  -0.174755  0  -0.014099  0.055088  0  3.985033  0
C  C76  1  0.90709334  0.14948801  0.19648269  1  0  -0.199723  0  3.587827  0  0  -0.234155  0  3.848921  0  0  -0.232411  0  3.857523  0  -0.22809  0  -0.140638  -0.235507  0  3.843942  0
C  C77  1  0.59290798  0.64948803  0.30351747  1  0  -0.199639  0  3.587691  0  0  -0.23407  0  3.848782  0  0  -0.232328  0  3.857394  0  -0.228191  0  -0.140619  -0.235422  0  3.843803  0
C  C78  1  0.09290646  0.85051204  0.80351757  1  0  -0.19966  0  3.587749  0  0  -0.234084  0  3.848836  0  0  -0.232341  0  3.857441  0  -0.228091  0  -0.140657  -0.235435  0  3.843855  0
C  C79  1  0.40709290  0.35051293  0.69648287  1  0  -0.199521  0  3.587548  0  0  -0.23394  0  3.848613  0  0  -0.232199  0  3.857219  0  -0.228194  0  -0.140579  -0.235293  0  3.843633  0
C  C80  1  0.64815444  0.18281977  0.26957926  1  0  0.007977  0  3.805752  0  0  0.032556  0  4.053048  0  0  0.031408  0  4.078013  0  -0.200045  0  -0.02618  0.03257  0  4.037013  0
C  C81  1  0.85184687  0.68281798  0.23042159  1  0  0.00791  0  3.805752  0  0  0.032489  0  4.053062  0  0  0.031343  0  4.078021  0  -0.200056  0  -0.02622  0.0325  0  4.037031  0
C  C82  1  0.35184643  0.81718119  0.73042245  1  0  0.007901  0  3.805734  0  0  0.032493  0  4.053031  0  0  0.031345  0  4.07799  0  -0.199987  0  -0.026241  0.032504  0  4.037005  0
C  C83  1  0.14815292  0.31718026  0.76957729  1  0  0.007895  0  3.805818  0  0  0.03243  0  4.053187  0  0  0.031281  0  4.078147  0  -0.199984  0  -0.026248  0.032442  0  4.037158  0
C  C84  1  0.63159737  0.23462367  0.35594514  1  0  -0.139446  0  3.801905  0  0  -0.151985  0  4.047057  0  0  -0.153863  0  4.066675  0  -0.016008  0  -0.107872  -0.149664  0  4.032272  0
C  C85  1  0.86840286  0.73462369  0.14405564  1  0  -0.139423  0  3.801832  0  0  -0.151953  0  4.046973  0  0  -0.153832  0  4.066591  0  -0.015984  0  -0.107859  -0.149632  0  4.032188  0
C  C86  1  0.36840026  0.76537547  0.64405702  1  0  -0.139354  0  3.801876  0  0  -0.151872  0  4.04701  0  0  -0.15375  0  4.066629  0  -0.016044  0  -0.10783  -0.149553  0  4.032228  0
C  C87  1  0.13159693  0.26537545  0.85594256  1  0  -0.139426  0  3.801925  0  0  -0.151946  0  4.047062  0  0  -0.153822  0  4.066679  0  -0.016038  0  -0.107836  -0.149627  0  4.032283  0
C  C88  1  0.52240742  0.32065110  0.36249206  1  0  -0.057545  0  3.730417  0  0  -0.071037  0  3.978803  0  0  -0.073535  0  3.99946  0  -0.106753  0  -0.091682  -0.068592  0  3.96363  0
C  C89  1  0.97759390  0.82065113  0.13750948  1  0  -0.057523  0  3.730428  0  0  -0.071015  0  3.978801  0  0  -0.073513  0  3.999463  0  -0.106743  0  -0.091657  -0.068569  0  3.963626  0
C  C90  1  0.47759130  0.67934804  0.63750949  1  0  -0.057642  0  3.73045  0  0  -0.07114  0  3.978841  0  0  -0.073635  0  3.999495  0  -0.106751  0  -0.091701  -0.068695  0  3.963668  0
C  C91  1  0.02240698  0.17934801  0.86248949  1  0  -0.057611  0  3.730511  0  0  -0.071084  0  3.978888  0  0  -0.073582  0  3.999549  0  -0.106743  0  -0.091666  -0.06864  0  3.963714  0
C  C92  1  0.43347587  0.35583816  0.28320319  1  0  -0.062152  0  3.735733  0  0  -0.079459  0  3.988526  0  0  -0.08075  0  4.010241  0  -0.06059  0  -0.090802  -0.078399  0  3.974532  0
C  C93  1  0.06652457  0.85583818  0.21679801  1  0  -0.062149  0  3.735721  0  0  -0.079447  0  3.988517  0  0  -0.080746  0  4.010229  0  -0.060691  0  -0.09081  -0.078386  0  3.974523  0
C  C94  1  0.56652285  0.64416189  0.71679768  1  0  -0.062118  0  3.735724  0  0  -0.079421  0  3.988506  0  0  -0.08071  0  4.010219  0  -0.060617  0  -0.090808  -0.07836  0  3.974512  0
C  C95  1  0.93347523  0.14416096  0.78320156  1  0  -0.062104  0  3.735655  0  0  -0.07939  0  3.98843  0  0  -0.080685  0  4.010139  0  -0.060827  0  -0.090796  -0.078329  0  3.974437  0
C  C96  1  0.45365102  0.30690121  0.19704806  1  0  -0.048711  0  3.729364  0  0  -0.059705  0  3.976652  0  0  -0.061776  0  3.997833  0  0.001983  0  -0.085597  -0.058713  0  3.962563  0
C  C97  1  0.04634834  0.80689942  0.30295237  1  0  -0.04878  0  3.72953  0  0  -0.059785  0  3.976813  0  0  -0.061857  0  3.997999  0  0.002014  0  -0.085607  -0.058792  0  3.96272  0
C  C98  1  0.54634770  0.69309975  0.80295280  1  0  -0.048777  0  3.729443  0  0  -0.059784  0  3.976752  0  0  -0.061858  0  3.997932  0  0.001998  0  -0.085616  -0.058791  0  3.962661  0
C  C99  1  0.95365038  0.19309791  0.69704643  1  0  -0.048781  0  3.72942  0  0  -0.059782  0  3.976723  0  0  -0.061856  0  3.997902  0  0.001945  0  -0.085601  -0.058789  0  3.962632  0
C  C100  1  0.56019608  0.21962328  0.18979556  1  0  -0.108781  0  3.745989  0  0  -0.129837  0  3.993862  0  0  -0.131899  0  4.015004  0  -0.048453  0  -0.094183  -0.129323  0  3.981591  0
C  C101  1  0.93980308  0.71962149  0.31020514  1  0  -0.108716  0  3.746099  0  0  -0.129778  0  3.993953  0  0  -0.131843  0  4.015102  0  -0.048702  0  -0.094184  -0.129263  0  3.981684  0
C  C102  1  0.43980480  0.78037858  0.81020547  1  0  -0.108693  0  3.746002  0  0  -0.129763  0  3.993818  0  0  -0.131839  0  4.014994  0  -0.048507  0  -0.094178  -0.129247  0  3.981548  0
C  C103  1  0.06019456  0.28037583  0.68979359  1  0  -0.108722  0  3.746009  0  0  -0.129763  0  3.993814  0  0  -0.131838  0  4.014989  0  -0.048494  0  -0.094149  -0.129248  0  3.981542  0
S  S104  1  0.01504107  0.26523378  0.26008818  1  0  0.051959  0  2.702715  0  0  0.074675  0  3.104052  0  0  0.070447  0  3.098376  0  0.093632  0  0.014938  0.076863  0  3.108  0
S  S105  1  0.48495937  0.76523290  0.23991096  1  0  0.051992  0  2.702767  0  0  0.074677  0  3.104098  0  0  0.070451  0  3.09842  0  0.093676  0  0.014938  0.076865  0  3.108045  0
S  S106  1  0.98495873  0.73476717  0.73991139  1  0  0.05193  0  2.702714  0  0  0.074633  0  3.104058  0  0  0.070407  0  3.098379  0  0.093637  0  0.014931  0.07682  0  3.108006  0
S  S107  1  0.51504043  0.23476715  0.76008930  1  0  0.051922  0  2.702725  0  0  0.074606  0  3.104068  0  0  0.070379  0  3.09839  0  0.093652  0  0.014918  0.076793  0  3.108017  0
S  S108  1  0.78334783  0.06975931  0.26364874  1  0  0.017292  0  2.756731  0  0  0.042473  0  3.167863  0  0  0.038045  0  3.163856  0  0.064865  0  0.004046  0.045242  0  3.171289  0
S  S109  1  0.71665241  0.56975934  0.23634998  1  0  0.017288  0  2.756709  0  0  0.042461  0  3.167848  0  0  0.038032  0  3.163842  0  0.064972  0  0.004046  0.045231  0  3.171276  0
S  S110  1  0.21665197  0.93024073  0.73635084  1  0  0.017286  0  2.75669  0  0  0.042441  0  3.167836  0  0  0.038016  0  3.163827  0  0.06486  0  0.004054  0.045213  0  3.171262  0
S  S111  1  0.28334522  0.43023980  0.76364944  1  0  0.017243  0  2.756716  0  0  0.04243  0  3.167858  0  0  0.038007  0  3.163846  0  0.064999  0  0.004019  0.045201  0  3.171284  0
Cl  Cl112  1  0.78568671  0.47042154  0.54871383  1  0  1.395697  0  6.14821  0  0  1.329357  0  6.70852  0  0  1.381435  0  6.686975  0  3.042449  0  0.730205  1.293614  0  6.721807  0
Cl  Cl113  1  0.71431245  0.97042338  0.95128686  1  0  1.395556  0  6.148422  0  0  1.32922  0  6.708718  0  0  1.381314  0  6.68715  0  3.042367  0  0.730166  1.293476  0  6.722001  0
Cl  Cl114  1  0.21431309  0.52957851  0.45128643  1  0  1.395639  0  6.148273  0  0  1.329344  0  6.708543  0  0  1.381436  0  6.686982  0  3.042441  0  0.730241  1.293601  0  6.721826  0
Cl  Cl115  1  0.28568735  0.02957849  0.04871408  1  0  1.395727  0  6.148234  0  0  1.329382  0  6.708543  0  0  1.381455  0  6.687007  0  3.042654  0  0.730227  1.293643  0  6.721821  0
O  O116  1  0.87433387  0.38973023  0.49609991  1  0  -0.564779  0  1.928729  0  0  -0.519146  0  2.202651  0  0  -0.53648  0  2.186133  0  -0.950547  0  -0.328079  -0.507009  0  2.213684  0
O  O117  1  0.62566853  0.88973026  0.00389965  1  0  -0.564738  0  1.928711  0  0  -0.519096  0  2.202657  0  0  -0.536436  0  2.186134  0  -0.950533  0  -0.328064  -0.506954  0  2.213678  0
O  O118  1  0.12566593  0.61026981  0.50390035  1  0  -0.56478  0  1.928738  0  0  -0.519151  0  2.202649  0  0  -0.536493  0  2.186128  0  -0.950592  0  -0.328088  -0.507013  0  2.213685  0
O  O119  1  0.37433451  0.11026979  0.99609948  1  0  -0.564792  0  1.92873  0  0  -0.519153  0  2.202653  0  0  -0.536481  0  2.186135  0  -0.950586  0  -0.328086  -0.507008  0  2.213662  0
O  O120  1  0.87486263  0.51028815  0.63274472  1  0  -0.551742  0  1.923233  0  0  -0.513767  0  2.191295  0  0  -0.531141  0  2.178292  0  -0.968176  0  -0.311015  -0.501814  0  2.200601  0
O  O121  1  0.62513761  0.01028904  0.86725605  1  0  -0.551714  0  1.923285  0  0  -0.513715  0  2.191347  0  0  -0.531077  0  2.178335  0  -0.968156  0  -0.310994  -0.501762  0  2.200651  0
O  O122  1  0.12513717  0.48971099  0.36725622  1  0  -0.551728  0  1.923266  0  0  -0.513769  0  2.19135  0  0  -0.53114  0  2.178339  0  -0.968162  0  -0.311014  -0.501816  0  2.200654  0
O  O123  1  0.37486327  0.98971010  0.13274429  1  0  -0.551776  0  1.923247  0  0  -0.513772  0  2.191303  0  0  -0.531159  0  2.178308  0  -0.968157  0  -0.311019  -0.501823  0  2.200608  0
O  O124  1  0.66224288  0.40209252  0.57411084  1  0  -0.527615  0  1.845529  0  0  -0.49402  0  2.080079  0  0  -0.510194  0  2.068388  0  -1.005811  0  -0.303416  -0.482343  0  2.087338  0
O  O125  1  0.83775844  0.90209708  0.92588864  1  0  -0.527573  0  1.845517  0  0  -0.493985  0  2.080046  0  0  -0.510166  0  2.068349  0  -1.005778  0  -0.303412  -0.482307  0  2.087302  0
O  O126  1  0.33775800  0.59790753  0.42589019  1  0  -0.527547  0  1.845547  0  0  -0.493963  0  2.080075  0  0  -0.510139  0  2.06838  0  -1.005807  0  -0.303398  -0.482285  0  2.087332  0
O  O127  1  0.16224352  0.09790842  0.07410972  1  0  -0.527592  0  1.845549  0  0  -0.49402  0  2.080103  0  0  -0.5102  0  2.068415  0  -1.005996  0  -0.303415  -0.482343  0  2.087357  0
O  O128  1  0.73776938  0.57432811  0.49182977  1  0  -0.52645  0  1.864973  0  0  -0.498072  0  2.112096  0  0  -0.514694  0  2.101315  0  -1.007552  0  -0.302363  -0.486373  0  2.119287  0
O  O129  1  0.76222977  0.07432899  0.00817093  1  0  -0.526408  0  1.86509  0  0  -0.498059  0  2.112198  0  0  -0.514695  0  2.101417  0  -1.007534  0  -0.302368  -0.486361  0  2.119389  0
O  O130  1  0.26223150  0.42567103  0.50817126  1  0  -0.52645  0  1.864915  0  0  -0.498101  0  2.112046  0  0  -0.514728  0  2.101261  0  -1.007564  0  -0.302404  -0.486403  0  2.119238  0
O  O131  1  0.23776894  0.92567015  0.99182925  1  0  -0.52645  0  1.864959  0  0  -0.498077  0  2.112081  0  0  -0.514682  0  2.101297  0  -1.007571  0  -0.302367  -0.486377  0  2.119269  0
