# generated using pymatgen
data_Zr3H20C44(Cl3O8)2
_symmetry_space_group_name_H-M   'P 1'
_cell_length_a   19.26309197
_cell_length_b   19.23866375
_cell_length_c   19.24295988
_cell_angle_alpha   59.24701704
_cell_angle_beta   59.94986243
_cell_angle_gamma   59.97438795
_symmetry_Int_Tables_number   1
_chemical_formula_structural   Zr3H20C44(Cl3O8)2
_chemical_formula_sum   'Zr6 H40 C88 Cl12 O32'
_cell_volume   5010.47791923
_cell_formula_units_Z   2
loop_
 _symmetry_equiv_pos_site_id
 _symmetry_equiv_pos_as_xyz
  1  'x, y, z'
loop_
 _atom_site_type_symbol
 _atom_site_label
 _atom_site_symmetry_multiplicity
 _atom_site_fract_x
 _atom_site_fract_y
 _atom_site_fract_z
 _atom_site_occupancy
 _atom_site_pbe_bader_charge
 _atom_site_pbe_bader_spin_density
 _atom_site_pbe_cm5_charge
 _atom_site_pbe_ddec_charge
 _atom_site_pbe_ddec_spin_density
 _atom_site_pbe_ddec_sum_bond_order
 _atom_site_pbe_magmom
Zr  Zr0  1  0.90793940  0.40698883  0.59304495  1  2.63223  0  1.62548  2.372008  0  2.756568  0
Zr  Zr1  1  0.09205862  0.59252881  0.40750111  1  2.633822  0  1.62595  2.372945  0  2.755879  0
Zr  Zr2  1  0.09171182  0.40650389  0.59350169  1  2.635829  0  1.626256  2.372886  0  2.752601  0
Zr  Zr3  1  0.90828909  0.59298435  0.40704676  1  2.632907  0  1.626435  2.373178  0  2.75279  0
Zr  Zr4  1  0.90865142  0.59111953  0.59161071  1  2.632237  0  1.629357  2.372964  0  2.764284  0
Zr  Zr5  1  0.09138684  0.40838928  0.40885706  1  2.631638  0  1.628871  2.373394  0  2.762088  0
H  H6  1  0.92765816  0.42553928  0.71851831  1  0.595094  0  0.331187  0.421753  0  0.859641  0
H  H7  1  0.92834136  0.71799749  0.42604208  1  0.617017  0  0.331476  0.421804  0  0.859681  0
H  H8  1  0.21665158  0.42746372  0.42871593  1  0.635832  0  0.331765  0.423222  0  0.856795  0
H  H9  1  0.92720471  0.42814359  0.42801979  1  0.617803  0  0.331544  0.422929  0  0.856896  0
H  H10  1  0.31790723  0.61407340  0.17791693  1  0.11871  0  0.108618  0.125917  0  0.999041  0
H  H11  1  0.67835154  0.38947395  0.81871150  1  0.119394  0  0.108689  0.125754  0  0.999611  0
H  H12  1  0.67819335  0.61208372  0.81882008  1  0.110222  0  0.111663  0.118953  0  0.984282  0
H  H13  1  0.55355379  0.60854024  0.94580626  1  0.112396  0  0.083879  0.092497  0  1.119917  0
H  H14  1  0.31860263  0.39094423  0.17829150  1  0.082882  0  0.111689  0.119007  0  0.983859  0
H  H15  1  0.44608857  0.39156292  0.05429361  1  0.091085  0  0.083945  0.092604  0  1.120266  0
H  H16  1  0.11348652  0.81829321  0.38972307  1  0.102617  0  0.10875  0.125825  0  0.99973  0
H  H17  1  0.89013644  0.17740498  0.61440972  1  0.097306  0  0.10861  0.125902  0  0.999148  0
H  H18  1  0.11210091  0.17797956  0.39115922  1  0.088152  0  0.111745  0.11887  0  0.98447  0
H  H19  1  0.10776004  0.05426870  0.39145395  1  0.125744  0  0.083997  0.092277  0  1.120028  0
H  H20  1  0.89075203  0.81861761  0.61217321  1  0.117708  0  0.111763  0.119138  0  0.983266  0
H  H21  1  0.89176369  0.94581935  0.60835684  1  0.132291  0  0.083804  0.092193  0  1.121223  0
H  H22  1  0.31487795  0.18069266  0.39197974  1  0.118521  0  0.108926  0.126654  0  1.000266  0
H  H23  1  0.68159192  0.81523265  0.61199864  1  0.123144  0  0.10917  0.127286  0  1.000473  0
H  H24  1  0.67578727  0.82232705  0.38880763  1  0.094712  0  0.111144  0.117443  0  0.986016  0
H  H25  1  0.55118685  0.94914641  0.39111381  1  0.101306  0  0.083903  0.092881  0  1.120728  0
H  H26  1  0.32146930  0.17395334  0.61461822  1  0.085866  0  0.11098  0.117816  0  0.985265  0
H  H27  1  0.44935398  0.05066999  0.60868578  1  0.102778  0  0.083686  0.092698  0  1.121485  0
H  H28  1  0.89137822  0.61177513  0.81540333  1  0.109586  0  0.109288  0.126815  0  1.000267  0
H  H29  1  0.11248587  0.39180755  0.18101162  1  0.105496  0  0.108989  0.126593  0  1.000648  0
H  H30  1  0.89007399  0.61450052  0.17424446  1  0.09458  0  0.111029  0.117743  0  0.98547  0
H  H31  1  0.89151511  0.60876085  0.05078254  1  0.136118  0  0.083767  0.092559  0  1.122051  0
H  H32  1  0.11330954  0.38864572  0.82263146  1  0.097604  0  0.111136  0.117703  0  0.985437  0
H  H33  1  0.10882525  0.39121295  0.94929070  1  0.129549  0  0.083407  0.092433  0  1.121437  0
H  H34  1  0.11322723  0.82020205  0.17677841  1  0.087189  0  0.110904  0.121219  0  0.992785  0
H  H35  1  0.17643785  0.93475748  0.06549531  1  0.068714  0  0.109968  0.128681  0  0.983254  0
H  H36  1  0.89056753  0.81893481  0.17777946  1  0.140647  0  0.101604  0.112965  0  1.033563  0
H  H37  1  0.88965929  0.17632613  0.82056950  1  0.087079  0  0.110991  0.121068  0  0.992416  0
H  H38  1  0.82316126  0.06496731  0.93511674  1  0.074303  0  0.109981  0.128721  0  0.983173  0
H  H39  1  0.11244930  0.17734685  0.81950912  1  0.126824  0  0.101471  0.112502  0  1.03373  0
H  H40  1  0.31701993  0.38864820  0.61497799  1  0.13044  0  0.109278  0.126798  0  0.998535  0
H  H41  1  0.67944771  0.61436020  0.38927675  1  0.095818  0  0.10927  0.126799  0  0.99853  0
H  H42  1  0.67656709  0.38894553  0.61418150  1  0.08055  0  0.110929  0.117709  0  0.984071  0
H  H43  1  0.55234635  0.39033969  0.61011194  1  0.095043  0  0.083457  0.091865  0  1.121639  0
H  H44  1  0.32038397  0.61354964  0.38954051  1  0.083357  0  0.111082  0.118023  0  0.984579  0
H  H45  1  0.44726826  0.60951689  0.39094866  1  0.119344  0  0.08357  0.092081  0  1.12219  0
C  C46  1  0.76455162  0.50081433  0.73155510  1  1.539701  0  0.237186  0.641569  0  4.097401  0
C  C47  1  0.00311223  0.73110177  0.50117056  1  1.548831  0  0.237536  0.641473  0  4.096633  0
C  C48  1  0.23055642  0.50384701  0.26392083  1  1.542797  0  0.237264  0.641615  0  4.09942  0
C  C49  1  0.00176233  0.26340027  0.50427361  1  1.549567  0  0.237761  0.641941  0  4.09821  0
C  C50  1  0.00162532  0.26141334  0.73425058  1  1.539178  0  0.237936  0.644274  0  4.091015  0
C  C51  1  0.76423996  0.50251866  0.50213266  1  1.543687  0  0.237329  0.640223  0  4.100544  0
C  C52  1  0.00263165  0.73373110  0.26188072  1  1.540336  0  0.237788  0.643541  0  4.092639  0
C  C53  1  0.23114733  0.50153374  0.50316717  1  1.554986  0  0.237558  0.64192  0  4.09677  0
C  C54  1  0.00260255  0.50054381  0.73195653  1  1.552322  0  0.238408  0.643178  0  4.09771  0
C  C55  1  0.23015677  0.26294270  0.50450250  1  1.544884  0  0.238046  0.642868  0  4.097335  0
C  C56  1  0.00240511  0.50417798  0.26336525  1  1.558465  0  0.237732  0.642461  0  4.099702  0
C  C57  1  0.76498647  0.73152198  0.50098537  1  1.533858  0  0.237726  0.641286  0  4.098942  0
C  C58  1  0.30838182  0.50329104  0.18688614  1  -0.04821  0  -0.015522  -0.021672  0  3.994212  0
C  C59  1  0.68730655  0.50082876  0.80915802  1  -0.048858  0  -0.016205  -0.022129  0  3.992996  0
C  C60  1  0.34640756  0.56502754  0.15001581  1  0.023677  0  -0.08926  -0.157495  0  3.97277  0
C  C61  1  0.42018910  0.56555786  0.07875654  1  0.011555  0  0.021608  0.107216  0  3.919905  0
C  C62  1  0.65038803  0.43795960  0.84718329  1  0.020738  0  -0.08941  -0.157674  0  3.973526  0
C  C63  1  0.57886084  0.43512473  0.92076771  1  0.048615  0  0.022278  0.107799  0  3.920002  0
C  C64  1  0.65066093  0.56224118  0.84673685  1  -0.004852  0  -0.08246  -0.083814  0  3.985511  0
C  C65  1  0.57942466  0.55939458  0.91943927  1  -0.038009  0  -0.096239  -0.124472  0  3.981584  0
C  C66  1  0.34635453  0.44054414  0.15064574  1  0.03285  0  -0.082508  -0.083626  0  3.984925  0
C  C67  1  0.41931617  0.44162900  0.07972578  1  0.006368  0  -0.096963  -0.125031  0  3.980521  0
C  C68  1  0.46088187  0.50286265  0.03874121  1  0.010139  0  0.001801  0.030569  0  3.882173  0
C  C69  1  0.53859864  0.49739943  0.96118871  1  -0.010697  0  0.00074  0.029955  0  3.883864  0
C  C70  1  0.00265872  0.80882038  0.50102898  1  0.050127  0  -0.01622  -0.021975  0  3.993717  0
C  C71  1  0.00144413  0.18647729  0.50358215  1  0.049333  0  -0.016525  -0.022927  0  3.996  0
C  C72  1  0.06441458  0.84685222  0.43811984  1  0.009065  0  -0.08888  -0.157158  0  3.973315  0
C  C73  1  0.06510491  0.92054028  0.43515605  1  -0.01459  0  0.021627  0.10684  0  3.9209  0
C  C74  1  0.93852981  0.14961971  0.56525859  1  0.011959  0  -0.089102  -0.157367  0  3.973632  0
C  C75  1  0.93536517  0.07849918  0.56562605  1  -0.025322  0  0.021821  0.107463  0  3.920592  0
C  C76  1  0.06236454  0.15036024  0.44071652  1  -0.019195  0  -0.082377  -0.08361  0  3.985573  0
C  C77  1  0.05911927  0.07959050  0.44162904  1  -0.049891  0  -0.096692  -0.124156  0  3.979774  0
C  C78  1  0.94021250  0.84652217  0.56231484  1  -0.063055  0  -0.082328  -0.083597  0  3.984618  0
C  C79  1  0.94149571  0.91934379  0.55932552  1  -0.074687  0  -0.096734  -0.124861  0  3.982125  0
C  C80  1  0.00258361  0.96106272  0.49734804  1  0.081502  0  0.00163  0.030769  0  3.883509  0
C  C81  1  0.99729552  0.03859846  0.50283561  1  0.016241  0  0.001111  0.029977  0  3.883936  0
C  C82  1  0.30819587  0.18613589  0.50372923  1  -0.000346  0  -0.015987  -0.023522  0  3.997112  0
C  C83  1  0.68773080  0.80910848  0.50087623  1  0.026011  0  -0.015852  -0.020904  0  3.994448  0
C  C84  1  0.34474096  0.15138259  0.44019047  1  0.05602  0  -0.089545  -0.158377  0  3.976045  0
C  C85  1  0.41868928  0.08050172  0.43615053  1  -0.025665  0  0.02224  0.10796  0  3.923102  0
C  C86  1  0.65236139  0.84514475  0.56314430  1  0.053677  0  -0.08966  -0.160009  0  3.978467  0
C  C87  1  0.58083966  0.91854341  0.56461717  1  -0.026074  0  0.021801  0.107558  0  3.923245  0
C  C88  1  0.64951197  0.84860174  0.43867984  1  -0.066705  0  -0.082231  -0.082331  0  3.984354  0
C  C89  1  0.57830576  0.92120818  0.44069713  1  0.009101  0  -0.09672  -0.126113  0  3.97965  0
C  C90  1  0.34795775  0.14810218  0.56436874  1  -0.041478  0  -0.082007  -0.082364  0  3.985457  0
C  C91  1  0.42112660  0.07755217  0.56023784  1  0.018635  0  -0.096658  -0.125789  0  3.98222  0
C  C92  1  0.46111604  0.03860115  0.49783484  1  -0.010683  0  0.000899  0.030422  0  3.884166  0
C  C93  1  0.53901815  0.96096213  0.50232667  1  0.020616  0  0.001254  0.030949  0  3.882274  0
C  C94  1  0.00245544  0.50064065  0.80939510  1  0.053324  0  -0.016361  -0.022766  0  3.996136  0
C  C95  1  0.00200167  0.50356356  0.18644473  1  0.034108  0  -0.015903  -0.023333  0  3.99684  0
C  C96  1  0.93954202  0.56298244  0.84534107  1  0.039001  0  -0.090324  -0.159333  0  3.977479  0
C  C97  1  0.93621826  0.56459359  0.91865941  1  0.040276  0  0.022267  0.107943  0  3.923318  0
C  C98  1  0.06377586  0.44007502  0.15164472  1  0.049436  0  -0.089491  -0.158132  0  3.97702  0
C  C99  1  0.06482301  0.43614447  0.08066980  1  0.02254  0  0.021843  0.107274  0  3.9233  0
C  C100  1  0.93969062  0.56428180  0.14835590  1  -0.074609  0  -0.081886  -0.081717  0  3.985255  0
C  C101  1  0.94126844  0.56025976  0.07770996  1  -0.075323  0  -0.097171  -0.126628  0  3.983085  0
C  C102  1  0.06342897  0.43855489  0.84884990  1  -0.075076  0  -0.082072  -0.082264  0  3.984683  0
C  C103  1  0.06003333  0.44071804  0.92136831  1  -0.051501  0  -0.095924  -0.125242  0  3.980539  0
C  C104  1  0.99791525  0.50237104  0.96107957  1  -0.034258  0  0.000799  0.030107  0  3.883091  0
C  C105  1  0.00265040  0.49787805  0.03873344  1  0.038448  0  0.001474  0.031493  0  3.882044  0
C  C106  1  0.06452854  0.84980481  0.14751396  1  -0.013929  0  -0.075074  -0.133078  0  3.910722  0
C  C107  1  0.06457937  0.92412953  0.07445347  1  0.031333  0  -0.003745  0.092905  0  4.039142  0
C  C108  1  0.12788920  0.96325470  0.03632224  1  0.034306  0  -0.092699  -0.203623  0  3.974855  0
C  C109  1  0.93842993  0.84916717  0.14801868  1  -0.012759  0  -0.081755  -0.12951  0  3.930215  0
C  C110  1  0.93617049  0.92340122  0.07510763  1  -0.001347  0  -0.00922  0.020975  0  4.013589  0
C  C111  1  0.87220803  0.96403050  0.03546398  1  0.032326  0  0.015651  0.110203  0  4.044318  0
C  C112  1  0.93797214  0.14704126  0.85023365  1  -0.008999  0  -0.075835  -0.133333  0  3.91117  0
C  C113  1  0.93664156  0.07396125  0.92455137  1  -0.002097  0  -0.003167  0.093457  0  4.041592  0
C  C114  1  0.87235815  0.03580468  0.96365465  1  0.067244  0  -0.092875  -0.20419  0  3.975325  0
C  C115  1  0.06414697  0.14755996  0.84969881  1  0.015903  0  -0.081538  -0.129117  0  3.930264  0
C  C116  1  0.06506012  0.07465025  0.92390719  1  0.007079  0  -0.00923  0.020905  0  4.014481  0
C  C117  1  0.12802268  0.03504316  0.96453872  1  0.023159  0  0.015373  0.109507  0  4.046427  0
C  C118  1  0.00214205  0.81265211  0.18368001  1  -0.045304  0  -0.018109  -0.034133  0  3.998052  0
C  C119  1  0.00018839  0.96178838  0.03694520  1  0.023019  0  0.006546  0.010633  0  3.910315  0
C  C120  1  0.00132074  0.18321783  0.81315489  1  -0.036748  0  -0.018158  -0.033931  0  3.996908  0
C  C121  1  0.00083369  0.03647196  0.96225581  1  -0.033518  0  0.007205  0.010881  0  3.91119  0
C  C122  1  0.30879733  0.50134976  0.50287878  1  -0.010566  0  -0.016137  -0.023454  0  3.993009  0
C  C123  1  0.68704487  0.50225581  0.50196459  1  0.056693  0  -0.016473  -0.022696  0  3.993119  0
C  C124  1  0.34597676  0.43771885  0.56546148  1  -0.02177  0  -0.088638  -0.156613  0  3.970058  0
C  C125  1  0.41948583  0.43468349  0.56637979  1  -0.02307  0  0.021562  0.107241  0  3.919981  0
C  C126  1  0.65092337  0.56485568  0.43833100  1  0.013295  0  -0.088773  -0.156491  0  3.970434  0
C  C127  1  0.57952786  0.56578727  0.43529649  1  0.041488  0  0.021887  0.106592  0  3.920674  0
C  C128  1  0.64970003  0.43918285  0.56379041  1  -0.070246  0  -0.082452  -0.083039  0  3.984832  0
C  C129  1  0.57863744  0.44069463  0.56067541  1  -0.017994  0  -0.09637  -0.124948  0  3.981631  0
C  C130  1  0.34740126  0.56317086  0.43979178  1  0.017958  0  -0.083047  -0.08354  0  3.986545  0
C  C131  1  0.42006641  0.56006822  0.44129660  1  -0.044674  0  -0.096269  -0.124858  0  3.982815  0
C  C132  1  0.46085164  0.49742972  0.50327397  1  0.080612  0  0.0012  0.030506  0  3.880861  0
C  C133  1  0.53851667  0.50267276  0.49803909  1  6.2e-05  0  0.001141  0.030773  0  3.880631  0
Cl  Cl134  1  0.45227084  0.65017266  0.04967522  1  -0.209356  0  1.3e-05  -0.081245  0  1.509573  0
Cl  Cl135  1  0.54963305  0.34756396  0.95280081  1  -0.212908  0  -5.2e-05  -0.081249  0  1.508961  0
Cl  Cl136  1  0.14984874  0.95257316  0.34761291  1  -0.212283  0  3e-06  -0.080988  0  1.508984  0
Cl  Cl137  1  0.84771478  0.04944285  0.65021142  1  -0.212417  0  -0.000166  -0.081351  0  1.509436  0
Cl  Cl138  1  0.44871253  0.05445988  0.34778056  1  -0.214437  0  -0.00016  -0.08118  0  1.509678  0
Cl  Cl139  1  0.55367884  0.94759473  0.65004621  1  -0.210207  0  0.00019  -0.080797  0  1.510521  0
Cl  Cl140  1  0.84894829  0.65009100  0.94762251  1  -0.217539  0  0.000268  -0.080662  0  1.510155  0
Cl  Cl141  1  0.14927443  0.34781852  0.05458663  1  -0.218061  0  2.3e-05  -0.080998  0  1.510469  0
Cl  Cl142  1  0.45035617  0.34608522  0.65214813  1  -0.209856  0  -8.6e-05  -0.081125  0  1.508674  0
Cl  Cl143  1  0.55149227  0.65155186  0.34669933  1  -0.208908  0  -2.9e-05  -0.080914  0  1.508602  0
Cl  Cl144  1  0.20610630  0.07985331  0.92090054  1  -0.219773  0  -0.018047  -0.093049  0  1.43769  0
Cl  Cl145  1  0.79292819  0.92041236  0.08026591  1  -0.219328  0  -0.018216  -0.09326  0  1.436782  0
O  O146  1  0.79483341  0.44130813  0.70215951  1  -1.178604  0  -0.354956  -0.616336  0  2.276301  0
O  O147  1  0.06172604  0.70169048  0.44166609  1  -1.183163  0  -0.35547  -0.616477  0  2.275606  0
O  O148  1  0.20081174  0.56276375  0.29392809  1  -1.184513  0  -0.355561  -0.616837  0  2.276236  0
O  O149  1  0.94267763  0.29330239  0.56328801  1  -1.17378  0  -0.355134  -0.616428  0  2.27572  0
O  O150  1  0.06042478  0.29235750  0.70372994  1  -1.178313  0  -0.355245  -0.614284  0  2.281558  0
O  O151  1  0.79501350  0.56193202  0.44205927  1  -1.178749  0  -0.354794  -0.615712  0  2.275983  0
O  O152  1  0.94337452  0.70322481  0.29291546  1  -1.182805  0  -0.355488  -0.614051  0  2.28236  0
O  O153  1  0.20107646  0.44141233  0.56254296  1  -1.1864  0  -0.354636  -0.616162  0  2.27385  0
O  O154  1  0.94328581  0.55948850  0.70126775  1  -1.18784  0  -0.356757  -0.617504  0  2.283762  0
O  O155  1  0.19972629  0.29439311  0.44488058  1  -1.177081  0  -0.356253  -0.616686  0  2.283223  0
O  O156  1  0.06103070  0.44455356  0.29477575  1  -1.179885  0  -0.356227  -0.616512  0  2.283687  0
O  O157  1  0.79601189  0.70085875  0.55995435  1  -1.180891  0  -0.356961  -0.617525  0  2.28407  0
O  O158  1  0.20043169  0.29256985  0.56367013  1  -1.17734  0  -0.353763  -0.618932  0  2.271333  0
O  O159  1  0.94326154  0.56323986  0.29310846  1  -1.182091  0  -0.353704  -0.618926  0  2.272689  0
O  O160  1  0.79521068  0.70232056  0.44137623  1  -1.17532  0  -0.353215  -0.617605  0  2.274073  0
O  O161  1  0.06109650  0.44081094  0.70289503  1  -1.17894  0  -0.353724  -0.618432  0  2.273361  0
O  O162  1  0.94234634  0.29239273  0.70381811  1  -1.180125  0  -0.355212  -0.619629  0  2.281023  0
O  O163  1  0.20132640  0.56110796  0.44300795  1  -1.181314  0  -0.354734  -0.620015  0  2.275458  0
O  O164  1  0.06142699  0.70327846  0.29278276  1  -1.181821  0  -0.355043  -0.61947  0  2.280786  0
O  O165  1  0.79470056  0.44228713  0.56165275  1  -1.179359  0  -0.354298  -0.619253  0  2.277306  0
O  O166  1  0.06049745  0.29459391  0.44456933  1  -1.183206  0  -0.354542  -0.618552  0  2.280989  0
O  O167  1  0.79550651  0.55976201  0.70113148  1  -1.1752  0  -0.354642  -0.61858  0  2.281511  0
O  O168  1  0.94370885  0.70061386  0.56021271  1  -1.184263  0  -0.35489  -0.618527  0  2.281517  0
O  O169  1  0.20032385  0.44416873  0.29506596  1  -1.175919  0  -0.354539  -0.618615  0  2.282788  0
O  O170  1  0.94797698  0.44846048  0.44848780  1  -1.247522  0  -0.694256  -1.06999  0  2.360575  0
O  O171  1  0.15509504  0.44797919  0.44899770  1  -1.265964  0  -0.694384  -1.070291  0  2.361298  0
O  O172  1  0.94875788  0.65592237  0.44707726  1  -1.24756  0  -0.694724  -1.068231  0  2.366807  0
O  O173  1  0.94826873  0.44656737  0.65644108  1  -1.223251  0  -0.694221  -1.067579  0  2.364857  0
O  O174  1  0.03847622  0.53746613  0.53836431  1  -1.199725  0  -0.790649  -1.149579  0  2.125752  0
O  O175  1  0.88570786  0.53784923  0.53800633  1  -1.193872  0  -0.790561  -1.148958  0  2.125514  0
O  O176  1  0.03799790  0.53902275  0.38535262  1  -1.192596  0  -0.79112  -1.149839  0  2.127231  0
O  O177  1  0.03764744  0.38487674  0.53950828  1  -1.193352  0  -0.790687  -1.149023  0  2.12647  0
