# generated using pymatgen
data_ZnH4(C2O3)2
_symmetry_space_group_name_H-M   'P 1'
_cell_length_a   7.21216914
_cell_length_b   7.45088301
_cell_length_c   7.90267754
_cell_angle_alpha   119.47171330
_cell_angle_beta   90.02799205
_cell_angle_gamma   118.91094772
_symmetry_Int_Tables_number   1
_chemical_formula_structural   ZnH4(C2O3)2
_chemical_formula_sum   'Zn2 H8 C8 O12'
_cell_volume   307.40271584
_cell_formula_units_Z   2
loop_
 _symmetry_equiv_pos_site_id
 _symmetry_equiv_pos_as_xyz
  1  'x, y, z'
loop_
 _atom_site_type_symbol
 _atom_site_label
 _atom_site_symmetry_multiplicity
 _atom_site_fract_x
 _atom_site_fract_y
 _atom_site_fract_z
 _atom_site_occupancy
 _atom_site_hle17_bader_spin_density
 _atom_site_hle17_ddec_charge
 _atom_site_hle17_ddec_spin_density
 _atom_site_hle17_ddec_sum_bond_order
 _atom_site_hle17_magmom
 _atom_site_hse06_10hf_bader_spin_density
 _atom_site_hse06_10hf_ddec_charge
 _atom_site_hse06_10hf_ddec_spin_density
 _atom_site_hse06_10hf_ddec_sum_bond_order
 _atom_site_hse06_10hf_magmom
 _atom_site_hse06_bader_spin_density
 _atom_site_hse06_ddec_charge
 _atom_site_hse06_ddec_spin_density
 _atom_site_hse06_ddec_sum_bond_order
 _atom_site_hse06_magmom
 _atom_site_pbe_bader_spin_density
 _atom_site_pbe_cm5_charge
 _atom_site_pbe_ddec_charge
 _atom_site_pbe_ddec_spin_density
 _atom_site_pbe_ddec_sum_bond_order
 _atom_site_pbe_magmom
Zn  Zn0  1  0.49999487  0.49999168  0.49999153  1  0  1.233179  0  1.627118  0  0  1.065393  0  2.075725  0  0  1.11432  0  2.013656  0  0  0.686868  1.031059  0  2.118363  0
Zn  Zn1  1  0.99999897  0.49999941  0.99999882  1  0  1.233518  0  1.626881  0  0  1.065767  0  2.075856  0  0  1.11466  0  2.01373  0  0  0.687015  1.031213  0  2.118681  0
H  H2  1  0.78709821  0.94889679  0.55742792  1  0  0.433622  0  0.864107  0  0  0.402362  0  0.927064  0  0  0.412907  0  0.912067  0  0  0.295025  0.39495  0  0.937593  0
H  H3  1  0.83773934  0.05102316  0.94274124  1  0  0.433522  0  0.864514  0  0  0.403019  0  0.92627  0  0  0.413529  0  0.911289  0  0  0.29527  0.395568  0  0.936878  0
H  H4  1  0.21289847  0.05110321  0.44257681  1  0  0.43359  0  0.864152  0  0  0.402324  0  0.927116  0  0  0.412869  0  0.912117  0  0  0.295026  0.394915  0  0.937641  0
H  H5  1  0.16225363  0.94896944  0.05725245  1  0  0.433513  0  0.864527  0  0  0.402986  0  0.926321  0  0  0.413497  0  0.911338  0  0  0.295259  0.395533  0  0.936932  0
H  H6  1  0.77612792  0.71359408  0.36199845  1  0  0.431716  0  0.865854  0  0  0.39996  0  0.930977  0  0  0.410696  0  0.915496  0  0  0.297547  0.392387  0  0.941873  0
H  H7  1  0.06236114  0.28613285  0.13801334  1  0  0.432176  0  0.864857  0  0  0.400298  0  0.930414  0  0  0.411017  0  0.914951  0  0  0.29777  0.392726  0  0.941314  0
H  H8  1  0.22386692  0.28640779  0.63800082  1  0  0.431669  0  0.865869  0  0  0.399926  0  0.931018  0  0  0.410657  0  0.915543  0  0  0.297526  0.392352  0  0.941915  0
H  H9  1  0.93763000  0.71386717  0.86198381  1  0  0.432206  0  0.864844  0  0  0.400335  0  0.930353  0  0  0.41105  0  0.914898  0  0  0.297797  0.392763  0  0.941253  0
C  C10  1  0.24094471  0.72373610  0.44406752  1  0  0.741071  0  3.937577  0  0  0.681294  0  4.231807  0  0  0.719704  0  4.217143  0  0  0.232566  0.655105  0  4.241278  0
C  C11  1  0.51701359  0.27636795  0.05565221  1  0  0.739609  0  3.938912  0  0  0.679443  0  4.234039  0  0  0.717876  0  4.21936  0  0  0.231871  0.653253  0  4.243509  0
C  C12  1  0.75905427  0.27626019  0.55593548  1  0  0.7411  0  3.93766  0  0  0.681366  0  4.231822  0  0  0.719786  0  4.217129  0  0  0.23261  0.655174  0  4.241299  0
C  C13  1  0.48299789  0.72363948  0.94434965  1  0  0.739937  0  3.938557  0  0  0.679689  0  4.233837  0  0  0.71812  0  4.219158  0  0  0.232006  0.653502  0  4.243308  0
C  C14  1  0.32840724  0.91753291  0.65922201  1  0  -0.112474  0  3.661846  0  0  -0.116608  0  3.931506  0  0  -0.118783  0  3.945927  0  0  -0.020413  -0.115551  0  3.922334  0
C  C15  1  0.41065217  0.08274483  0.84044374  1  0  -0.111776  0  3.660839  0  0  -0.115634  0  3.930454  0  0  -0.117805  0  3.944869  0  0  -0.020755  -0.114594  0  3.921288  0
C  C16  1  0.67159545  0.08247080  0.34078318  1  0  -0.112505  0  3.661878  0  0  -0.116651  0  3.931541  0  0  -0.118827  0  3.945957  0  0  -0.020481  -0.115595  0  3.92237  0
C  C17  1  0.58935560  0.91725518  0.15955720  1  0  -0.111861  0  3.660765  0  0  -0.115689  0  3.930422  0  0  -0.117862  0  3.944839  0  0  -0.020739  -0.114649  0  3.921255  0
O  O18  1  0.24504525  0.53494323  0.38934971  1  0  -0.6275  0  2.036523  0  0  -0.559937  0  2.281137  0  0  -0.58807  0  2.266623  0  0  -0.28664  -0.540267  0  2.290551  0
O  O19  1  0.70970727  0.46533650  0.11035739  1  0  -0.626455  0  2.035552  0  0  -0.559095  0  2.280257  0  0  -0.587171  0  2.265691  0  0  -0.286324  -0.539389  0  2.289722  0
O  O20  1  0.75494910  0.46504935  0.61065157  1  0  -0.627429  0  2.036449  0  0  -0.559908  0  2.281054  0  0  -0.58804  0  2.266534  0  0  -0.2866  -0.54024  0  2.290472  0
O  O21  1  0.29030374  0.53467277  0.88965039  1  0  -0.626593  0  2.035336  0  0  -0.559212  0  2.280103  0  0  -0.587288  0  2.265533  0  0  -0.286413  -0.539509  0  2.289573  0
O  O22  1  0.16595475  0.75877545  0.32445235  1  0  -0.641985  0  2.065876  0  0  -0.561734  0  2.303794  0  0  -0.592752  0  2.291714  0  0  -0.284314  -0.540207  0  2.311617  0
O  O23  1  0.40742149  0.24102145  0.17530638  1  0  -0.64133  0  2.065463  0  0  -0.561225  0  2.303248  0  0  -0.592254  0  2.291224  0  0  -0.283998  -0.539757  0  2.311181  0
O  O24  1  0.83405071  0.24122272  0.67554519  1  0  -0.642025  0  2.065971  0  0  -0.561786  0  2.303883  0  0  -0.592823  0  2.291825  0  0  -0.284339  -0.54024  0  2.311678  0
O  O25  1  0.59258767  0.75898412  0.82469588  1  0  -0.641448  0  2.065425  0  0  -0.561337  0  2.303266  0  0  -0.592349  0  2.291214  0  0  -0.284039  -0.539873  0  2.3112  0
O  O26  1  0.76385318  0.78472018  0.50222000  1  0  -0.841598  0  1.931505  0  0  -0.778416  0  2.145849  0  0  -0.801271  0  2.110248  0  0  -0.577045  -0.76224  0  2.170349  0
O  O27  1  0.97868717  0.21511999  0.99792872  1  0  -0.84196  0  1.931293  0  0  -0.779288  0  2.145433  0  0  -0.802096  0  2.10996  0  0  -0.57751  -0.763107  0  2.169998  0
O  O28  1  0.23613517  0.21527427  0.49777709  1  0  -0.841521  0  1.931519  0  0  -0.77835  0  2.145881  0  0  -0.801199  0  2.110291  0  0  -0.577027  -0.762174  0  2.170378  0
O  O29  1  0.02130397  0.78488003  0.00206843  1  0  -0.841969  0  1.931252  0  0  -0.77929  0  2.145433  0  0  -0.802098  0  2.109961  0  0  -0.577521  -0.763109  0  2.169997  0
