# generated using pymatgen
data_ThH12C10(NO6)2
_symmetry_space_group_name_H-M   'P 1'
_cell_length_a   8.64054089
_cell_length_b   12.95615317
_cell_length_c   13.35790174
_cell_angle_alpha   90.00003806
_cell_angle_beta   89.99994780
_cell_angle_gamma   90.00001796
_symmetry_Int_Tables_number   1
_chemical_formula_structural   ThH12C10(NO6)2
_chemical_formula_sum   'Th4 H48 C40 N8 O48'
_cell_volume   1495.39267114
_cell_formula_units_Z   4
loop_
 _symmetry_equiv_pos_site_id
 _symmetry_equiv_pos_as_xyz
  1  'x, y, z'
loop_
 _atom_site_type_symbol
 _atom_site_label
 _atom_site_symmetry_multiplicity
 _atom_site_fract_x
 _atom_site_fract_y
 _atom_site_fract_z
 _atom_site_occupancy
 _atom_site_pbe_bader_spin_density
 _atom_site_pbe_cm5_charge
 _atom_site_pbe_ddec_charge
 _atom_site_pbe_ddec_spin_density
 _atom_site_pbe_ddec_sum_bond_order
 _atom_site_pbe_magmom
Th  Th0  1  0.25000011  0.35141169  0.75000032  1  0  1.577729  2.212011  0  3.204836  0
Th  Th1  1  0.74999920  0.14858979  0.25000017  1  0  1.577772  2.212102  0  3.204775  0
Th  Th2  1  0.75000048  0.64858928  0.24999958  1  0  1.577721  2.211941  0  3.204922  0
Th  Th3  1  0.25000023  0.85141118  0.74999973  1  0  1.577741  2.211992  0  3.204812  0
H  H4  1  0.60801024  0.29165009  0.53512588  1  0  0.330081  0.291083  0  0.901463  0
H  H5  1  0.89199100  0.29164949  0.96487442  1  0  0.330083  0.291093  0  0.901432  0
H  H6  1  0.10800916  0.20834982  0.46487469  1  0  0.330075  0.291099  0  0.901421  0
H  H7  1  0.39199053  0.20835048  0.03512598  1  0  0.330093  0.291109  0  0.901438  0
H  H8  1  0.39199035  0.70835629  0.46487477  1  0  0.330083  0.291088  0  0.901447  0
H  H9  1  0.10800958  0.70835611  0.03512547  1  0  0.330084  0.291101  0  0.901437  0
H  H10  1  0.89199027  0.79164420  0.53512520  1  0  0.330091  0.291127  0  0.901408  0
H  H11  1  0.60800890  0.79164432  0.96487467  1  0  0.330114  0.291143  0  0.901365  0
H  H12  1  0.65558357  0.29752147  0.65715251  1  0  0.331136  0.295101  0  0.899644  0
H  H13  1  0.84441652  0.29752156  0.84284779  1  0  0.331141  0.295095  0  0.899717  0
H  H14  1  0.15558382  0.20247844  0.34284803  1  0  0.331117  0.29505  0  0.899754  0
H  H15  1  0.34441703  0.20247840  0.15715264  1  0  0.331143  0.295097  0  0.899678  0
H  H16  1  0.34441702  0.70248413  0.34284813  1  0  0.331134  0.29511  0  0.899676  0
H  H17  1  0.15558291  0.70248405  0.15715286  1  0  0.331144  0.295136  0  0.89964  0
H  H18  1  0.84441677  0.79751635  0.65715187  1  0  0.331142  0.295124  0  0.899672  0
H  H19  1  0.65558240  0.79751640  0.84284801  1  0  0.33114  0.295121  0  0.899668  0
H  H20  1  0.86327555  0.30495728  0.47808840  1  0  0.128293  0.140095  0  1.000882  0
H  H21  1  0.63672524  0.30495788  0.02191129  1  0  0.128285  0.140082  0  1.000903  0
H  H22  1  0.36327439  0.19504268  0.52191201  1  0  0.128285  0.140086  0  1.000894  0
H  H23  1  0.13672459  0.19504281  0.97808927  1  0  0.128285  0.140083  0  1.000918  0
H  H24  1  0.13672619  0.69504137  0.52191149  1  0  0.128288  0.140084  0  1.000917  0
H  H25  1  0.36327303  0.69504078  0.97808861  1  0  0.128285  0.140107  0  1.00089  0
H  H26  1  0.63672620  0.80495752  0.47808863  1  0  0.128269  0.140058  0  1.000907  0
H  H27  1  0.86327252  0.80495739  0.02191138  1  0  0.12829  0.140104  0  1.000927  0
H  H28  1  0.83023356  0.19307919  0.55188664  1  0  0.1321  0.150673  0  0.976071  0
H  H29  1  0.66976763  0.19307931  0.94811434  1  0  0.132115  0.150668  0  0.976073  0
H  H30  1  0.33023256  0.30691999  0.44811379  1  0  0.132108  0.15068  0  0.976053  0
H  H31  1  0.16976719  0.30691984  0.05188694  1  0  0.132114  0.150685  0  0.976067  0
H  H32  1  0.16976240  0.80692101  0.44811550  1  0  0.132102  0.150686  0  0.976038  0
H  H33  1  0.33023758  0.80692166  0.05188481  1  0  0.132121  0.15074  0  0.976007  0
H  H34  1  0.66976224  0.69307789  0.55188461  1  0  0.132127  0.15074  0  0.975973  0
H  H35  1  0.83023803  0.69307805  0.94811520  1  0  0.132133  0.150751  0  0.976016  0
H  H36  1  0.71681020  0.46234041  0.50892493  1  0  0.130447  0.142356  0  0.974702  0
H  H37  1  0.78318997  0.46234059  0.99107548  1  0  0.130428  0.142321  0  0.974739  0
H  H38  1  0.21681016  0.03765875  0.49107483  1  0  0.130443  0.142358  0  0.9747  0
H  H39  1  0.28318945  0.03765859  0.00892498  1  0  0.130436  0.142353  0  0.974701  0
H  H40  1  0.28319270  0.53766133  0.49107497  1  0  0.130456  0.142329  0  0.974732  0
H  H41  1  0.21680831  0.53766116  0.00892516  1  0  0.130434  0.142308  0  0.97474  0
H  H42  1  0.78319158  0.96233837  0.50892507  1  0  0.130426  0.142299  0  0.974722  0
H  H43  1  0.71680998  0.96233853  0.99107491  1  0  0.130442  0.142327  0  0.974702  0
H  H44  1  0.76640886  0.46513219  0.63882106  1  0  0.128754  0.140834  0  0.954454  0
H  H45  1  0.73359131  0.46513226  0.86117860  1  0  0.128757  0.140846  0  0.954485  0
H  H46  1  0.26641016  0.03486775  0.36117866  1  0  0.128774  0.140866  0  0.954481  0
H  H47  1  0.23359061  0.03486767  0.13882115  1  0  0.128779  0.140874  0  0.954459  0
H  H48  1  0.23359867  0.53487187  0.36117659  1  0  0.128736  0.140789  0  0.954421  0
H  H49  1  0.26640233  0.53487180  0.13882354  1  0  0.128726  0.140788  0  0.95442  0
H  H50  1  0.73359506  0.96512782  0.63882273  1  0  0.128719  0.14076  0  0.954418  0
H  H51  1  0.76640419  0.96512712  0.86117651  1  0  0.128719  0.140771  0  0.954427  0
C  C52  1  0.83907793  0.27766294  0.55424407  1  0  -0.061049  -0.207159  0  3.787065  0
C  C53  1  0.66092214  0.27766306  0.94575622  1  0  -0.061072  -0.207159  0  3.787092  0
C  C54  1  0.33907805  0.22233702  0.44575636  1  0  -0.061066  -0.207164  0  3.78703  0
C  C55  1  0.16092165  0.22233686  0.05424357  1  0  -0.061061  -0.207176  0  3.787095  0
C  C56  1  0.16092265  0.72233726  0.44575732  1  0  -0.061046  -0.207147  0  3.787008  0
C  C57  1  0.33907844  0.72233715  0.05424368  1  0  -0.061081  -0.207274  0  3.787188  0
C  C58  1  0.66092138  0.77766241  0.55424354  1  0  -0.061043  -0.207167  0  3.787033  0
C  C59  1  0.83907778  0.77766179  0.94575707  1  0  -0.061072  -0.20725  0  3.787109  0
C  C60  1  0.96931742  0.30440934  0.62411205  1  0  0.216372  0.622958  0  4.16365  0
C  C61  1  0.53068267  0.30440938  0.87588825  1  0  0.216387  0.622967  0  4.163604  0
C  C62  1  0.46931762  0.19559064  0.37588830  1  0  0.21637  0.622927  0  4.163737  0
C  C63  1  0.03068322  0.19559051  0.12411236  1  0  0.216409  0.623062  0  4.163662  0
C  C64  1  0.03068432  0.69558931  0.37588784  1  0  0.216388  0.623054  0  4.163699  0
C  C65  1  0.46931560  0.69559005  0.12411164  1  0  0.21636  0.622997  0  4.163831  0
C  C66  1  0.53068296  0.80441033  0.62411160  1  0  0.216386  0.623015  0  4.163786  0
C  C67  1  0.96931621  0.80440969  0.87588829  1  0  0.216385  0.623041  0  4.163701  0
C  C68  1  0.68271274  0.43613204  0.58392847  1  0  -0.058351  -0.199354  0  3.762121  0
C  C69  1  0.81728626  0.43613140  0.91607117  1  0  -0.058334  -0.199346  0  3.762173  0
C  C70  1  0.18271398  0.06386788  0.41607130  1  0  -0.05838  -0.199413  0  3.762176  0
C  C71  1  0.31728681  0.06386778  0.08392853  1  0  -0.058366  -0.199398  0  3.762199  0
C  C72  1  0.31729248  0.56387125  0.41607067  1  0  -0.058264  -0.199172  0  3.761935  0
C  C73  1  0.18270739  0.56387112  0.08393023  1  0  -0.058249  -0.199177  0  3.761956  0
C  C74  1  0.81728892  0.93612691  0.58393009  1  0  -0.058243  -0.199125  0  3.762008  0
C  C75  1  0.68271031  0.93612701  0.91606987  1  0  -0.058238  -0.199177  0  3.762025  0
C  C76  1  0.52133510  0.47671121  0.60812246  1  0  0.220391  0.622711  0  4.189083  0
C  C77  1  0.97866507  0.47671135  0.89187796  1  0  0.220389  0.622706  0  4.189044  0
C  C78  1  0.02133520  0.02329023  0.39187742  1  0  0.220355  0.62266  0  4.189082  0
C  C79  1  0.47866441  0.02329018  0.10812388  1  0  0.220366  0.622697  0  4.189015  0
C  C80  1  0.47867127  0.52329440  0.39188044  1  0  0.220424  0.622733  0  4.189137  0
C  C81  1  0.02132857  0.52329425  0.10811969  1  0  0.220353  0.622684  0  4.189141  0
C  C82  1  0.97866654  0.97670534  0.60812248  1  0  0.220337  0.622672  0  4.189219  0
C  C83  1  0.52133386  0.97670539  0.89187676  1  0  0.220385  0.622734  0  4.189161  0
C  C84  1  0.18281111  0.59945520  0.71193680  1  0  0.221965  0.496489  0  4.233383  0
C  C85  1  0.31719038  0.59945524  0.78806249  1  0  0.22194  0.496449  0  4.233433  0
C  C86  1  0.68281027  0.90054679  0.28806255  1  0  0.222008  0.496504  0  4.233242  0
C  C87  1  0.81718965  0.90054678  0.21193678  1  0  0.22198  0.496474  0  4.233228  0
C  C88  1  0.81718947  0.40054577  0.28806534  1  0  0.221973  0.496503  0  4.233396  0
C  C89  1  0.68281021  0.40054573  0.21193441  1  0  0.221991  0.496578  0  4.233278  0
C  C90  1  0.31718916  0.09945264  0.71193361  1  0  0.222032  0.496634  0  4.233069  0
C  C91  1  0.18280978  0.09945265  0.78806686  1  0  0.222009  0.496592  0  4.233242  0
N  N92  1  0.68773902  0.32105004  0.58571989  1  0  -0.466141  -0.150856  0  3.552856  0
N  N93  1  0.81226108  0.32105017  0.91428043  1  0  -0.466153  -0.150858  0  3.552961  0
N  N94  1  0.18773800  0.17894988  0.41428064  1  0  -0.466112  -0.150802  0  3.552882  0
N  N95  1  0.31226168  0.17894978  0.08572002  1  0  -0.466154  -0.150883  0  3.552914  0
N  N96  1  0.31226388  0.67895325  0.41428076  1  0  -0.466204  -0.150999  0  3.552865  0
N  N97  1  0.18773603  0.67895312  0.08572021  1  0  -0.466188  -0.150991  0  3.552876  0
N  N98  1  0.81226259  0.82104723  0.58572001  1  0  -0.466206  -0.151024  0  3.552916  0
N  N99  1  0.68773659  0.82104656  0.91427988  1  0  -0.466236  -0.151033  0  3.552834  0
O  O100  1  0.94352847  0.33009601  0.71410824  1  0  -0.323624  -0.58244  0  2.238455  0
O  O101  1  0.55647163  0.33009599  0.78589208  1  0  -0.323619  -0.582422  0  2.238438  0
O  O102  1  0.44352879  0.16990320  0.28589213  1  0  -0.323591  -0.582414  0  2.23852  0
O  O103  1  0.05647089  0.16990313  0.21410852  1  0  -0.323582  -0.582451  0  2.238528  0
O  O104  1  0.05647327  0.66990342  0.28589166  1  0  -0.323583  -0.582446  0  2.238521  0
O  O105  1  0.44352780  0.66990344  0.21410856  1  0  -0.323572  -0.582423  0  2.238541  0
O  O106  1  0.55647296  0.83009700  0.71410852  1  0  -0.323577  -0.58243  0  2.238522  0
O  O107  1  0.94352738  0.83009630  0.78589213  1  0  -0.323578  -0.582429  0  2.238509  0
O  O108  1  0.10638073  0.29814118  0.58879688  1  0  -0.335482  -0.582129  0  2.208007  0
O  O109  1  0.39361946  0.29814132  0.91120447  1  0  -0.335502  -0.582156  0  2.207985  0
O  O110  1  0.60637962  0.20185873  0.41120369  1  0  -0.335496  -0.582132  0  2.208056  0
O  O111  1  0.89361881  0.20185788  0.08879668  1  0  -0.33555  -0.582232  0  2.20805  0
O  O112  1  0.89362102  0.70185439  0.41120451  1  0  -0.335506  -0.582214  0  2.208113  0
O  O113  1  0.60637881  0.70185503  0.08879543  1  0  -0.335495  -0.582169  0  2.208119  0
O  O114  1  0.39362097  0.79814533  0.58879546  1  0  -0.335495  -0.582175  0  2.208122  0
O  O115  1  0.10637946  0.79814541  0.91120471  1  0  -0.335505  -0.582195  0  2.208079  0
O  O116  1  0.41329555  0.40805270  0.61748471  1  0  -0.398171  -0.644349  0  2.335912  0
O  O117  1  0.08670470  0.40805276  0.88251446  1  0  -0.39818  -0.644369  0  2.335965  0
O  O118  1  0.91329559  0.09194650  0.38251493  1  0  -0.398131  -0.64435  0  2.336092  0
O  O119  1  0.58670511  0.09194637  0.11748537  1  0  -0.39815  -0.644359  0  2.335997  0
O  O120  1  0.58670967  0.59195136  0.38251518  1  0  -0.39814  -0.644271  0  2.336105  0
O  O121  1  0.91329126  0.59195130  0.11748469  1  0  -0.398124  -0.644276  0  2.336131  0
O  O122  1  0.08670731  0.90805139  0.61748497  1  0  -0.39809  -0.644257  0  2.336184  0
O  O123  1  0.41329201  0.90805151  0.88251452  1  0  -0.398151  -0.644295  0  2.336155  0
O  O124  1  0.50461973  0.57164293  0.61459132  1  0  -0.299219  -0.524162  0  2.150598  0
O  O125  1  0.99537933  0.57164308  0.88540841  1  0  -0.299215  -0.524129  0  2.150549  0
O  O126  1  0.00462119  0.92835594  0.38540813  1  0  -0.299214  -0.524107  0  2.150446  0
O  O127  1  0.49537885  0.92835590  0.11459300  1  0  -0.29921  -0.524124  0  2.150433  0
O  O128  1  0.49538548  0.42835958  0.38541082  1  0  -0.299289  -0.524235  0  2.150475  0
O  O129  1  0.00461547  0.42835944  0.11458924  1  0  -0.299241  -0.524193  0  2.150446  0
O  O130  1  0.99538172  0.07164195  0.61459176  1  0  -0.299249  -0.524219  0  2.150404  0
O  O131  1  0.50461827  0.07164199  0.88540839  1  0  -0.299238  -0.524218  0  2.150408  0
O  O132  1  0.13289410  0.51285000  0.68252948  1  0  -0.34458  -0.556169  0  2.312032  0
O  O133  1  0.36710851  0.51285085  0.81747051  1  0  -0.344564  -0.556154  0  2.312047  0
O  O134  1  0.63289326  0.98714966  0.31747140  1  0  -0.3446  -0.556211  0  2.31207  0
O  O135  1  0.86710670  0.98714964  0.18252798  1  0  -0.344597  -0.556192  0  2.312018  0
O  O136  1  0.86710765  0.48715020  0.31746967  1  0  -0.344588  -0.556194  0  2.312076  0
O  O137  1  0.63289324  0.48715090  0.18253013  1  0  -0.344568  -0.556207  0  2.312021  0
O  O138  1  0.36710501  0.01285131  0.68252925  1  0  -0.34459  -0.556241  0  2.312143  0
O  O139  1  0.13289504  0.01285133  0.81747117  1  0  -0.34459  -0.556224  0  2.312171  0
O  O140  1  0.13374478  0.68713476  0.68372209  1  0  -0.341801  -0.561661  0  2.326652  0
O  O141  1  0.36625675  0.68713483  0.81627802  1  0  -0.341804  -0.561668  0  2.326669  0
O  O142  1  0.63374502  0.81286491  0.31627954  1  0  -0.341838  -0.561656  0  2.326496  0
O  O143  1  0.86625602  0.81286489  0.18372048  1  0  -0.341821  -0.561673  0  2.326523  0
O  O144  1  0.86625465  0.31286390  0.31627781  1  0  -0.341816  -0.561697  0  2.326685  0
O  O145  1  0.63374499  0.31286383  0.18372263  1  0  -0.341855  -0.561734  0  2.326637  0
O  O146  1  0.36625441  0.18713838  0.68371961  1  0  -0.341876  -0.561771  0  2.326426  0
O  O147  1  0.13374457  0.18713840  0.81628017  1  0  -0.341834  -0.561741  0  2.326557  0
