# generated using pymatgen
data_NdH12C15NO9
_symmetry_space_group_name_H-M   'P 1'
_cell_length_a   9.15628742
_cell_length_b   10.15982458
_cell_length_c   11.49140244
_cell_angle_alpha   96.26635678
_cell_angle_beta   98.49038053
_cell_angle_gamma   111.84390655
_symmetry_Int_Tables_number   1
_chemical_formula_structural   NdH12C15NO9
_chemical_formula_sum   'Nd2 H24 C30 N2 O18'
_cell_volume   965.57144024
_cell_formula_units_Z   2
loop_
 _symmetry_equiv_pos_site_id
 _symmetry_equiv_pos_as_xyz
  1  'x, y, z'
loop_
 _atom_site_type_symbol
 _atom_site_label
 _atom_site_symmetry_multiplicity
 _atom_site_fract_x
 _atom_site_fract_y
 _atom_site_fract_z
 _atom_site_occupancy
 _atom_site_pbe_bader_charge
 _atom_site_pbe_bader_spin_density
 _atom_site_pbe_cm5_charge
 _atom_site_pbe_ddec_charge
 _atom_site_pbe_ddec_spin_density
 _atom_site_pbe_ddec_sum_bond_order
 _atom_site_pbe_magmom
Nd  Nd0  1  0.71579773  0.96175408  0.00857479  1  2.248657  0  1.500333  2.112529  0  2.15514  0
Nd  Nd1  1  0.28420589  0.03825658  0.99143404  1  2.248768  0  1.500395  2.112664  0  2.154942  0
H  H2  1  0.35059992  0.50208757  0.04394815  1  0.107794  0  0.110859  0.119627  0  1.002276  0
H  H3  1  0.19608967  0.81071724  0.21983365  1  0.127937  0  0.117528  0.140528  0  1.008201  0
H  H4  1  0.89715049  0.35691234  0.15659874  1  0.092902  0  0.113447  0.128613  0  1.028093  0
H  H5  1  0.17254049  0.59761197  0.40971445  1  0.06295  0  0.107733  0.125053  0  0.996275  0
H  H6  1  0.26806446  0.71871259  0.62235720  1  0.078208  0  0.099871  0.104138  0  1.020772  0
H  H7  1  0.90643509  0.89662611  0.58139698  1  0.073633  0  0.102242  0.114014  0  1.017992  0
H  H8  1  0.73762982  0.84305908  0.38217579  1  0.435937  0  0.306919  0.302942  0  0.934926  0
H  H9  1  0.75465848  0.73843206  0.26486738  1  0.475123  0  0.304538  0.309969  0  0.963572  0
H  H10  1  0.71330300  0.86500396  0.75552460  1  0.614185  0  0.318577  0.403302  0  0.895931  0
H  H11  1  0.90163367  0.96130282  0.78950573  1  0.659905  0  0.303392  0.410211  0  0.917526  0
H  H12  1  0.45488365  0.67651677  0.84079967  1  0.612723  0  0.337387  0.422485  0  0.859153  0
H  H13  1  0.40017634  0.80421783  0.81282074  1  0.661699  0  0.303329  0.410479  0  0.924816  0
H  H14  1  0.64941083  0.49791673  0.95605215  1  0.107945  0  0.110862  0.119635  0  1.00226  0
H  H15  1  0.80390570  0.18928468  0.78016386  1  0.127976  0  0.117527  0.140491  0  1.008084  0
H  H16  1  0.10285160  0.64308215  0.84339270  1  0.093041  0  0.113446  0.128647  0  1.028161  0
H  H17  1  0.82747003  0.40238912  0.59028726  1  0.063295  0  0.107738  0.125082  0  0.996303  0
H  H18  1  0.73194790  0.28129282  0.37764599  1  0.076193  0  0.099891  0.10418  0  1.020902  0
H  H19  1  0.09353990  0.10335093  0.41860547  1  0.073269  0  0.102247  0.114062  0  1.017947  0
H  H20  1  0.26236552  0.15692683  0.61783062  1  0.436366  0  0.306886  0.302929  0  0.934989  0
H  H21  1  0.24533504  0.26156021  0.73513160  1  0.475076  0  0.304543  0.309953  0  0.963637  0
H  H22  1  0.28670032  0.13501635  0.24448773  1  0.613908  0  0.318663  0.403455  0  0.895748  0
H  H23  1  0.09836550  0.03871844  0.21049493  1  0.659885  0  0.303472  0.410322  0  0.917367  0
H  H24  1  0.54514045  0.32348773  0.15920298  1  0.612689  0  0.337496  0.422562  0  0.859091  0
H  H25  1  0.59982214  0.19578094  0.18717942  1  0.661706  0  0.30335  0.410549  0  0.924719  0
C  C26  1  0.08928938  0.26343438  0.03954939  1  1.596882  0  0.238557  0.657948  0  4.165253  0
C  C27  1  0.11968619  0.41468050  0.09239682  1  -0.025505  0  -0.014277  -0.023323  0  3.983336  0
C  C28  1  0.26274905  0.52662366  0.08635304  1  -0.005606  0  -0.078574  -0.122501  0  3.932494  0
C  C29  1  0.28914570  0.66935599  0.12973025  1  -0.03741  0  -0.008999  -0.009103  0  3.978544  0
C  C30  1  0.43506609  0.78603513  0.10886569  1  1.548415  0  0.219801  0.616521  0  4.188164  0
C  C31  1  0.17723446  0.69986645  0.18621177  1  0.040468  0  -0.075226  -0.184768  0  3.910258  0
C  C32  1  0.04035754  0.58563384  0.19887964  1  0.438128  0  0.083451  0.244989  0  4.050979  0
C  C33  1  0.00728488  0.44403904  0.14932713  1  -0.037101  0  -0.083036  -0.191855  0  3.93399  0
C  C34  1  0.98615557  0.67778307  0.37738671  1  0.442007  0  0.082221  0.163945  0  3.984484  0
C  C35  1  0.11441444  0.66280253  0.44829635  1  0.012006  0  -0.108912  -0.199955  0  4.067608  0
C  C36  1  0.16791575  0.73073851  0.56736062  1  -0.031429  0  -0.105171  -0.107181  0  4.031498  0
C  C37  1  0.09258962  0.81550923  0.61519399  1  -0.027161  0  -0.039956  -0.065476  0  4.082392  0
C  C38  1  0.15241143  0.89232881  0.74037806  1  1.486649  0  0.204447  0.588082  0  4.192828  0
C  C39  1  0.96191494  0.82822065  0.54374981  1  0.015011  0  -0.103431  -0.212635  0  3.959356  0
C  C40  1  0.90306128  0.75753853  0.42433390  1  0.395205  0  0.088618  0.207328  0  4.119221  0
C  C41  1  0.91071253  0.73656226  0.96044398  1  1.596779  0  0.238654  0.658147  0  4.164633  0
C  C42  1  0.88031392  0.58531184  0.90759768  1  -0.025331  0  -0.014281  -0.023535  0  3.983607  0
C  C43  1  0.73725055  0.47336759  0.91363782  1  -0.008807  0  -0.078577  -0.12248  0  3.933102  0
C  C44  1  0.71087229  0.33065486  0.87027496  1  -0.034564  0  -0.008912  -0.009053  0  3.978833  0
C  C45  1  0.56493850  0.21398304  0.89114397  1  1.548497  0  0.219742  0.616488  0  4.188393  0
C  C46  1  0.82276278  0.30013759  0.81377570  1  0.0407  0  -0.075198  -0.184645  0  3.910305  0
C  C47  1  0.95964393  0.41436394  0.80112772  1  0.438017  0  0.083408  0.244912  0  4.050893  0
C  C48  1  0.99271674  0.55596725  0.85066974  1  -0.03737  0  -0.082971  -0.191791  0  3.934017  0
C  C49  1  0.01385694  0.32222019  0.62261369  1  0.442393  0  0.082327  0.164072  0  3.98455  0
C  C50  1  0.88559678  0.33719752  0.55170881  1  0.011534  0  -0.108904  -0.199951  0  4.067493  0
C  C51  1  0.83208664  0.26925922  0.43263465  1  -0.029408  0  -0.105198  -0.107268  0  4.031389  0
C  C52  1  0.90740796  0.18448206  0.38481057  1  -0.027073  0  -0.03997  -0.065472  0  4.08238  0
C  C53  1  0.84757720  0.10766987  0.25963145  1  1.486567  0  0.204477  0.588153  0  4.192588  0
C  C54  1  0.03808618  0.17176855  0.45625494  1  0.015025  0  -0.103458  -0.212734  0  3.959386  0
C  C55  1  0.09692985  0.24243232  0.57566885  1  0.394999  0  0.088495  0.207153  0  4.119429  0
N  N56  1  0.76830297  0.76023653  0.35519358  1  -1.223409  0  -0.598133  -0.607232  0  3.329968  0
N  N57  1  0.23169768  0.23975159  0.64481102  1  -1.223623  0  -0.598016  -0.607077  0  3.330122  0
O  O58  1  0.56578623  0.76835396  0.11768250  1  -1.178048  0  -0.362249  -0.607259  0  2.21187  0
O  O59  1  0.09257401  0.97668654  0.78580226  1  -1.196441  0  -0.35516  -0.631543  0  2.260725  0
O  O60  1  0.20981769  0.23799447  0.01954825  1  -1.201508  0  -0.412054  -0.672236  0  2.310979  0
O  O61  1  0.94654820  0.16919909  0.01744632  1  -1.21606  0  -0.416201  -0.688211  0  2.380129  0
O  O62  1  0.42460844  0.89982608  0.07561269  1  -1.219118  0  -0.429184  -0.734832  0  2.360663  0
O  O63  1  0.92923117  0.61300945  0.25816155  1  -1.101055  0  -0.156938  -0.20758  0  2.531533  0
O  O64  1  0.26934085  0.87619638  0.80620119  1  -1.202956  0  -0.377612  -0.655527  0  2.337602  0
O  O65  1  0.79367376  0.95664882  0.80071667  1  -1.261331  0  -0.611927  -0.824966  0  2.024038  0
O  O66  1  0.49533019  0.77801284  0.83471661  1  -1.262262  0  -0.60626  -0.836612  0  1.997872  0
O  O67  1  0.43421443  0.23164482  0.88231442  1  -1.178105  0  -0.36221  -0.607184  0  2.212112  0
O  O68  1  0.90741862  0.02331425  0.21419049  1  -1.196305  0  -0.355246  -0.63164  0  2.260544  0
O  O69  1  0.79018383  0.76200424  0.98043222  1  -1.201326  0  -0.412075  -0.672212  0  2.310552  0
O  O70  1  0.05344643  0.83081673  0.98255158  1  -1.216209  0  -0.416263  -0.688287  0  2.379922  0
O  O71  1  0.57538241  0.10018329  0.92438939  1  -1.219125  0  -0.429189  -0.734902  0  2.360791  0
O  O72  1  0.07076579  0.38698070  0.74183152  1  -1.101095  0  -0.156939  -0.207538  0  2.531546  0
O  O73  1  0.73065291  0.12379909  0.19379639  1  -1.203014  0  -0.377665  -0.655586  0  2.337541  0
O  O74  1  0.20632484  0.04337352  0.19928925  1  -1.261018  0  -0.612103  -0.825228  0  2.023909  0
O  O75  1  0.50467349  0.22199563  0.16528332  1  -1.26228  0  -0.606397  -0.836781  0  1.997852  0
