# generated using pymatgen
data_TlH28AuC28N2(Cl5O2)2
_symmetry_space_group_name_H-M   'P 1'
_cell_length_a   11.54122776
_cell_length_b   12.84009389
_cell_length_c   15.19200000
_cell_angle_alpha   105.30639938
_cell_angle_beta   103.45354890
_cell_angle_gamma   111.67467775
_symmetry_Int_Tables_number   1
_chemical_formula_structural   TlH28AuC28N2(Cl5O2)2
_chemical_formula_sum   'Tl2 H56 Au2 C56 N4 Cl20 O8'
_cell_volume   1876.04284034
_cell_formula_units_Z   2
loop_
 _symmetry_equiv_pos_site_id
 _symmetry_equiv_pos_as_xyz
  1  'x, y, z'
loop_
 _atom_site_type_symbol
 _atom_site_label
 _atom_site_symmetry_multiplicity
 _atom_site_fract_x
 _atom_site_fract_y
 _atom_site_fract_z
 _atom_site_occupancy
 _atom_site_pbe_bader_charge
 _atom_site_pbe_bader_spin_density
 _atom_site_pbe_cm5_charge
 _atom_site_pbe_ddec_charge
 _atom_site_pbe_ddec_spin_density
 _atom_site_pbe_ddec_sum_bond_order
 _atom_site_pbe_magmom
Tl  Tl0  1  0.78185667  0.99746472  0.08236734  1  0.749057  0  0.27001  0.554905  0  1.525356  0
Tl  Tl1  1  0.21813816  0.00253506  0.91763005  1  0.749045  0  0.270017  0.554927  0  1.525305  0
H  H2  1  0.11765486  0.19756397  0.32998757  1  0.06178  0  0.088298  0.143647  0  1.025306  0
H  H3  1  0.88233674  0.80242945  0.67000454  1  0.06184  0  0.088252  0.143568  0  1.025437  0
H  H4  1  0.11718902  0.25412158  0.45119303  1  0.051788  0  0.09216  0.146047  0  1.031514  0
H  H5  1  0.88280666  0.74587638  0.54880147  1  0.051627  0  0.092122  0.146032  0  1.031473  0
H  H6  1  0.00685271  0.25870178  0.35009611  1  0.039516  0  0.086811  0.134314  0  1.0163  0
H  H7  1  0.99313982  0.74129346  0.64989789  1  0.039565  0  0.086818  0.134336  0  1.016331  0
H  H8  1  0.95925679  0.12532697  0.50090087  1  0.078269  0  0.089764  0.117271  0  1.076354  0
H  H9  1  0.04074605  0.87467281  0.49909925  1  0.078099  0  0.089744  0.117302  0  1.076469  0
H  H10  1  0.75626278  0.84506376  0.50305045  1  0.091606  0  0.100594  0.15524  0  1.002514  0
H  H11  1  0.24373831  0.15493784  0.49695240  1  0.091608  0  0.100591  0.155223  0  1.002503  0
H  H12  1  0.65868878  0.92253359  0.48744792  1  0.060033  0  0.081786  0.123949  0  1.05507  0
H  H13  1  0.34131228  0.07746619  0.51255320  1  0.05954  0  0.081804  0.123964  0  1.055037  0
H  H14  1  0.83024364  0.00574457  0.56589045  1  0.046352  0  0.094757  0.14485  0  1.005869  0
H  H15  1  0.16975655  0.99425703  0.43410896  1  0.04636  0  0.094784  0.144852  0  1.005881  0
H  H16  1  0.76354022  0.87977748  0.26995899  1  0.525366  0  0.301393  0.262345  0  1.012228  0
H  H17  1  0.23645454  0.12021867  0.73004087  1  0.525225  0  0.301385  0.262355  0  1.012171  0
H  H18  1  0.53905477  0.72311536  0.22742221  1  0.059755  0  0.104627  0.086775  0  0.985892  0
H  H19  1  0.46093960  0.27688351  0.77258147  1  0.059651  0  0.104605  0.086763  0  0.985883  0
H  H20  1  0.57138637  0.74515468  0.35249187  1  0.087315  0  0.100265  0.079509  0  1.025035  0
H  H21  1  0.42861288  0.25484329  0.64751182  1  0.087527  0  0.100286  0.07953  0  1.025039  0
H  H22  1  0.56122480  0.55256539  0.25401214  1  0.015776  0  0.091971  0.058123  0  1.00661  0
H  H23  1  0.43877310  0.44743166  0.74598584  1  0.015791  0  0.09197  0.058107  0  1.006643  0
H  H24  1  0.69703828  0.63435092  0.22188499  1  0.04147  0  0.097064  0.065644  0  1.013576  0
H  H25  1  0.30296238  0.36565159  0.77811733  1  0.041519  0  0.097048  0.065642  0  1.013525  0
H  H26  1  0.70554962  0.47748974  0.29749698  1  0.070631  0  0.090925  0.061921  0  1.025197  0
H  H27  1  0.29445233  0.52251004  0.70250102  1  0.070646  0  0.090952  0.061936  0  1.025205  0
H  H28  1  0.77484332  0.53723140  0.42764708  1  0.05522  0  0.089587  0.063735  0  1.007197  0
H  H29  1  0.22516216  0.46276656  0.57234981  1  0.055198  0  0.089569  0.063696  0  1.007208  0
H  H30  1  0.99600356  0.66931732  0.42873042  1  0.061082  0  0.091179  0.0608  0  1.029544  0
H  H31  1  0.00399627  0.33068882  0.57126665  1  0.060979  0  0.091206  0.060852  0  1.029593  0
H  H32  1  0.93951934  0.51283700  0.35880648  1  0.055745  0  0.086631  0.058909  0  1.024145  0
H  H33  1  0.06048626  0.48716824  0.64119469  1  0.055718  0  0.086631  0.058941  0  1.024218  0
H  H34  1  0.10841222  0.78148087  0.34957556  1  0.051762  0  0.088047  0.053416  0  1.010061  0
H  H35  1  0.89159332  0.21852073  0.65042348  1  0.051829  0  0.088047  0.053409  0  1.010079  0
H  H36  1  0.95431308  0.79179110  0.32850230  1  0.044557  0  0.099754  0.070617  0  1.00105  0
H  H37  1  0.04569204  0.20821141  0.67149752  1  0.044516  0  0.099753  0.070605  0  1.001064  0
H  H38  1  0.07171469  0.85247261  0.21707496  1  0.052289  0  0.106957  0.090091  0  0.981378  0
H  H39  1  0.92829405  0.14753353  0.78292434  1  0.052355  0  0.106936  0.090077  0  0.981405  0
H  H40  1  0.05647171  0.70463368  0.16817256  1  0.068977  0  0.102256  0.084459  0  1.004198  0
H  H41  1  0.94353122  0.29537156  0.83182485  1  0.06899  0  0.102278  0.084482  0  1.004184  0
H  H42  1  0.83420929  0.77630167  0.14098661  1  0.510599  0  0.303083  0.259156  0  1.012837  0
H  H43  1  0.16579368  0.22370538  0.85901582  1  0.510634  0  0.303054  0.259091  0  1.012962  0
H  H44  1  0.94443171  0.55447237  0.02900165  1  0.058026  0  0.087525  0.132609  0  1.039541  0
H  H45  1  0.05556849  0.44552923  0.97099907  1  0.058033  0  0.087516  0.132591  0  1.039503  0
H  H46  1  0.77476710  0.44285146  0.96298482  1  0.043283  0  0.083691  0.134825  0  1.030295  0
H  H47  1  0.22523448  0.55715286  0.03702004  1  0.043206  0  0.083724  0.134867  0  1.03024  0
H  H48  1  0.85126497  0.48254259  0.09188507  1  0.067893  0  0.093412  0.151037  0  1.009002  0
H  H49  1  0.14873802  0.51746628  0.90811908  1  0.067718  0  0.093405  0.151062  0  1.008974  0
H  H50  1  0.61513055  0.50655251  0.92982194  1  0.050087  0  0.092533  0.130258  0  1.026407  0
H  H51  1  0.38487144  0.49344909  0.07017975  1  0.050044  0  0.092573  0.130331  0  1.026529  0
H  H52  1  0.45474958  0.71123811  0.96162836  1  0.067607  0  0.077964  0.127106  0  1.070479  0
H  H53  1  0.54524970  0.28876167  0.03836850  1  0.067518  0  0.077967  0.127087  0  1.070469  0
H  H54  1  0.42404935  0.55944796  0.89640041  1  0.034286  0  0.08868  0.136062  0  1.036732  0
H  H55  1  0.57595171  0.44055182  0.10359545  1  0.034262  0  0.088682  0.13606  0  1.036755  0
H  H56  1  0.52581495  0.68243802  0.87185098  1  0.044259  0  0.089257  0.141994  0  1.005458  0
H  H57  1  0.47419287  0.31756631  0.12815170  1  0.043981  0  0.089241  0.141916  0  1.005465  0
Au  Au58  1  0.49999894  0.99999706  0.99999925  1  0.071575  0  0.2112  -0.082387  0  2.971817  0
Au  Au59  1  0.00000000  0.00000000  0.00000000  1  0.070489  0  0.221026  -0.085993  0  3.039308  0
C  C60  1  0.54313072  0.03497004  0.14756241  1  0.01873  0  -0.175056  -0.247614  0  4.085822  0
C  C61  1  0.45687025  0.96502429  0.85243683  1  0.019479  0  -0.175061  -0.247614  0  4.085862  0
C  C62  1  0.46931819  0.94741247  0.17870122  1  0.077759  0  -0.011005  0.09385  0  4.052046  0
C  C63  1  0.53068367  0.05258186  0.82129949  1  0.077895  0  -0.011008  0.093808  0  4.052071  0
C  C64  1  0.48230521  0.97125878  0.27705496  1  0.111267  0  -0.007927  0.021237  0  4.041988  0
C  C65  1  0.51769938  0.02873919  0.72294705  1  0.111274  0  -0.007846  0.021411  0  4.04196  0
C  C66  1  0.57765702  0.08591307  0.34938255  1  0.156257  0  -0.005169  0.032331  0  4.075177  0
C  C67  1  0.42235073  0.91408762  0.65061799  1  0.156337  0  -0.00521  0.03227  0  4.075367  0
C  C68  1  0.66028585  0.17319320  0.32231171  1  0.144117  0  -0.006679  0.022425  0  4.058106  0
C  C69  1  0.33972099  0.82680568  0.67768629  1  0.144087  0  -0.006733  0.022344  0  4.058149  0
C  C70  1  0.64053448  0.14710905  0.22262052  1  0.030806  0  -0.00831  0.082452  0  4.060529  0
C  C71  1  0.35946833  0.85288891  0.77737656  1  0.030013  0  -0.00824  0.082587  0  4.060517  0
C  C72  1  0.11928090  0.17073449  0.11221220  1  0.032568  0  -0.169768  -0.238037  0  4.042004  0
C  C73  1  0.88072151  0.82926621  0.88779002  1  0.03278  0  -0.169817  -0.237974  0  4.041988  0
C  C74  1  0.08779353  0.26795489  0.12153251  1  0.040944  0  -0.008972  0.087862  0  4.05356  0
C  C75  1  0.91220848  0.73204852  0.87846960  1  0.04084  0  -0.008983  0.087816  0  4.053618  0
C  C76  1  0.16107799  0.38018752  0.20220499  1  0.157472  0  -0.007593  0.018063  0  4.053386  0
C  C77  1  0.83892310  0.61981408  0.79780050  1  0.15772  0  -0.007626  0.018034  0  4.053215  0
C  C78  1  0.27603076  0.40009444  0.27543500  1  0.124886  0  -0.00495  0.031008  0  4.063975  0
C  C79  1  0.72397036  0.59990897  0.72456827  1  0.124149  0  -0.004982  0.030973  0  4.063871  0
C  C80  1  0.31406321  0.30679797  0.26757433  1  0.114617  0  -0.006951  0.014941  0  4.061509  0
C  C81  1  0.68593742  0.69320272  0.73242692  1  0.115494  0  -0.00693  0.01497  0  4.061526  0
C  C82  1  0.23398850  0.19425812  0.18774544  1  0.041166  0  -0.008728  0.087252  0  4.065905  0
C  C83  1  0.76601523  0.80574166  0.81225615  1  0.040877  0  -0.008653  0.08725  0  4.065871  0
C  C84  1  0.05466690  0.20514098  0.37291218  1  -0.095484  0  -0.255569  -0.491108  0  3.898943  0
C  C85  1  0.94532516  0.79485335  0.62708088  1  -0.095397  0  -0.255489  -0.491014  0  3.898917  0
C  C86  1  0.94686595  0.08040119  0.35088712  1  0.782752  0  0.114255  0.485364  0  4.030244  0
C  C87  1  0.05312974  0.91959677  0.64911331  1  0.783271  0  0.114305  0.485368  0  4.03047  0
C  C88  1  0.90535612  0.05596498  0.42692797  1  -0.060322  0  -0.160324  -0.454152  0  3.963954  0
C  C89  1  0.09463993  0.94402844  0.57306756  1  -0.060471  0  -0.160332  -0.454231  0  3.963918  0
C  C90  1  0.79818816  0.94719068  0.41275944  1  0.515393  0  0.137461  0.379321  0  3.962652  0
C  C91  1  0.20181385  0.05281274  0.58724399  1  0.515754  0  0.137464  0.379338  0  3.962919  0
C  C92  1  0.75896460  0.92918710  0.49705809  1  -0.083798  0  -0.240739  -0.461487  0  3.908563  0
C  C93  1  0.24103332  0.07081177  0.50294294  1  -0.083478  0  -0.240798  -0.46149  0  3.908528  0
C  C94  1  0.61594901  0.74219604  0.29616741  1  0.324921  0  -0.064012  -0.056251  0  3.961858  0
C  C95  1  0.38404575  0.25780010  0.70383442  1  0.325453  0  -0.064041  -0.056273  0  3.961748  0
C  C96  1  0.65346545  0.63889567  0.27943996  1  0.470025  0  -0.075657  0.000958  0  3.929775  0
C  C97  1  0.34653336  0.36110321  0.72056188  1  0.469544  0  -0.075647  0.00094  0  3.92967  0
C  C98  1  0.78015357  0.55920709  0.36282983  1  0.418523  0  -0.086066  -0.027499  0  3.960871  0
C  C99  1  0.21984792  0.44079178  0.63716722  1  0.418296  0  -0.086142  -0.027496  0  3.960972  0
C  C100  1  0.92001826  0.59120032  0.36130202  1  0.394721  0  -0.084362  -0.022348  0  3.942936  0
C  C101  1  0.07998243  0.40880400  0.63869611  1  0.394846  0  -0.084406  -0.022533  0  3.943215  0
C  C102  1  0.00473178  0.74218514  0.29661666  1  0.433879  0  -0.075206  -0.003633  0  3.927564  0
C  C103  1  0.99527241  0.25781555  0.70338128  1  0.433962  0  -0.075186  -0.003599  0  3.927506  0
C  C104  1  0.00905959  0.75608844  0.20091935  1  0.367119  0  -0.062887  -0.052448  0  3.952974  0
C  C105  1  0.99094693  0.24391861  0.79907975  1  0.366951  0  -0.062952  -0.052502  0  3.953156  0
C  C106  1  0.84454005  0.51757990  0.03321425  1  -0.062663  0  -0.245278  -0.468085  0  3.918972  0
C  C107  1  0.15546374  0.48242352  0.96678883  1  -0.062301  0  -0.245289  -0.468136  0  3.918913  0
C  C108  1  0.79838941  0.61292969  0.05465715  1  0.512327  0  0.136445  0.374618  0  3.971649  0
C  C109  1  0.20161401  0.38707828  0.94534556  1  0.512173  0  0.136539  0.374731  0  3.971376  0
C  C110  1  0.67344622  0.59190658  0.99358096  1  -0.01028  0  -0.155901  -0.446102  0  3.953121  0
C  C111  1  0.32655576  0.40809502  0.00642139  1  -0.010549  0  -0.155949  -0.446177  0  3.953323  0
C  C112  1  0.62284066  0.67729245  0.00791319  1  0.744913  0  0.116848  0.483381  0  4.017885  0
C  C113  1  0.37715865  0.32270915  0.99208737  1  0.744976  0  0.116787  0.48325  0  4.018107  0
C  C114  1  0.49862683  0.65544583  0.93015303  1  -0.072315  0  -0.257974  -0.493737  0  3.924198  0
C  C115  1  0.50137469  0.34455486  0.06984574  1  -0.07191  0  -0.257961  -0.493594  0  3.924105  0
N  N116  1  0.72840037  0.85904796  0.32305673  1  -1.284855  0  -0.405648  -0.273907  0  3.546135  0
N  N117  1  0.27159209  0.14094364  0.67693776  1  -1.285024  0  -0.405589  -0.273898  0  3.546466  0
N  N118  1  0.87710683  0.71824339  0.13184861  1  -1.280662  0  -0.405296  -0.275886  0  3.560203  0
N  N119  1  0.12289742  0.28176094  0.86814883  1  -1.28061  0  -0.405292  -0.275895  0  3.560122  0
Cl  Cl120  1  0.35351720  0.80359927  0.09212717  1  -0.210544  0  0.00906  -0.049526  0  1.773908  0
Cl  Cl121  1  0.64648515  0.19639779  0.90787555  1  -0.210493  0  0.009051  -0.049548  0  1.773886  0
Cl  Cl122  1  0.38064682  0.86268649  0.30883961  1  -0.191959  0  0.01527  -0.03704  0  1.745311  0
Cl  Cl123  1  0.61935341  0.13731693  0.69116416  1  -0.191985  0  0.015241  -0.037096  0  1.745272  0
Cl  Cl124  1  0.59263325  0.11955332  0.46949894  1  -0.170251  0  0.007836  -0.054969  0  1.820908  0
Cl  Cl125  1  0.40737239  0.88045374  0.53050198  1  -0.170269  0  0.007841  -0.05497  0  1.821002  0
Cl  Cl126  1  0.78295503  0.30998021  0.41239791  1  -0.185876  0  0.023199  -0.037628  0  1.728677  0
Cl  Cl127  1  0.21704916  0.69002048  0.58759871  1  -0.186008  0  0.023211  -0.037609  0  1.728617  0
Cl  Cl128  1  0.74355390  0.25859271  0.19227365  1  -0.212813  0  0.014494  -0.052615  0  1.708557  0
Cl  Cl129  1  0.25643282  0.74140162  0.80771780  1  -0.212859  0  0.014474  -0.052662  0  1.708372  0
Cl  Cl130  1  0.94827831  0.24781437  0.03153389  1  -0.215237  0  0.005633  -0.074463  0  1.829608  0
Cl  Cl131  1  0.05172146  0.75218813  0.96846827  1  -0.215255  0  0.005654  -0.074442  0  1.829617  0
Cl  Cl132  1  0.10904602  0.49090312  0.21485778  1  -0.181159  0  0.012352  -0.036661  0  1.719039  0
Cl  Cl133  1  0.89094872  0.50909121  0.78514891  1  -0.181242  0  0.01239  -0.036632  0  1.718921  0
Cl  Cl134  1  0.36682889  0.53565983  0.37536525  1  -0.175678  0  0.005591  -0.048136  0  1.686025  0
Cl  Cl135  1  0.63316188  0.46433723  0.62463806  1  -0.175621  0  0.005583  -0.048132  0  1.685901  0
Cl  Cl136  1  0.45454146  0.33063519  0.35695900  1  -0.17619  0  0.00483  -0.042703  0  1.70443  0
Cl  Cl137  1  0.54545828  0.66936550  0.64304407  1  -0.176399  0  0.004834  -0.042676  0  1.704387  0
Cl  Cl138  1  0.27938819  0.07922138  0.18410231  1  -0.214404  0  0.002413  -0.060603  0  1.757357  0
Cl  Cl139  1  0.72060841  0.92077841  0.81589869  1  -0.214355  0  0.002367  -0.060665  0  1.75734  0
O  O140  1  0.89470115  0.00101530  0.26280710  1  -1.165474  0  -0.311355  -0.506075  0  2.170104  0
O  O141  1  0.10528950  0.99897449  0.73718600  1  -1.165719  0  -0.311402  -0.506087  0  2.170472  0
O  O142  1  0.74657372  0.65733009  0.36938425  1  -1.060613  0  -0.238966  -0.230745  0  2.490083  0
O  O143  1  0.25342328  0.34266697  0.63061753  1  -1.060582  0  -0.238903  -0.230684  0  2.490002  0
O  O144  1  0.93423393  0.61583106  0.27663429  1  -1.060738  0  -0.240026  -0.221792  0  2.491923  0
O  O145  1  0.06577072  0.38417054  0.72336392  1  -1.060657  0  -0.239987  -0.221707  0  2.491813  0
O  O146  1  0.68211192  0.77632622  0.08460163  1  -1.159239  0  -0.306398  -0.495229  0  2.194565  0
O  O147  1  0.31788244  0.22367266  0.91540140  1  -1.159071  0  -0.306366  -0.495172  0  2.194693  0
