# generated using pymatgen
data_LaH6C10N5O7
_symmetry_space_group_name_H-M   'P 1'
_cell_length_a   7.99154099
_cell_length_b   7.99156055
_cell_length_c   20.08039091
_cell_angle_alpha   90.00003599
_cell_angle_beta   90.00014143
_cell_angle_gamma   90.00254568
_symmetry_Int_Tables_number   1
_chemical_formula_structural   LaH6C10N5O7
_chemical_formula_sum   'La4 H24 C40 N20 O28'
_cell_volume   1282.43182913
_cell_formula_units_Z   4
loop_
 _symmetry_equiv_pos_site_id
 _symmetry_equiv_pos_as_xyz
  1  'x, y, z'
loop_
 _atom_site_type_symbol
 _atom_site_label
 _atom_site_symmetry_multiplicity
 _atom_site_fract_x
 _atom_site_fract_y
 _atom_site_fract_z
 _atom_site_occupancy
 _atom_site_hle17_bader_spin_density
 _atom_site_hle17_ddec_charge
 _atom_site_hle17_ddec_spin_density
 _atom_site_hle17_ddec_sum_bond_order
 _atom_site_hle17_magmom
 _atom_site_hse06_10hf_bader_charge
 _atom_site_hse06_10hf_bader_spin_density
 _atom_site_hse06_10hf_ddec_charge
 _atom_site_hse06_10hf_ddec_spin_density
 _atom_site_hse06_10hf_ddec_sum_bond_order
 _atom_site_hse06_10hf_magmom
 _atom_site_hse06_bader_spin_density
 _atom_site_hse06_ddec_charge
 _atom_site_hse06_ddec_spin_density
 _atom_site_hse06_ddec_sum_bond_order
 _atom_site_hse06_magmom
 _atom_site_pbe_bader_spin_density
 _atom_site_pbe_cm5_charge
 _atom_site_pbe_ddec_charge
 _atom_site_pbe_ddec_spin_density
 _atom_site_pbe_ddec_sum_bond_order
 _atom_site_pbe_magmom
La  La0  1  0.77811908  0.77811477  0.50000071  1  0  1.871857  0  1.9506  0  2.251752  0  1.698973  0  2.497497  0  0  1.801188  0  2.409026  0  0  1.393345  1.623004  0  2.558901  0
La  La1  1  0.72192654  0.27807206  0.25000000  1  0  1.872158  0  1.949895  0  2.25142  0  1.699249  0  2.496902  0  0  1.801504  0  2.408419  0  0  1.393574  1.623296  0  2.558289  0
La  La2  1  0.22188263  0.22188603  0.99999959  1  0  1.871897  0  1.950633  0  2.251675  0  1.698953  0  2.497545  0  0  1.801164  0  2.409092  0  0  1.393312  1.622991  0  2.558939  0
La  La3  1  0.27806987  0.72192960  0.75000057  1  0  1.872104  0  1.950034  0  2.251332  0  1.699139  0  2.497103  0  0  1.801424  0  2.408569  0  0  1.39352  1.623179  0  2.558491  0
H  H4  1  0.69203453  0.21655425  0.56023299  1  0  0.083178  0  0.945443  0  0.16252  0  0.08561  0  1.02  0  0  0.088415  0  1.016671  0  0  0.123757  0.083507  0  1.022386  0
H  H5  1  0.28341615  0.19219804  0.31021624  1  0  0.08347  0  0.94579  0  0.161018  0  0.085916  0  1.020298  0  0  0.088747  0  1.016945  0  0  0.124022  0.08379  0  1.022695  0
H  H6  1  0.30796446  0.78344336  0.06023314  1  0  0.083194  0  0.945425  0  0.16251  0  0.085573  0  1.020018  0  0  0.088356  0  1.016751  0  0  0.123758  0.083477  0  1.022404  0
H  H7  1  0.71658313  0.80780121  0.81021576  1  0  0.08346  0  0.945782  0  0.16092  0  0.085906  0  1.020302  0  0  0.088732  0  1.016963  0  0  0.124014  0.083782  0  1.022699  0
H  H8  1  0.19219915  0.28341754  0.68978351  1  0  0.083503  0  0.945759  0  0.160941  0  0.085951  0  1.020276  0  0  0.088775  0  1.016946  0  0  0.12404  0.083827  0  1.022672  0
H  H9  1  0.21655570  0.69203645  0.43976952  1  0  0.083114  0  0.945435  0  0.162484  0  0.085517  0  1.020036  0  0  0.088333  0  1.016682  0  0  0.123713  0.083414  0  1.022424  0
H  H10  1  0.80780314  0.71658527  0.18978414  1  0  0.083441  0  0.945787  0  0.16086  0  0.085919  0  1.020279  0  0  0.088747  0  1.016936  0  0  0.124036  0.083793  0  1.022676  0
H  H11  1  0.78344564  0.30796801  0.93976848  1  0  0.083122  0  0.945406  0  0.162506  0  0.085521  0  1.020007  0  0  0.088336  0  1.016653  0  0  0.123728  0.08342  0  1.022391  0
H  H12  1  0.56989901  0.36564515  0.66092770  1  0  0.139284  0  0.963513  0  0.163801  0  0.143488  0  1.024876  0  0  0.148826  0  1.022003  0  0  0.118146  0.139551  0  1.027279  0
H  H13  1  0.13438868  0.07001592  0.41091937  1  0  0.139285  0  0.9634  0  0.164139  0  0.143559  0  1.024667  0  0  0.148913  0  1.02179  0  0  0.118251  0.139626  0  1.027068  0
H  H14  1  0.43010185  0.63435512  0.16092893  1  0  0.139246  0  0.963532  0  0.163789  0  0.143465  0  1.02488  0  0  0.148804  0  1.022007  0  0  0.118145  0.139531  0  1.027282  0
H  H15  1  0.86561123  0.92998475  0.91091956  1  0  0.139252  0  0.963404  0  0.164117  0  0.143539  0  1.024675  0  0  0.148889  0  1.021794  0  0  0.118242  0.139603  0  1.027077  0
H  H16  1  0.07001634  0.13439004  0.58907972  1  0  0.13929  0  0.963354  0  0.164148  0  0.143572  0  1.024624  0  0  0.148923  0  1.021743  0  0  0.118257  0.139637  0  1.027027  0
H  H17  1  0.36564532  0.56990084  0.33907383  1  0  0.139253  0  0.963556  0  0.163801  0  0.143462  0  1.024911  0  0  0.148803  0  1.022038  0  0  0.118144  0.139525  0  1.027318  0
H  H18  1  0.92998408  0.86561137  0.08908001  1  0  0.139276  0  0.963392  0  0.164134  0  0.143555  0  1.024667  0  0  0.148907  0  1.021782  0  0  0.118247  0.139621  0  1.027069  0
H  H19  1  0.63435414  0.43010096  0.83907218  1  0  0.139234  0  0.963547  0  0.163792  0  0.143448  0  1.024904  0  0  0.148788  0  1.022031  0  0  0.118136  0.139514  0  1.027309  0
H  H20  1  0.44598299  0.18464903  0.75104389  1  0  0.092493  0  0.93149  0  0.11202  0  0.100161  0  0.993266  0  0  0.102904  0  0.990171  0  0  0.127877  0.098087  0  0.995596  0
H  H21  1  0.31543983  0.94595656  0.50097409  1  0  0.0925  0  0.931917  0  0.113338  0  0.100313  0  0.993254  0  0  0.103054  0  0.990161  0  0  0.127963  0.09824  0  0.995584  0
H  H22  1  0.55401467  0.81535013  0.25104429  1  0  0.092447  0  0.931543  0  0.111986  0  0.100124  0  0.993313  0  0  0.102867  0  0.990219  0  0  0.127857  0.09805  0  0.995643  0
H  H23  1  0.68456379  0.05404095  0.00097493  1  0  0.092544  0  0.931843  0  0.113322  0  0.100342  0  0.993185  0  0  0.103083  0  0.990097  0  0  0.127993  0.098269  0  0.995515  0
H  H24  1  0.94595878  0.31543915  0.49902465  1  0  0.092526  0  0.931872  0  0.113328  0  0.100363  0  0.993172  0  0  0.103104  0  0.99008  0  0  0.12799  0.098289  0  0.995502  0
H  H25  1  0.18464716  0.44598853  0.24895695  1  0  0.092506  0  0.931501  0  0.112056  0  0.100179  0  0.993265  0  0  0.102921  0  0.990174  0  0  0.1279  0.098106  0  0.995596  0
H  H26  1  0.05404043  0.68456040  0.99902499  1  0  0.092506  0  0.931927  0  0.113321  0  0.100333  0  0.993248  0  0  0.103076  0  0.99015  0  0  0.127981  0.09826  0  0.995578  0
H  H27  1  0.81535049  0.55400938  0.74895501  1  0  0.092505  0  0.931561  0  0.112013  0  0.100164  0  0.993315  0  0  0.102904  0  0.990225  0  0  0.127885  0.098088  0  0.995645  0
C  C28  1  0.60245895  0.89648336  0.65465001  1  0  0.262466  0  3.772938  0  1.14341  0  0.24856  0  4.029324  0  0  0.25894  0  4.043691  0  0  0.253464  0.241451  0  4.019612  0
C  C29  1  0.60359550  0.10238672  0.40456514  1  0  0.263441  0  3.770642  0  1.140604  0  0.24879  0  4.027984  0  0  0.259165  0  4.042355  0  0  0.253665  0.241676  0  4.018265  0
C  C30  1  0.39754313  0.10351815  0.15464959  1  0  0.262504  0  3.772924  0  1.143406  0  0.248594  0  4.029269  0  0  0.258971  0  4.043631  0  0  0.253488  0.241483  0  4.01955  0
C  C31  1  0.39640812  0.89761393  0.90456537  1  0  0.263491  0  3.770895  0  1.140591  0  0.248758  0  4.028297  0  0  0.259133  0  4.042671  0  0  0.253644  0.241646  0  4.018576  0
C  C32  1  0.10238725  0.60359574  0.59543425  1  0  0.263455  0  3.770809  0  1.14056  0  0.248686  0  4.028294  0  0  0.259057  0  4.042678  0  0  0.25369  0.241576  0  4.018565  0
C  C33  1  0.89647860  0.60246448  0.34535136  1  0  0.26255  0  3.773037  0  1.143376  0  0.248624  0  4.029404  0  0  0.259  0  4.04376  0  0  0.253477  0.241512  0  4.019686  0
C  C34  1  0.89761070  0.39640693  0.09543489  1  0  0.263408  0  3.770614  0  1.140694  0  0.248756  0  4.027997  0  0  0.25913  0  4.042375  0  0  0.253643  0.241641  0  4.018275  0
C  C35  1  0.10351840  0.39753483  0.84534968  1  0  0.262508  0  3.773096  0  1.143392  0  0.248628  0  4.029471  0  0  0.259002  0  4.043829  0  0  0.253518  0.241518  0  4.01976  0
C  C36  1  0.64808167  0.14806481  0.60380034  1  0  0.204159  0  3.641491  0  0.490418  0  0.168132  0  3.905871  0  0  0.1794  0  3.921164  0  0  0.082086  0.160781  0  3.895435  0
C  C37  1  0.35195653  0.14818191  0.35375526  1  0  0.203632  0  3.641478  0  0.49116  0  0.167506  0  3.905946  0  0  0.178768  0  3.921244  0  0  0.081788  0.160173  0  3.8955  0
C  C38  1  0.35192009  0.85193287  0.10380105  1  0  0.204106  0  3.641596  0  0.490361  0  0.168136  0  3.905974  0  0  0.179398  0  3.921253  0  0  0.082093  0.160778  0  3.89555  0
C  C39  1  0.64804427  0.85181866  0.85375572  1  0  0.203699  0  3.64137  0  0.491005  0  0.167557  0  3.905881  0  0  0.178815  0  3.921178  0  0  0.081809  0.160222  0  3.895434  0
C  C40  1  0.14818149  0.35195759  0.64624351  1  0  0.203621  0  3.641434  0  0.491297  0  0.16747  0  3.905943  0  0  0.178728  0  3.92124  0  0  0.081781  0.160136  0  3.895494  0
C  C41  1  0.14806091  0.64808103  0.39620061  1  0  0.204245  0  3.641499  0  0.490454  0  0.168225  0  3.905908  0  0  0.179493  0  3.921205  0  0  0.082144  0.160875  0  3.895475  0
C  C42  1  0.85181928  0.64804266  0.14624417  1  0  0.203699  0  3.641412  0  0.49135  0  0.16752  0  3.905956  0  0  0.17878  0  3.921252  0  0  0.081781  0.160188  0  3.895508  0
C  C43  1  0.85193640  0.35192086  0.89620015  1  0  0.204204  0  3.641397  0  0.490391  0  0.1682  0  3.905806  0  0  0.179467  0  3.921101  0  0  0.082126  0.160857  0  3.89537  0
C  C44  1  0.57626396  0.22958175  0.65796908  1  0  -0.142246  0  3.619471  0  -0.000619  0  -0.153007  0  3.867979  0  0  -0.163038  0  3.88474  0  0  -0.064468  -0.146779  0  3.857238  0
C  C45  1  0.27045643  0.07633685  0.40792796  1  0  -0.141883  0  3.619589  0  -0.002883  0  -0.152923  0  3.8679  0  0  -0.162972  0  3.884666  0  0  -0.064575  -0.1467  0  3.857167  0
C  C46  1  0.42373563  0.77041727  0.15796835  1  0  -0.14219  0  3.619538  0  -0.000585  0  -0.152958  0  3.86802  0  0  -0.162984  0  3.884772  0  0  -0.064461  -0.146729  0  3.857284  0
C  C47  1  0.72954596  0.92366255  0.90792802  1  0  -0.141791  0  3.619514  0  -0.002661  0  -0.152867  0  3.867865  0  0  -0.162906  0  3.884624  0  0  -0.064578  -0.146644  0  3.857132  0
C  C48  1  0.07633730  0.27045622  0.59207121  1  0  -0.141842  0  3.619573  0  -0.002961  0  -0.152897  0  3.867912  0  0  -0.162935  0  3.884669  0  0  -0.064579  -0.146674  0  3.857176  0
C  C49  1  0.22958160  0.57626578  0.34203237  1  0  -0.142243  0  3.619537  0  -0.000604  0  -0.153002  0  3.868034  0  0  -0.163036  0  3.884794  0  0  -0.064453  -0.146774  0  3.857299  0
C  C50  1  0.92366188  0.72954519  0.09207096  1  0  -0.141816  0  3.619538  0  -0.002951  0  -0.152869  0  3.867892  0  0  -0.162908  0  3.884647  0  0  -0.064572  -0.146647  0  3.85716  0
C  C51  1  0.77041663  0.42373477  0.84203185  1  0  -0.142158  0  3.619446  0  -0.000579  0  -0.152948  0  3.867918  0  0  -0.162979  0  3.884678  0  0  -0.064471  -0.146725  0  3.857185  0
C  C52  1  0.50941496  0.12970870  0.70824743  1  0  0.207394  0  3.625204  0  0.519898  0  0.174943  0  3.884922  0  0  0.186753  0  3.897417  0  0  0.085613  0.167166  0  3.8765  0
C  C53  1  0.37035823  0.00940225  0.45818051  1  0  0.206785  0  3.626474  0  0.522733  0  0.174853  0  3.885322  0  0  0.186654  0  3.89784  0  0  0.085536  0.167076  0  3.876895  0
C  C54  1  0.49058619  0.87029165  0.20824829  1  0  0.20741  0  3.625199  0  0.519931  0  0.174944  0  3.88496  0  0  0.186754  0  3.897453  0  0  0.085599  0.167162  0  3.876538  0
C  C55  1  0.62964322  0.99059474  0.95818098  1  0  0.206693  0  3.626362  0  0.522784  0  0.174787  0  3.885226  0  0  0.186587  0  3.897742  0  0  0.085525  0.167013  0  3.876798  0
C  C56  1  0.00940359  0.37035884  0.54181918  1  0  0.206659  0  3.626516  0  0.522786  0  0.174725  0  3.885357  0  0  0.186526  0  3.897878  0  0  0.08551  0.16695  0  3.876929  0
C  C57  1  0.12971061  0.50941926  0.29175291  1  0  0.207324  0  3.625164  0  0.51986  0  0.174881  0  3.884882  0  0  0.186689  0  3.897378  0  0  0.085529  0.167102  0  3.876461  0
C  C58  1  0.99059403  0.62964124  0.04181848  1  0  0.20671  0  3.62654  0  0.522832  0  0.174759  0  3.885417  0  0  0.186562  0  3.897931  0  0  0.085518  0.166983  0  3.876991  0
C  C59  1  0.87029106  0.49057871  0.79175201  1  0  0.207213  0  3.625427  0  0.519914  0  0.174835  0  3.885077  0  0  0.186644  0  3.897576  0  0  0.085543  0.167059  0  3.876651  0
C  C60  1  0.62800680  0.70907748  0.65513207  1  0  0.614077  0  3.915815  0  1.645764  0  0.560241  0  4.226825  0  0  0.595583  0  4.216598  0  0  0.229093  0.535969  0  4.233096  0
C  C61  1  0.79101174  0.12790280  0.40507569  1  0  0.614409  0  3.914571  0  1.646  0  0.560836  0  4.225527  0  0  0.596183  0  4.21529  0  0  0.22929  0.536586  0  4.231762  0
C  C62  1  0.37199528  0.29092528  0.15513365  1  0  0.61402  0  3.916189  0  1.645771  0  0.560281  0  4.227007  0  0  0.595637  0  4.216752  0  0  0.229094  0.536007  0  4.233284  0
C  C63  1  0.20899314  0.87209660  0.90507572  1  0  0.61424  0  3.914534  0  1.64596  0  0.560769  0  4.225333  0  0  0.596117  0  4.21509  0  0  0.229252  0.536515  0  4.231577  0
C  C64  1  0.12790464  0.79100777  0.59492185  1  0  0.614379  0  3.914383  0  1.645948  0  0.560868  0  4.225305  0  0  0.596213  0  4.215072  0  0  0.229289  0.536612  0  4.231547  0
C  C65  1  0.70907727  0.62800851  0.34486722  1  0  0.613877  0  3.916013  0  1.645595  0  0.560118  0  4.226897  0  0  0.595484  0  4.21662  0  0  0.229045  0.535847  0  4.233172  0
C  C66  1  0.87209081  0.20899240  0.09492590  1  0  0.614476  0  3.914493  0  1.645826  0  0.560823  0  4.225537  0  0  0.596168  0  4.215302  0  0  0.229185  0.536576  0  4.23177  0
C  C67  1  0.29092098  0.37199330  0.84486671  1  0  0.613997  0  3.915621  0  1.645845  0  0.560133  0  4.22668  0  0  0.595503  0  4.216394  0  0  0.228987  0.535866  0  4.232958  0
N  N68  1  0.51791367  0.96217458  0.70582179  1  0  -0.38739  0  3.1542  0  -1.265603  0  -0.342422  0  3.422015  0  0  -0.363437  0  3.439354  0  0  -0.330466  -0.32785  0  3.409866  0
N  N69  1  0.53788555  0.01782485  0.45572894  1  0  -0.387493  0  3.153791  0  -1.264948  0  -0.342737  0  3.422047  0  0  -0.363761  0  3.439428  0  0  -0.330767  -0.32816  0  3.409885  0
N  N70  1  0.48208998  0.03782451  0.20582193  1  0  -0.387404  0  3.154253  0  -1.265615  0  -0.342436  0  3.422066  0  0  -0.363451  0  3.439406  0  0  -0.330484  -0.327858  0  3.40991  0
N  N71  1  0.46211714  0.98217338  0.95572975  1  0  -0.387454  0  3.153882  0  -1.264961  0  -0.342656  0  3.42209  0  0  -0.363676  0  3.439463  0  0  -0.330735  -0.328083  0  3.409927  0
N  N72  1  0.01782497  0.53788451  0.54427036  1  0  -0.387382  0  3.153864  0  -1.264966  0  -0.342586  0  3.422152  0  0  -0.363612  0  3.439535  0  0  -0.330756  -0.328006  0  3.409984  0
N  N73  1  0.96217353  0.51792045  0.29417758  1  0  -0.387331  0  3.154082  0  -1.265408  0  -0.342355  0  3.421871  0  0  -0.363369  0  3.439211  0  0  -0.330392  -0.327785  0  3.409726  0
N  N74  1  0.98217017  0.46211683  0.04426960  1  0  -0.387436  0  3.153762  0  -1.26505  0  -0.342648  0  3.421991  0  0  -0.363673  0  3.439369  0  0  -0.33073  -0.328074  0  3.409826  0
N  N75  1  0.03782440  0.48207752  0.79417685  1  0  -0.38728  0  3.154328  0  -1.265542  0  -0.342344  0  3.422096  0  0  -0.363359  0  3.439437  0  0  -0.330405  -0.327774  0  3.409957  0
N  N76  1  0.66552484  0.98066353  0.60271282  1  0  -0.399098  0  3.143505  0  -1.261762  0  -0.349703  0  3.408604  0  0  -0.372601  0  3.427886  0  0  -0.34145  -0.333759  0  3.394984  0
N  N77  1  0.51938770  0.16552767  0.35264431  1  0  -0.399159  0  3.1425  0  -1.260826  0  -0.349392  0  3.407684  0  0  -0.372301  0  3.426975  0  0  -0.341431  -0.333447  0  3.394054  0
N  N78  1  0.33447942  0.01933415  0.10271281  1  0  -0.399073  0  3.143474  0  -1.26167  0  -0.349684  0  3.408532  0  0  -0.372575  0  3.427808  0  0  -0.341432  -0.333743  0  3.394914  0
N  N79  1  0.48061185  0.83447665  0.85264410  1  0  -0.399249  0  3.142508  0  -1.26079  0  -0.349468  0  3.407751  0  0  -0.372378  0  3.427047  0  0  -0.341439  -0.333522  0  3.394117  0
N  N80  1  0.16552730  0.51938960  0.64735408  1  0  -0.399199  0  3.142534  0  -1.260795  0  -0.349383  0  3.407752  0  0  -0.372293  0  3.427052  0  0  -0.341448  -0.333436  0  3.394116  0
N  N81  1  0.98066418  0.66552416  0.39728815  1  0  -0.399139  0  3.143632  0  -1.261861  0  -0.349744  0  3.408747  0  0  -0.372641  0  3.428028  0  0  -0.341488  -0.333802  0  3.395126  0
N  N82  1  0.83447473  0.48061190  0.14735567  1  0  -0.399236  0  3.142526  0  -1.260868  0  -0.349455  0  3.407723  0  0  -0.372365  0  3.42702  0  0  -0.34143  -0.333508  0  3.394091  0
N  N83  1  0.01933690  0.33447523  0.89728736  1  0  -0.399094  0  3.143481  0  -1.261784  0  -0.349703  0  3.408563  0  0  -0.372599  0  3.427845  0  0  -0.341477  -0.333767  0  3.394945  0
N  N84  1  0.50606663  0.50606799  0.49999954  1  0  0.698909  0  4.116868  0  0.833153  0  0.733639  0  4.405192  0  0  0.763472  0  4.410574  0  0  0.090399  0.713029  0  4.401203  0
N  N85  1  0.99401195  0.00598857  0.25000060  1  0  0.698508  0  4.117194  0  0.834302  0  0.733222  0  4.405461  0  0  0.763487  0  4.410606  0  0  0.090321  0.712601  0  4.401479  0
N  N86  1  0.49393133  0.49393156  0.99999976  1  0  0.698894  0  4.116663  0  0.833623  0  0.733516  0  4.405101  0  0  0.76335  0  4.410474  0  0  0.090299  0.712908  0  4.401113  0
N  N87  1  0.00598446  0.99401309  0.74999947  1  0  0.698756  0  4.117047  0  0.834282  0  0.733461  0  4.405277  0  0  0.763724  0  4.410418  0  0  0.090362  0.712839  0  4.401298  0
O  O88  1  0.73120696  0.64896257  0.61392773  1  0  -0.628314  0  2.040859  0  -1.205089  0  -0.586127  0  2.296488  0  0  -0.617555  0  2.290504  0  0  -0.359404  -0.563625  0  2.299726  0
O  O89  1  0.85124759  0.23104416  0.36386986  1  0  -0.628608  0  2.040202  0  -1.205572  0  -0.586476  0  2.295784  0  0  -0.617925  0  2.28984  0  0  -0.359589  -0.563984  0  2.299008  0
O  O90  1  0.26877859  0.35102761  0.11392774  1  0  -0.628347  0  2.040743  0  -1.205048  0  -0.586217  0  2.29637  0  0  -0.617669  0  2.290413  0  0  -0.359449  -0.563708  0  2.299596  0
O  O91  1  0.14875703  0.76894391  0.86387329  1  0  -0.628546  0  2.040116  0  -1.205556  0  -0.58641  0  2.295596  0  0  -0.617868  0  2.289667  0  0  -0.359597  -0.563917  0  2.298825  0
O  O92  1  0.23105517  0.85124488  0.63612927  1  0  -0.628622  0  2.039979  0  -1.205563  0  -0.586481  0  2.29548  0  0  -0.617942  0  2.289554  0  0  -0.3596  -0.563987  0  2.298707  0
O  O93  1  0.64896863  0.73121484  0.38607706  1  0  -0.628318  0  2.040611  0  -1.205133  0  -0.58616  0  2.296222  0  0  -0.617637  0  2.290308  0  0  -0.359455  -0.563653  0  2.29945  0
O  O94  1  0.76895680  0.14875285  0.13612922  1  0  -0.628494  0  2.040337  0  -1.20561  0  -0.586319  0  2.295913  0  0  -0.617769  0  2.289982  0  0  -0.359469  -0.563833  0  2.299137  0
O  O95  1  0.35103613  0.26877202  0.88606762  1  0  -0.628297  0  2.040468  0  -1.205036  0  -0.586134  0  2.296151  0  0  -0.617604  0  2.290219  0  0  -0.359364  -0.563626  0  2.29938  0
O  O96  1  0.54532641  0.62556383  0.69775768  1  0  -0.626185  0  2.016572  0  -1.209575  0  -0.575904  0  2.270354  0  0  -0.607046  0  2.260909  0  0  -0.361935  -0.553446  0  2.275881  0
O  O97  1  0.87442574  0.04533633  0.44776662  1  0  -0.626395  0  2.016536  0  -1.209509  0  -0.576101  0  2.270121  0  0  -0.607241  0  2.26067  0  0  -0.362128  -0.553658  0  2.275649  0
O  O98  1  0.45466968  0.37443900  0.19775489  1  0  -0.626087  0  2.016903  0  -1.209613  0  -0.575862  0  2.270669  0  0  -0.607001  0  2.261217  0  0  -0.361896  -0.553411  0  2.276202  0
O  O99  1  0.12557440  0.95467565  0.94776460  1  0  -0.626317  0  2.016487  0  -1.209402  0  -0.576064  0  2.270047  0  0  -0.607202  0  2.260589  0  0  -0.362105  -0.553619  0  2.27558  0
O  O100  1  0.04534156  0.87442890  0.55223341  1  0  -0.626399  0  2.016551  0  -1.209427  0  -0.576117  0  2.270124  0  0  -0.607256  0  2.260676  0  0  -0.362125  -0.553674  0  2.275655  0
O  O101  1  0.62555448  0.54534317  0.30224350  1  0  -0.625984  0  2.016772  0  -1.209389  0  -0.57574  0  2.27052  0  0  -0.606882  0  2.261065  0  0  -0.361827  -0.553289  0  2.276053  0
O  O102  1  0.95466239  0.12557495  0.05223104  1  0  -0.626608  0  2.016397  0  -1.209252  0  -0.576253  0  2.270027  0  0  -0.607396  0  2.260576  0  0  -0.362145  -0.553811  0  2.275556  0
O  O103  1  0.37444225  0.45468485  0.80224907  1  0  -0.626098  0  2.01661  0  -1.209726  0  -0.575804  0  2.27039  0  0  -0.606952  0  2.260932  0  0  -0.361879  -0.553353  0  2.275922  0
O  O104  1  0.47146349  0.65965301  0.51336632  1  0  -0.506201  0  1.773215  0  -0.601537  0  -0.492807  0  2.002765  0  0  -0.515713  0  1.998123  0  0  -0.226024  -0.476151  0  2.005416  0
O  O105  1  0.84041476  0.97133605  0.26331463  1  0  -0.505881  0  1.774204  0  -0.601811  0  -0.492577  0  2.00384  0  0  -0.515654  0  1.999193  0  0  -0.225846  -0.475909  0  2.006463  0
O  O106  1  0.52853771  0.34034453  0.01336608  1  0  -0.506256  0  1.773076  0  -0.601523  0  -0.49283  0  2.002666  0  0  -0.515737  0  1.998024  0  0  -0.226057  -0.476179  0  2.005318  0
O  O107  1  0.15958549  0.02866063  0.76331441  1  0  -0.506011  0  1.774105  0  -0.601744  0  -0.492691  0  2.003723  0  0  -0.515769  0  1.999072  0  0  -0.22591  -0.476026  0  2.00635  0
O  O108  1  0.97133675  0.84041371  0.73668594  1  0  -0.505993  0  1.77417  0  -0.601787  0  -0.492654  0  2.00377  0  0  -0.515733  0  1.999121  0  0  -0.225877  -0.475986  0  2.006395  0
O  O109  1  0.65965072  0.47145738  0.48663085  1  0  -0.506163  0  1.773098  0  -0.601508  0  -0.492831  0  2.002715  0  0  -0.515736  0  1.998072  0  0  -0.226046  -0.476181  0  2.005369  0
O  O110  1  0.02866208  0.15958668  0.23668766  1  0  -0.505866  0  1.774235  0  -0.601819  0  -0.49259  0  2.003883  0  0  -0.515666  0  1.999232  0  0  -0.225854  -0.475927  0  2.00651  0
O  O111  1  0.34034340  0.52853340  0.98663242  1  0  -0.506173  0  1.773028  0  -0.601543  0  -0.492707  0  2.002581  0  0  -0.515608  0  1.997938  0  0  -0.226002  -0.476058  0  2.005236  0
O  O112  1  0.39654590  0.39655128  0.50000047  1  0  -0.398266  0  1.751202  0  -0.472253  0  -0.395072  0  1.952665  0  0  -0.407576  0  1.950881  0  0  -0.156145  -0.385969  0  1.953873  0
O  O113  1  0.10353264  0.89646946  0.24999978  1  0  -0.398665  0  1.750056  0  -0.472663  0  -0.395461  0  1.951566  0  0  -0.40815  0  1.949744  0  0  -0.156399  -0.386349  0  1.952764  0
O  O114  1  0.60344646  0.60345124  0.00000037  1  0  -0.3982  0  1.751189  0  -0.472683  0  -0.39499  0  1.952695  0  0  -0.407492  0  1.95091  0  0  -0.156059  -0.385887  0  1.953903  0
O  O115  1  0.89647003  0.10352970  0.74999980  1  0  -0.398686  0  1.750128  0  -0.472654  0  -0.395505  0  1.951673  0  0  -0.408192  0  1.949848  0  0  -0.156348  -0.386393  0  1.95287  0
