# generated using pymatgen
data_NiH7C7NO6
_symmetry_space_group_name_H-M   'P 1'
_cell_length_a   6.83438933
_cell_length_b   7.57283483
_cell_length_c   11.07977564
_cell_angle_alpha   56.77314600
_cell_angle_beta   66.56694183
_cell_angle_gamma   75.64879387
_symmetry_Int_Tables_number   1
_chemical_formula_structural   NiH7C7NO6
_chemical_formula_sum   'Ni2 H14 C14 N2 O12'
_cell_volume   439.79074357
_cell_formula_units_Z   2
loop_
 _symmetry_equiv_pos_site_id
 _symmetry_equiv_pos_as_xyz
  1  'x, y, z'
loop_
 _atom_site_type_symbol
 _atom_site_label
 _atom_site_symmetry_multiplicity
 _atom_site_fract_x
 _atom_site_fract_y
 _atom_site_fract_z
 _atom_site_occupancy
 _atom_site_hle17_bader_spin_density
 _atom_site_hle17_ddec_charge
 _atom_site_hle17_ddec_spin_density
 _atom_site_hle17_ddec_sum_bond_order
 _atom_site_hle17_magmom
 _atom_site_hse06_10hf_bader_spin_density
 _atom_site_hse06_10hf_ddec_charge
 _atom_site_hse06_10hf_ddec_spin_density
 _atom_site_hse06_10hf_ddec_sum_bond_order
 _atom_site_hse06_10hf_magmom
 _atom_site_hse06_bader_spin_density
 _atom_site_hse06_ddec_charge
 _atom_site_hse06_ddec_spin_density
 _atom_site_hse06_ddec_sum_bond_order
 _atom_site_hse06_magmom
 _atom_site_pbe_bader_spin_density
 _atom_site_pbe_cm5_charge
 _atom_site_pbe_ddec_charge
 _atom_site_pbe_ddec_spin_density
 _atom_site_pbe_ddec_sum_bond_order
 _atom_site_pbe_magmom
Ni  Ni0  1  0.04138504  0.33253089  0.28358976  1  0  0.706829  0  2.136744  0  0  0.673897  0  2.605025  0  0  0.761031  0  2.514133  0  0  0.581157  0.626279  0  2.66177  0
Ni  Ni1  1  0.95861012  0.66746768  0.71640853  1  0  0.706815  0  2.136866  0  0  0.673823  0  2.605173  0  0  0.760967  0  2.514303  0  0  0.5811  0.626243  0  2.661911  0
H  H2  1  0.09479263  0.06148970  0.06384837  1  0  0.424215  0  0.874777  0  0  0.395004  0  0.935322  0  0  0.405007  0  0.920939  0  0  0.295383  0.388162  0  0.945133  0
H  H3  1  0.90521158  0.93850192  0.93615502  1  0  0.424222  0  0.874767  0  0  0.395023  0  0.935285  0  0  0.405025  0  0.920905  0  0  0.2954  0.388184  0  0.945094  0
H  H4  1  0.90451599  0.19397341  0.99758046  1  0  0.420116  0  0.883483  0  0  0.386231  0  0.952086  0  0  0.397525  0  0.935455  0  0  0.289758  0.378236  0  0.963874  0
H  H5  1  0.09548158  0.80603166  0.00241531  1  0  0.420179  0  0.883433  0  0  0.386299  0  0.952011  0  0  0.397588  0  0.935386  0  0  0.289816  0.378306  0  0.963797  0
H  H6  1  0.89739476  0.17418314  0.20233556  1  0  0.41975  0  0.890451  0  0  0.390333  0  0.955624  0  0  0.402688  0  0.938348  0  0  0.286449  0.381688  0  0.967721  0
H  H7  1  0.10260490  0.82581848  0.79766248  1  0  0.419697  0  0.890472  0  0  0.390269  0  0.955702  0  0  0.402623  0  0.938425  0  0  0.286408  0.381623  0  0.967798  0
H  H8  1  0.91542057  0.01362765  0.36952214  1  0  0.400859  0  0.906403  0  0  0.372889  0  0.979083  0  0  0.385059  0  0.963166  0  0  0.293384  0.364286  0  0.986986  0
H  H9  1  0.08457072  0.98637751  0.63047891  1  0  0.40085  0  0.906453  0  0  0.372928  0  0.979044  0  0  0.385099  0  0.963107  0  0  0.293394  0.364324  0  0.986954  0
H  H10  1  0.67441193  0.44876794  0.18752920  1  0  0.111111  0  0.925121  0  0  0.123175  0  0.97787  0  0  0.125239  0  0.97488  0  0  0.134769  0.121146  0  0.980805  0
H  H11  1  0.32559812  0.55123975  0.81246251  1  0  0.111191  0  0.925051  0  0  0.123239  0  0.977818  0  0  0.125309  0  0.974823  0  0  0.134782  0.12121  0  0.980756  0
H  H12  1  0.60498855  0.87718144  0.41117684  1  0  0.130504  0  0.927291  0  0  0.143295  0  0.978046  0  0  0.146872  0  0.976778  0  0  0.119533  0.140551  0  0.97934  0
H  H13  1  0.39500711  0.12280159  0.58883130  1  0  0.13051  0  0.927296  0  0  0.143242  0  0.978131  0  0  0.146818  0  0.976864  0  0  0.119523  0.140506  0  0.979423  0
H  H14  1  0.91207014  0.62385257  0.39839052  1  0  0.104501  0  0.96307  0  0  0.108693  0  1.031445  0  0  0.111146  0  1.028487  0  0  0.124511  0.106685  0  1.033939  0
H  H15  1  0.08792510  0.37615687  0.60159912  1  0  0.104464  0  0.962962  0  0  0.108756  0  1.03122  0  0  0.111207  0  1.028265  0  0  0.124554  0.10675  0  1.033708  0
C  C16  1  0.65637493  0.54703256  0.23490227  1  0  0.131644  0  3.624639  0  0  0.089218  0  3.877903  0  0  0.102411  0  3.892157  0  0  0.058898  0.07986  0  3.870244  0
C  C17  1  0.34362821  0.45296645  0.76509470  1  0  0.131624  0  3.624584  0  0  0.089185  0  3.877781  0  0  0.102377  0  3.892029  0  0  0.058864  0.079829  0  3.870129  0
C  C18  1  0.47452700  0.67746591  0.24460771  1  0  -0.101278  0  3.69153  0  0  -0.088292  0  3.930773  0  0  -0.099597  0  3.949519  0  0  0.001828  -0.081158  0  3.919249  0
C  C19  1  0.52546061  0.32253060  0.75539865  1  0  -0.101285  0  3.691849  0  0  -0.088298  0  3.931171  0  0  -0.099602  0  3.949923  0  0  0.001834  -0.08117  0  3.919663  0
C  C20  1  0.30150748  0.66102750  0.19909681  1  0  0.667337  0  3.860556  0  0  0.616715  0  4.164241  0  0  0.655344  0  4.156306  0  0  0.23347  0.590194  0  4.16927  0
C  C21  1  0.69850192  0.33897399  0.80090235  1  0  0.667419  0  3.86014  0  0  0.616815  0  4.163819  0  0  0.655441  0  4.155887  0  0  0.233503  0.59029  0  4.168858  0
C  C22  1  0.45631143  0.80513248  0.30452436  1  0  0.006791  0  3.688297  0  0  0.012066  0  3.924533  0  0  0.015393  0  3.939041  0  0  0.015196  0.008959  0  3.91582  0
C  C23  1  0.54368621  0.19485248  0.69550004  1  0  0.006863  0  3.687723  0  0  0.011998  0  3.92414  0  0  0.015312  0  3.938667  0  0  0.015286  0.008885  0  3.915439  0
C  C24  1  0.25565029  0.93420575  0.32966251  1  0  0.641009  0  3.842652  0  0  0.595879  0  4.139259  0  0  0.633676  0  4.130639  0  0  0.224532  0.56976  0  4.145458  0
C  C25  1  0.74435265  0.06579653  0.67033904  1  0  0.641023  0  3.842788  0  0  0.596  0  4.139304  0  0  0.633809  0  4.130667  0  0  0.224535  0.569883  0  4.145506  0
C  C26  1  0.61743577  0.78726561  0.35829519  1  0  -0.10486  0  3.66284  0  0  -0.127017  0  3.914462  0  0  -0.133123  0  3.930692  0  0  -0.070198  -0.123399  0  3.904881  0
C  C27  1  0.38253886  0.21273185  0.64171250  1  0  -0.104896  0  3.662612  0  0  -0.126982  0  3.914349  0  0  -0.133088  0  3.930588  0  0  -0.070254  -0.123375  0  3.904781  0
C  C28  1  0.78980435  0.64618727  0.35136050  1  0  0.128812  0  3.642272  0  0  0.088946  0  3.910659  0  0  0.101128  0  3.926785  0  0  0.048589  0.080328  0  3.90138  0
C  C29  1  0.21022298  0.35381040  0.64863138  1  0  0.128781  0  3.642718  0  0  0.088796  0  3.911101  0  0  0.100973  0  3.927239  0  0  0.048469  0.080186  0  3.90182  0
N  N30  1  0.81142335  0.53007295  0.28767514  1  0  -0.250106  0  3.396531  0  0  -0.196472  0  3.698457  0  0  -0.229304  0  3.716323  0  0  -0.337506  -0.178086  0  3.688701  0
N  N31  1  0.18857221  0.46991993  0.71231648  1  0  -0.250203  0  3.396364  0  0  -0.19643  0  3.698184  0  0  -0.229263  0  3.71605  0  0  -0.337432  -0.178061  0  3.68845  0
O  O32  1  0.23850094  0.47062285  0.27883353  1  0  -0.529425  0  2.160501  0  0  -0.495924  0  2.458728  0  0  -0.538829  0  2.443946  0  0  -0.289976  -0.467702  0  2.467983  0
O  O33  1  0.76150973  0.52938080  0.72116284  1  0  -0.52942  0  2.160337  0  0  -0.495941  0  2.458625  0  0  -0.538849  0  2.443847  0  0  -0.28997  -0.467729  0  2.467888  0
O  O34  1  0.23857016  0.81848009  0.09445808  1  0  -0.61931  0  2.0173  0  0  -0.563801  0  2.235384  0  0  -0.589998  0  2.224889  0  0  -0.297934  -0.545531  0  2.24235  0
O  O35  1  0.76142822  0.18151937  0.90554275  1  0  -0.619327  0  2.017297  0  0  -0.563809  0  2.235377  0  0  -0.590004  0  2.22488  0  0  -0.297969  -0.545541  0  2.242347  0
O  O36  1  0.08481644  0.83433878  0.40641502  1  0  -0.597335  0  2.03847  0  0  -0.551438  0  2.277173  0  0  -0.577601  0  2.263415  0  0  -0.289702  -0.534095  0  2.286395  0
O  O37  1  0.91517853  0.16564938  0.59358999  1  0  -0.597282  0  2.038814  0  0  -0.551442  0  2.277474  0  0  -0.577594  0  2.263677  0  0  -0.289698  -0.534101  0  2.286702  0
O  O38  1  0.27439628  0.13133382  0.27412152  1  0  -0.518435  0  2.061356  0  0  -0.484033  0  2.332759  0  0  -0.523374  0  2.31689  0  0  -0.293509  -0.458202  0  2.342846  0
O  O39  1  0.72560680  0.86866456  0.72587200  1  0  -0.518484  0  2.061225  0  0  -0.484097  0  2.332588  0  0  -0.523446  0  2.316714  0  0  -0.293525  -0.458269  0  2.342674  0
O  O40  1  0.99469057  0.18442592  0.05304973  1  0  -0.818186  0  1.876328  0  0  -0.769432  0  2.046676  0  0  -0.789283  0  2.013043  0  0  -0.576929  -0.755564  0  2.070296  0
O  O41  1  0.00531376  0.81557891  0.94695345  1  0  -0.818237  0  1.876353  0  0  -0.769483  0  2.046759  0  0  -0.789325  0  2.013117  0  0  -0.576987  -0.755619  0  2.070376  0
O  O42  1  0.85233269  0.16090290  0.30901479  1  0  -0.754569  0  2.03345  0  0  -0.719954  0  2.277148  0  0  -0.76143  0  2.245257  0  0  -0.551702  -0.69241  0  2.295633  0
O  O43  1  0.14765633  0.83910554  0.69097860  1  0  -0.754477  0  2.033468  0  0  -0.719874  0  2.277174  0  0  -0.761357  0  2.245273  0  0  -0.551633  -0.692341  0  2.295671  0
