# generated using pymatgen
data_NaH7C6O7
_symmetry_space_group_name_H-M   'P 1'
_cell_length_a   7.45070570
_cell_length_b   9.65990822
_cell_length_c   11.67236882
_cell_angle_alpha   90.00003972
_cell_angle_beta   90.00000133
_cell_angle_gamma   105.56631346
_symmetry_Int_Tables_number   1
_chemical_formula_structural   NaH7C6O7
_chemical_formula_sum   'Na4 H28 C24 O28'
_cell_volume   809.28262812
_cell_formula_units_Z   4
loop_
 _symmetry_equiv_pos_site_id
 _symmetry_equiv_pos_as_xyz
  1  'x, y, z'
loop_
 _atom_site_type_symbol
 _atom_site_label
 _atom_site_symmetry_multiplicity
 _atom_site_fract_x
 _atom_site_fract_y
 _atom_site_fract_z
 _atom_site_occupancy
 _atom_site_hle17_bader_spin_density
 _atom_site_hle17_ddec_charge
 _atom_site_hle17_ddec_spin_density
 _atom_site_hle17_ddec_sum_bond_order
 _atom_site_hle17_magmom
 _atom_site_hse06_10hf_bader_spin_density
 _atom_site_hse06_10hf_ddec_charge
 _atom_site_hse06_10hf_ddec_spin_density
 _atom_site_hse06_10hf_ddec_sum_bond_order
 _atom_site_hse06_10hf_magmom
 _atom_site_hse06_bader_spin_density
 _atom_site_hse06_ddec_charge
 _atom_site_hse06_ddec_spin_density
 _atom_site_hse06_ddec_sum_bond_order
 _atom_site_hse06_magmom
 _atom_site_pbe_bader_spin_density
 _atom_site_pbe_cm5_charge
 _atom_site_pbe_ddec_charge
 _atom_site_pbe_ddec_spin_density
 _atom_site_pbe_ddec_sum_bond_order
 _atom_site_pbe_magmom
Na  Na0  1  0.10430307  0.09179414  0.12251158  1  0  0.89386  0  0.410997  0  0  0.847024  0  0.570853  0  0  0.857615  0  0.549037  0  0  0.720083  0.839188  0  0.586641  0
Na  Na1  1  0.89569850  0.40820428  0.62251130  1  0  0.893861  0  0.411  0  0  0.847039  0  0.570821  0  0  0.857626  0  0.549005  0  0  0.720072  0.839198  0  0.586606  0
Na  Na2  1  0.89569642  0.90820660  0.87748796  1  0  0.893852  0  0.410986  0  0  0.847007  0  0.570849  0  0  0.857599  0  0.549032  0  0  0.72007  0.839169  0  0.586636  0
Na  Na3  1  0.10430256  0.59179324  0.37748824  1  0  0.893856  0  0.410994  0  0  0.847018  0  0.570856  0  0  0.857605  0  0.549041  0  0  0.720072  0.839174  0  0.586642  0
H  H4  1  0.80846014  0.36615828  0.19308431  1  0  0.153463  0  0.92578  0  0  0.159338  0  0.995427  0  0  0.163373  0  0.992506  0  0  0.11719  0.156341  0  0.997782  0
H  H5  1  0.19154085  0.13384235  0.69308472  1  0  0.15348  0  0.925786  0  0  0.159358  0  0.995438  0  0  0.163391  0  0.992521  0  0  0.117202  0.156359  0  0.997797  0
H  H6  1  0.19154069  0.63384246  0.80691523  1  0  0.153487  0  0.925772  0  0  0.159355  0  0.995433  0  0  0.163392  0  0.992516  0  0  0.117204  0.156358  0  0.997792  0
H  H7  1  0.80845938  0.86616054  0.30691739  1  0  0.153458  0  0.925809  0  0  0.159318  0  0.995456  0  0  0.163358  0  0.992531  0  0  0.117192  0.156317  0  0.997816  0
H  H8  1  0.73410391  0.17677189  0.19012770  1  0  0.139273  0  0.916211  0  0  0.151016  0  0.97317  0  0  0.154501  0  0.970997  0  0  0.117374  0.148366  0  0.975088  0
H  H9  1  0.26589708  0.32322873  0.69012822  1  0  0.13927  0  0.91623  0  0  0.15102  0  0.973187  0  0  0.154505  0  0.971016  0  0  0.117376  0.14837  0  0.975102  0
H  H10  1  0.26589693  0.82322885  0.80987012  1  0  0.139259  0  0.916251  0  0  0.151003  0  0.973208  0  0  0.154492  0  0.971038  0  0  0.117374  0.148355  0  0.975125  0
H  H11  1  0.73410412  0.67677308  0.30987303  1  0  0.139274  0  0.916239  0  0  0.151007  0  0.97319  0  0  0.154492  0  0.971021  0  0  0.117378  0.148356  0  0.975104  0
H  H12  1  0.64903531  0.04472812  0.37049122  1  0  0.130701  0  0.928351  0  0  0.142185  0  0.989709  0  0  0.144458  0  0.989406  0  0  0.108138  0.140482  0  0.990138  0
H  H13  1  0.35096574  0.45527268  0.87049353  1  0  0.130693  0  0.928367  0  0  0.142159  0  0.989749  0  0  0.14443  0  0.989449  0  0  0.108128  0.140456  0  0.990177  0
H  H14  1  0.35096515  0.95527155  0.62950575  1  0  0.130712  0  0.928359  0  0  0.142178  0  0.989732  0  0  0.144451  0  0.989429  0  0  0.108133  0.140475  0  0.990162  0
H  H15  1  0.64903375  0.54472806  0.12950943  1  0  0.130678  0  0.928366  0  0  0.142149  0  0.989757  0  0  0.144422  0  0.989455  0  0  0.108114  0.140446  0  0.990185  0
H  H16  1  0.57468662  0.16195116  0.46308172  1  0  0.145288  0  0.935886  0  0  0.15381  0  1.001282  0  0  0.157562  0  0.999091  0  0  0.11492  0.151183  0  1.002825  0
H  H17  1  0.42531201  0.33804649  0.96308310  1  0  0.14531  0  0.935892  0  0  0.15383  0  1.001286  0  0  0.157581  0  0.999096  0  0  0.114906  0.151203  0  1.00283  0
H  H18  1  0.42531273  0.83804528  0.53691525  1  0  0.145302  0  0.935886  0  0  0.153819  0  1.00128  0  0  0.157571  0  0.999091  0  0  0.114904  0.151192  0  1.002821  0
H  H19  1  0.57468614  0.66195425  0.03691901  1  0  0.145305  0  0.935859  0  0  0.153818  0  1.001274  0  0  0.157571  0  0.999084  0  0  0.114918  0.151192  0  1.002817  0
H  H20  1  0.69790105  0.41596304  0.40842622  1  0  0.394622  0  0.865461  0  0  0.375559  0  0.925892  0  0  0.385524  0  0.9139  0  0  0.319042  0.368347  0  0.934751  0
H  H21  1  0.30209793  0.08403563  0.90842574  1  0  0.394723  0  0.865355  0  0  0.375606  0  0.925873  0  0  0.385574  0  0.913877  0  0  0.319056  0.368396  0  0.934733  0
H  H22  1  0.30209770  0.58403555  0.59157246  1  0  0.39472  0  0.865319  0  0  0.375609  0  0.92584  0  0  0.385576  0  0.913843  0  0  0.319049  0.368397  0  0.934702  0
H  H23  1  0.69790290  0.91596511  0.09157551  1  0  0.394727  0  0.865342  0  0  0.375581  0  0.925896  0  0  0.385544  0  0.913905  0  0  0.31905  0.368374  0  0.934747  0
H  H24  1  0.34071676  0.35557621  0.32777076  1  0  0.414091  0  0.875103  0  0  0.378548  0  0.958723  0  0  0.392738  0  0.940584  0  0  0.304761  0.368637  0  0.969144  0
H  H25  1  0.65928428  0.14442455  0.82777033  1  0  0.414054  0  0.875157  0  0  0.378513  0  0.958783  0  0  0.392707  0  0.940633  0  0  0.304736  0.368602  0  0.969203  0
H  H26  1  0.65928371  0.64442346  0.67222878  1  0  0.414085  0  0.875104  0  0  0.378541  0  0.958729  0  0  0.392734  0  0.940589  0  0  0.304747  0.368627  0  0.969148  0
H  H27  1  0.34071655  0.85557620  0.17223093  1  0  0.414117  0  0.875062  0  0  0.378573  0  0.958687  0  0  0.392765  0  0.940545  0  0  0.30477  0.368663  0  0.969108  0
H  H28  1  0.83340891  0.92855347  0.61144086  1  0  0.407792  0  0.878478  0  0  0.375844  0  0.958973  0  0  0.388354  0  0.945538  0  0  0.309504  0.367059  0  0.968324  0
H  H29  1  0.16658924  0.57144398  0.11144284  1  0  0.407833  0  0.878457  0  0  0.37589  0  0.958943  0  0  0.388402  0  0.945504  0  0  0.309531  0.367104  0  0.968293  0
H  H30  1  0.16659081  0.07144405  0.38855697  1  0  0.407863  0  0.878419  0  0  0.375919  0  0.958902  0  0  0.388429  0  0.945468  0  0  0.30955  0.367132  0  0.968256  0
H  H31  1  0.83340927  0.42855783  0.88855756  1  0  0.407873  0  0.878457  0  0  0.375932  0  0.958938  0  0  0.388443  0  0.945501  0  0  0.30956  0.367147  0  0.968288  0
C  C32  1  0.52441188  0.27503576  0.24052281  1  0  0.738887  0  3.741613  0  0  0.69229  0  4.04529  0  0  0.724388  0  4.037069  0  0  0.238695  0.670341  0  4.050434  0
C  C33  1  0.47558853  0.22496706  0.74051814  1  0  0.738803  0  3.741713  0  0  0.692187  0  4.045447  0  0  0.724297  0  4.03721  0  0  0.238554  0.670236  0  4.050588  0
C  C34  1  0.47558821  0.72496283  0.75947673  1  0  0.73889  0  3.741587  0  0  0.692287  0  4.045293  0  0  0.724386  0  4.037074  0  0  0.238676  0.670337  0  4.050433  0
C  C35  1  0.52441536  0.77503477  0.25948055  1  0  0.738817  0  3.741785  0  0  0.692184  0  4.045492  0  0  0.724301  0  4.037241  0  0  0.238581  0.670232  0  4.050634  0
C  C36  1  0.72595274  0.27110735  0.23969693  1  0  -0.374435  0  3.621308  0  0  -0.417608  0  3.861888  0  0  -0.425269  0  3.867839  0  0  -0.159125  -0.412111  0  3.857837  0
C  C37  1  0.27404826  0.22889332  0.73969739  1  0  -0.374486  0  3.621285  0  0  -0.417687  0  3.861928  0  0  -0.425348  0  3.867877  0  0  -0.159135  -0.412185  0  3.857874  0
C  C38  1  0.27404846  0.72889446  0.76030261  1  0  -0.374445  0  3.621231  0  0  -0.417637  0  3.861859  0  0  -0.425316  0  3.867837  0  0  -0.159145  -0.41214  0  3.85781  0
C  C39  1  0.72595257  0.77110742  0.26030472  1  0  -0.374475  0  3.621481  0  0  -0.41757  0  3.861961  0  0  -0.425243  0  3.867917  0  0  -0.159142  -0.412069  0  3.857909  0
C  C40  1  0.81338497  0.26793121  0.35934445  1  0  0.261336  0  3.569331  0  0  0.262304  0  3.81432  0  0  0.265676  0  3.825974  0  0  0.072937  0.259885  0  3.806281  0
C  C41  1  0.18661436  0.23206850  0.85934492  1  0  0.261422  0  3.569321  0  0  0.262412  0  3.814255  0  0  0.265786  0  3.825907  0  0  0.072969  0.259992  0  3.80622  0
C  C42  1  0.18661378  0.73206738  0.64065337  1  0  0.261395  0  3.569274  0  0  0.262391  0  3.814116  0  0  0.265778  0  3.825768  0  0  0.072942  0.259972  0  3.806078  0
C  C43  1  0.81338512  0.76793224  0.14065634  1  0  0.261192  0  3.569684  0  0  0.262194  0  3.814545  0  0  0.265562  0  3.826199  0  0  0.072898  0.259775  0  3.80651  0
C  C44  1  0.69922006  0.13699381  0.42757478  1  0  -0.375507  0  3.646029  0  0  -0.421066  0  3.888994  0  0  -0.428834  0  3.896346  0  0  -0.168629  -0.415606  0  3.884011  0
C  C45  1  0.30078027  0.36300488  0.92757703  1  0  -0.375657  0  3.646125  0  0  -0.421151  0  3.88909  0  0  -0.428914  0  3.896439  0  0  -0.168626  -0.415693  0  3.884102  0
C  C46  1  0.30077966  0.86300370  0.57242305  1  0  -0.375646  0  3.646105  0  0  -0.421152  0  3.889106  0  0  -0.428921  0  3.896459  0  0  -0.168636  -0.415697  0  3.884115  0
C  C47  1  0.69922056  0.63699586  0.07242508  1  0  -0.375507  0  3.646097  0  0  -0.421029  0  3.889128  0  0  -0.428791  0  3.896497  0  0  -0.168606  -0.415581  0  3.884127  0
C  C48  1  0.80623234  0.09457801  0.52507512  1  0  0.735813  0  3.75185  0  0  0.687061  0  4.05697  0  0  0.720135  0  4.047616  0  0  0.234671  0.664442  0  4.062893  0
C  C49  1  0.19376785  0.40542032  0.02507815  1  0  0.735918  0  3.75159  0  0  0.687064  0  4.056876  0  0  0.720129  0  4.047534  0  0  0.234676  0.664463  0  4.062775  0
C  C50  1  0.19376603  0.90541950  0.47492185  1  0  0.73596  0  3.751685  0  0  0.687103  0  4.056967  0  0  0.720166  0  4.047632  0  0  0.234698  0.66451  0  4.062858  0
C  C51  1  0.80623738  0.59458151  0.97492225  1  0  0.735901  0  3.751643  0  0  0.686971  0  4.057061  0  0  0.720018  0  4.047752  0  0  0.234684  0.664402  0  4.062916  0
C  C52  1  0.01389244  0.25406499  0.34152629  1  0  0.639988  0  3.829154  0  0  0.591103  0  4.127534  0  0  0.623171  0  4.120069  0  0  0.225054  0.569262  0  4.132059  0
C  C53  1  0.98610861  0.24593578  0.84152764  1  0  0.639935  0  3.829267  0  0  0.591081  0  4.127606  0  0  0.62314  0  4.120156  0  0  0.225041  0.56924  0  4.132132  0
C  C54  1  0.98610205  0.74593682  0.65847239  1  0  0.639849  0  3.829459  0  0  0.591042  0  4.127726  0  0  0.623102  0  4.120269  0  0  0.22499  0.569202  0  4.132248  0
C  C55  1  0.01389125  0.75406603  0.15847533  1  0  0.639999  0  3.829219  0  0  0.591116  0  4.127602  0  0  0.623188  0  4.120133  0  0  0.22501  0.569275  0  4.132129  0
O  O56  1  0.48493491  0.36091782  0.32100093  1  0  -0.583597  0  2.074051  0  0  -0.518909  0  2.284281  0  0  -0.542895  0  2.265637  0  0  -0.318158  -0.502293  0  2.295409  0
O  O57  1  0.51506649  0.13908400  0.82100135  1  0  -0.583557  0  2.07392  0  0  -0.518872  0  2.284182  0  0  -0.542876  0  2.265543  0  0  -0.318101  -0.502254  0  2.295307  0
O  O58  1  0.51506666  0.63908507  0.67899775  1  0  -0.583617  0  2.074051  0  0  -0.518928  0  2.284302  0  0  -0.542916  0  2.26566  0  0  -0.318132  -0.502306  0  2.29542  0
O  O59  1  0.48493494  0.86091460  0.17900162  1  0  -0.583594  0  2.074037  0  0  -0.518876  0  2.284268  0  0  -0.542869  0  2.265622  0  0  -0.318099  -0.502259  0  2.295393  0
O  O60  1  0.41005087  0.20718333  0.17108016  1  0  -0.606852  0  1.916165  0  0  -0.571305  0  2.143485  0  0  -0.590444  0  2.132805  0  0  -0.354311  -0.558107  0  2.15064  0
O  O61  1  0.58994766  0.29281405  0.67107724  1  0  -0.606749  0  1.916375  0  0  -0.571198  0  2.143716  0  0  -0.590338  0  2.13303  0  0  -0.354213  -0.557999  0  2.150866  0
O  O62  1  0.58994922  0.79281526  0.82892281  1  0  -0.606854  0  1.916157  0  0  -0.571296  0  2.143487  0  0  -0.590433  0  2.132807  0  0  -0.35431  -0.558098  0  2.15064  0
O  O63  1  0.41005243  0.70718454  0.32892230  1  0  -0.606778  0  1.916281  0  0  -0.571249  0  2.143647  0  0  -0.590392  0  2.132957  0  0  -0.354262  -0.558051  0  2.150799  0
O  O64  1  0.75009013  0.95547926  0.55000518  1  0  -0.548659  0  2.068236  0  0  -0.49055  0  2.279332  0  0  -0.513751  0  2.266077  0  0  -0.325163  -0.474309  0  2.287993  0
O  O65  1  0.24990666  0.54451813  0.05000715  1  0  -0.548705  0  2.068236  0  0  -0.49056  0  2.279355  0  0  -0.513758  0  2.2661  0  0  -0.32518  -0.474325  0  2.288012  0
O  O66  1  0.24990825  0.04451826  0.44999351  1  0  -0.548714  0  2.068172  0  0  -0.490585  0  2.279319  0  0  -0.513783  0  2.266067  0  0  -0.325191  -0.474352  0  2.287978  0
O  O67  1  0.75009283  0.45548260  0.94999239  1  0  -0.548765  0  2.068201  0  0  -0.490617  0  2.279385  0  0  -0.513809  0  2.26614  0  0  -0.325248  -0.474392  0  2.288029  0
O  O68  1  0.93311320  0.18096581  0.57632695  1  0  -0.615017  0  1.945157  0  0  -0.573992  0  2.177952  0  0  -0.594809  0  2.168569  0  0  -0.348496  -0.559546  0  2.184164  0
O  O69  1  0.06688933  0.31903149  0.07633078  1  0  -0.614994  0  1.944891  0  0  -0.573974  0  2.177815  0  0  -0.59479  0  2.168439  0  0  -0.348497  -0.559535  0  2.18402  0
O  O70  1  0.06688921  0.81903171  0.42366916  1  0  -0.615052  0  1.945042  0  0  -0.574012  0  2.177954  0  0  -0.594827  0  2.168582  0  0  -0.348511  -0.559575  0  2.184155  0
O  O71  1  0.93311299  0.68097355  0.92367390  1  0  -0.614967  0  1.945006  0  0  -0.573879  0  2.177918  0  0  -0.594687  0  2.168552  0  0  -0.348442  -0.559451  0  2.184107  0
O  O72  1  0.02501221  0.12908135  0.31461227  1  0  -0.674351  0  2.014698  0  0  -0.629738  0  2.261007  0  0  -0.653134  0  2.249791  0  0  -0.373059  -0.613487  0  2.268557  0
O  O73  1  0.97498845  0.37091831  0.81461283  1  0  -0.674357  0  2.014704  0  0  -0.629763  0  2.260994  0  0  -0.653155  0  2.249781  0  0  -0.373059  -0.61351  0  2.268541  0
O  O74  1  0.97498922  0.87091724  0.68538556  1  0  -0.674235  0  2.014809  0  0  -0.62967  0  2.26111  0  0  -0.653063  0  2.249896  0  0  -0.372974  -0.613421  0  2.268659  0
O  O75  1  0.02501104  0.62908243  0.18538843  1  0  -0.674334  0  2.014666  0  0  -0.629729  0  2.260975  0  0  -0.653126  0  2.249757  0  0  -0.373027  -0.613476  0  2.268521  0
O  O76  1  0.15027378  0.36469953  0.35266802  1  0  -0.624298  0  2.012117  0  0  -0.575123  0  2.241691  0  0  -0.598125  0  2.228664  0  0  -0.358247  -0.559127  0  2.249822  0
O  O77  1  0.84972629  0.13530232  0.85266930  1  0  -0.624265  0  2.012176  0  0  -0.575098  0  2.241737  0  0  -0.598094  0  2.228709  0  0  -0.358234  -0.559102  0  2.249868  0
O  O78  1  0.84972840  0.63530122  0.64733237  1  0  -0.62425  0  2.012246  0  0  -0.575104  0  2.241783  0  0  -0.598103  0  2.228759  0  0  -0.358231  -0.559109  0  2.249912  0
O  O79  1  0.15027357  0.86469949  0.14733367  1  0  -0.624294  0  2.012107  0  0  -0.57513  0  2.241693  0  0  -0.598132  0  2.228665  0  0  -0.35824  -0.559135  0  2.249829  0
O  O80  1  0.82260080  0.40053356  0.41915754  1  0  -0.652445  0  2.043787  0  0  -0.617814  0  2.276716  0  0  -0.630248  0  2.260846  0  0  -0.477197  -0.608973  0  2.28796  0
O  O81  1  0.17739990  0.09946620  0.91915707  1  0  -0.652537  0  2.043731  0  0  -0.617854  0  2.27669  0  0  -0.630295  0  2.26083  0  0  -0.477208  -0.609011  0  2.287939  0
O  O82  1  0.17739795  0.59946503  0.58084285  1  0  -0.652525  0  2.043762  0  0  -0.617867  0  2.276714  0  0  -0.630309  0  2.260848  0  0  -0.477196  -0.609025  0  2.287959  0
O  O83  1  0.82260130  0.90053561  0.08084504  1  0  -0.652468  0  2.043856  0  0  -0.617765  0  2.276844  0  0  -0.630211  0  2.261006  0  0  -0.477152  -0.608924  0  2.288091  0
