# generated using pymatgen
data_Nd3H27C21N4O23
_symmetry_space_group_name_H-M   'P 1'
_cell_length_a   12.46149094
_cell_length_b   13.00939353
_cell_length_c   22.29761103
_cell_angle_alpha   89.99956827
_cell_angle_beta   90.00047636
_cell_angle_gamma   89.99954255
_symmetry_Int_Tables_number   1
_chemical_formula_structural   Nd3H27C21N4O23
_chemical_formula_sum   'Nd12 H108 C84 N16 O92'
_cell_volume   3614.80931044
_cell_formula_units_Z   4
loop_
 _symmetry_equiv_pos_site_id
 _symmetry_equiv_pos_as_xyz
  1  'x, y, z'
loop_
 _atom_site_type_symbol
 _atom_site_label
 _atom_site_symmetry_multiplicity
 _atom_site_fract_x
 _atom_site_fract_y
 _atom_site_fract_z
 _atom_site_occupancy
 _atom_site_pbe_bader_charge
 _atom_site_pbe_bader_spin_density
 _atom_site_pbe_cm5_charge
 _atom_site_pbe_ddec_charge
 _atom_site_pbe_ddec_spin_density
 _atom_site_pbe_ddec_sum_bond_order
 _atom_site_pbe_magmom
Nd  Nd0  1  0.98925620  0.15931560  0.49072269  1  2.218467  0  1.505539  2.012979  0  2.200161  0
Nd  Nd1  1  0.48925281  0.34068481  0.50927378  1  2.218541  0  1.505476  2.01285  0  2.20028  0
Nd  Nd2  1  0.01074174  0.84068532  0.99072180  1  2.218494  0  1.505549  2.012856  0  2.200323  0
Nd  Nd3  1  0.51074360  0.65931311  0.00928370  1  2.218432  0  1.505519  2.012947  0  2.200211  0
Nd  Nd4  1  0.01074700  0.84068766  0.50927381  1  2.218497  0  1.505544  2.012942  0  2.200249  0
Nd  Nd5  1  0.51074958  0.65931615  0.49072720  1  2.218441  0  1.505511  2.012739  0  2.200355  0
Nd  Nd6  1  0.98925263  0.15931487  0.00927515  1  2.218534  0  1.505539  2.012833  0  2.200278  0
Nd  Nd7  1  0.48924916  0.34068169  0.99072357  1  2.218509  0  1.505483  2.01272  0  2.200499  0
Nd  Nd8  1  0.17041253  0.29315113  0.75000028  1  2.246917  0  1.443861  2.088512  0  2.089906  0
Nd  Nd9  1  0.67041917  0.20685172  0.24999919  1  2.246974  0  1.44392  2.088547  0  2.089883  0
Nd  Nd10  1  0.82959628  0.70684752  0.24999891  1  2.246847  0  1.443829  2.088609  0  2.089821  0
Nd  Nd11  1  0.32957921  0.79314385  0.75000628  1  2.247017  0  1.443857  2.088535  0  2.090001  0
H  H12  1  0.00952327  0.02064565  0.38160005  1  0.641658  0  0.304045  0.403207  0  0.922923  0
H  H13  1  0.50951948  0.47936074  0.61839643  1  0.642088  0  0.304077  0.403191  0  0.922923  0
H  H14  1  0.99046502  0.97936051  0.88159998  1  0.642171  0  0.304037  0.403244  0  0.922859  0
H  H15  1  0.49047053  0.52063884  0.11840237  1  0.641566  0  0.304054  0.403223  0  0.922902  0
H  H16  1  0.99047109  0.97935069  0.61840004  1  0.642058  0  0.304081  0.403285  0  0.922825  0
H  H17  1  0.49048211  0.52064713  0.38160232  1  0.64215  0  0.304055  0.403198  0  0.922929  0
H  H18  1  0.00953256  0.02063736  0.11839741  1  0.642062  0  0.304014  0.403162  0  0.92297  0
H  H19  1  0.50952143  0.47935904  0.88160579  1  0.64213  0  0.304013  0.403091  0  0.923092  0
H  H20  1  0.10344267  0.10181742  0.37971514  1  0.590496  0  0.314788  0.396466  0  0.916064  0
H  H21  1  0.60343877  0.39818595  0.62028268  1  0.590568  0  0.314759  0.396446  0  0.916071  0
H  H22  1  0.89655202  0.89817801  0.87971275  1  0.59043  0  0.314822  0.396505  0  0.916033  0
H  H23  1  0.39655769  0.60182283  0.12029052  1  0.590478  0  0.314791  0.396432  0  0.916139  0
H  H24  1  0.89655250  0.89817815  0.62028092  1  0.590432  0  0.314773  0.396437  0  0.916088  0
H  H25  1  0.39655640  0.60181116  0.37971741  1  0.590486  0  0.314792  0.396546  0  0.915954  0
H  H26  1  0.10344154  0.10181910  0.12028106  1  0.590521  0  0.314789  0.396482  0  0.916025  0
H  H27  1  0.60343748  0.39817966  0.87971451  1  0.590572  0  0.31468  0.396325  0  0.916235  0
H  H28  1  0.31049256  0.36452435  0.63928007  1  0.664667  0  0.307226  0.410776  0  0.91951  0
H  H29  1  0.81049823  0.13546590  0.36071781  1  0.664631  0  0.30726  0.410732  0  0.919572  0
H  H30  1  0.68950738  0.63546574  0.13927926  1  0.664571  0  0.307263  0.410742  0  0.919532  0
H  H31  1  0.18949938  0.86453362  0.86071900  1  0.66462  0  0.307271  0.41076  0  0.919524  0
H  H32  1  0.68950421  0.63547353  0.36071868  1  0.664687  0  0.307251  0.410826  0  0.919441  0
H  H33  1  0.18950496  0.86453275  0.63928228  1  0.664646  0  0.307258  0.410747  0  0.919546  0
H  H34  1  0.31049661  0.36453291  0.86071859  1  0.66463  0  0.307264  0.410741  0  0.919548  0
H  H35  1  0.81049739  0.13547501  0.13927884  1  0.664653  0  0.307287  0.410852  0  0.919394  0
H  H36  1  0.39950726  0.32990796  0.68361201  1  0.606845  0  0.32889  0.425098  0  0.863673  0
H  H37  1  0.89951600  0.17008544  0.31638988  1  0.606756  0  0.32888  0.425039  0  0.863717  0
H  H38  1  0.60049976  0.67008923  0.18361242  1  0.606924  0  0.328829  0.425075  0  0.863739  0
H  H39  1  0.10047935  0.82992234  0.81638991  1  0.606691  0  0.328903  0.425091  0  0.863687  0
H  H40  1  0.60049673  0.67009529  0.31638405  1  0.606922  0  0.328884  0.425106  0  0.863675  0
H  H41  1  0.10049121  0.82990398  0.68361111  1  0.606806  0  0.328912  0.425113  0  0.863644  0
H  H42  1  0.39950985  0.32992171  0.81638587  1  0.606824  0  0.328893  0.425084  0  0.863683  0
H  H43  1  0.89951421  0.17008937  0.18360928  1  0.606778  0  0.328891  0.425051  0  0.863708  0
H  H44  1  0.92522802  0.30000581  0.71531131  1  0.623746  0  0.335292  0.412691  0  0.873277  0
H  H45  1  0.42522408  0.19998509  0.28469293  1  0.6235  0  0.335287  0.412697  0  0.873286  0
H  H46  1  0.07477466  0.70001020  0.21531632  1  0.62368  0  0.33528  0.412654  0  0.873295  0
H  H47  1  0.57478525  0.79999773  0.78468992  1  0.623879  0  0.335307  0.412679  0  0.873224  0
H  H48  1  0.07478721  0.69998592  0.28469326  1  0.623515  0  0.335349  0.41271  0  0.87317  0
H  H49  1  0.57476949  0.80000971  0.71531254  1  0.623306  0  0.335262  0.412608  0  0.873339  0
H  H50  1  0.92522292  0.29999536  0.78468870  1  0.623857  0  0.335287  0.41266  0  0.873241  0
H  H51  1  0.42523159  0.19999477  0.21531555  1  0.623713  0  0.335256  0.412658  0  0.873337  0
H  H52  1  0.85485260  0.53656958  0.38601795  1  0.555526  0  0.320296  0.298898  0  0.974405  0
H  H53  1  0.35484333  0.96343850  0.61397973  1  0.555643  0  0.320305  0.298972  0  0.974459  0
H  H54  1  0.14515582  0.46343038  0.88602518  1  0.555684  0  0.32029  0.298926  0  0.974532  0
H  H55  1  0.64515223  0.03656575  0.11397910  1  0.555613  0  0.320293  0.298908  0  0.974517  0
H  H56  1  0.14515220  0.46343675  0.61398124  1  0.555614  0  0.32024  0.298843  0  0.974552  0
H  H57  1  0.64515104  0.03656399  0.38601856  1  0.555605  0  0.320269  0.298897  0  0.974546  0
H  H58  1  0.85484657  0.53656442  0.11397536  1  0.55565  0  0.320315  0.298963  0  0.974468  0
H  H59  1  0.35484455  0.96343367  0.88602009  1  0.555609  0  0.320268  0.298869  0  0.974581  0
H  H60  1  0.00707362  0.43716273  0.32902130  1  0.094017  0  0.109321  0.12813  0  0.971931  0
H  H61  1  0.50707085  0.06284368  0.67097561  1  0.094169  0  0.109289  0.127983  0  0.97208  0
H  H62  1  0.99292995  0.56283951  0.82902263  1  0.094085  0  0.109297  0.12813  0  0.972014  0
H  H63  1  0.49292877  0.93715521  0.17097795  1  0.09399  0  0.109311  0.128071  0  0.972048  0
H  H64  1  0.99293118  0.56284975  0.67097924  1  0.093797  0  0.109304  0.128091  0  0.972094  0
H  H65  1  0.49293074  0.93715650  0.32901999  1  0.093843  0  0.109348  0.128113  0  0.971951  0
H  H66  1  0.00707244  0.43715453  0.17097567  1  0.094075  0  0.109328  0.12807  0  0.972064  0
H  H67  1  0.50707122  0.06284958  0.82902304  1  0.093886  0  0.109295  0.128012  0  0.972167  0
H  H68  1  0.05959696  0.32585964  0.36544575  1  0.086212  0  0.10739  0.113116  0  0.987894  0
H  H69  1  0.55958791  0.17414791  0.63455186  1  0.086157  0  0.107396  0.113063  0  0.98796  0
H  H70  1  0.94040795  0.67414366  0.86544544  1  0.086198  0  0.107407  0.113125  0  0.987867  0
H  H71  1  0.44040796  0.82585223  0.13455399  1  0.086139  0  0.107379  0.11308  0  0.987931  0
H  H72  1  0.94040945  0.67415130  0.63455344  1  0.086074  0  0.107405  0.113117  0  0.987927  0
H  H73  1  0.44041208  0.82585151  0.36544374  1  0.086127  0  0.10739  0.113076  0  0.987935  0
H  H74  1  0.05959203  0.32585191  0.13455240  1  0.086105  0  0.107394  0.113116  0  0.987936  0
H  H75  1  0.55958721  0.17415179  0.86544969  1  0.086101  0  0.107381  0.113075  0  0.988047  0
H  H76  1  0.06605156  0.54207149  0.42070906  1  0.028975  0  0.089065  0.083972  0  1.002059  0
H  H77  1  0.56604736  0.95793497  0.57928818  1  0.029085  0  0.089064  0.084011  0  1.002052  0
H  H78  1  0.93395016  0.45792956  0.92070967  1  0.028963  0  0.089043  0.083909  0  1.00214  0
H  H79  1  0.43394849  0.04206512  0.07928968  1  0.029112  0  0.089093  0.084022  0  1.002132  0
H  H80  1  0.93395966  0.45793869  0.57929103  1  0.029153  0  0.089105  0.084033  0  1.002077  0
H  H81  1  0.43395423  0.04206368  0.42070787  1  0.029146  0  0.089089  0.084015  0  1.002046  0
H  H82  1  0.06604902  0.54206447  0.07928773  1  0.029102  0  0.089  0.083969  0  1.002158  0
H  H83  1  0.56604748  0.95793814  0.92071220  1  0.029138  0  0.089032  0.083991  0  1.002119  0
H  H84  1  0.12649123  0.42994670  0.44991481  1  0.021061  0  0.095231  0.09062  0  0.98585  0
H  H85  1  0.62648099  0.07006187  0.55008131  1  0.020924  0  0.095268  0.090702  0  0.985845  0
H  H86  1  0.87351653  0.57005628  0.94991510  1  0.021057  0  0.095243  0.090668  0  0.985798  0
H  H87  1  0.37351362  0.92994090  0.05008446  1  0.020981  0  0.095253  0.090743  0  0.985798  0
H  H88  1  0.87351998  0.57006424  0.55008438  1  0.020997  0  0.095232  0.09072  0  0.985751  0
H  H89  1  0.37352060  0.92993755  0.44991340  1  0.021073  0  0.095258  0.090687  0  0.985823  0
H  H90  1  0.12648907  0.42993853  0.05008409  1  0.02094  0  0.095267  0.090704  0  0.985824  0
H  H91  1  0.62648316  0.07006236  0.94991742  1  0.020921  0  0.095255  0.090689  0  0.985873  0
H  H92  1  0.25312876  0.42158435  0.36356283  1  0.041033  0  0.087516  0.122819  0  1.00284  0
H  H93  1  0.75312696  0.07842401  0.63643165  1  0.040441  0  0.087552  0.122767  0  1.002966  0
H  H94  1  0.74686889  0.57841974  0.86356653  1  0.040574  0  0.087521  0.122766  0  1.002938  0
H  H95  1  0.24686893  0.92157918  0.13643335  1  0.040531  0  0.087527  0.122755  0  1.002978  0
H  H96  1  0.74687523  0.57842121  0.63643322  1  0.040506  0  0.087525  0.12273  0  1.003019  0
H  H97  1  0.24687383  0.92157771  0.36356485  1  0.038817  0  0.087516  0.12273  0  1.002997  0
H  H98  1  0.25313270  0.42158198  0.13643491  1  0.040973  0  0.087519  0.122758  0  1.002946  0
H  H99  1  0.75312624  0.07842331  0.86356853  1  0.040452  0  0.087509  0.122707  0  1.003049  0
H  H100  1  0.25897613  0.54362592  0.39859996  1  0.002532  0  0.085882  0.105102  0  1.059691  0
H  H101  1  0.75897308  0.95638367  0.60139279  1  0.002566  0  0.085814  0.105062  0  1.05963  0
H  H102  1  0.74102605  0.45638080  0.89860506  1  0.002539  0  0.085837  0.1051  0  1.059632  0
H  H103  1  0.24102390  0.04361921  0.10139384  1  0.002478  0  0.085848  0.105115  0  1.059644  0
H  H104  1  0.74103348  0.45638426  0.60139385  1  0.002596  0  0.085872  0.105134  0  1.059607  0
H  H105  1  0.24102851  0.04361805  0.39860326  1  0.002633  0  0.085879  0.105134  0  1.059621  0
H  H106  1  0.25897152  0.54362016  0.10139413  1  0.002507  0  0.085846  0.105089  0  1.05967  0
H  H107  1  0.75897127  0.95638174  0.89860670  1  0.002508  0  0.085832  0.105059  0  1.059654  0
H  H108  1  0.18855473  0.52942306  0.32918925  1  0.024658  0  0.078398  0.100721  0  1.021841  0
H  H109  1  0.68855981  0.97058323  0.67080542  1  0.024856  0  0.0784  0.100654  0  1.021901  0
H  H110  1  0.81143600  0.47057995  0.82919283  1  0.024776  0  0.078412  0.100712  0  1.021893  0
H  H111  1  0.31143659  0.02942029  0.17080640  1  0.024822  0  0.078389  0.10064  0  1.021872  0
H  H112  1  0.81144606  0.47058174  0.67080635  1  0.024777  0  0.078382  0.100663  0  1.021974  0
H  H113  1  0.31144258  0.02941772  0.32919064  1  0.024754  0  0.078426  0.100681  0  1.02188  0
H  H114  1  0.18855997  0.52942177  0.17080636  1  0.024785  0  0.07839  0.100667  0  1.0219  0
H  H115  1  0.68855537  0.97058451  0.82919413  1  0.024851  0  0.078379  0.100607  0  1.02192  0
H  H116  1  0.31150703  0.52878724  0.75000233  1  0.113617  0  0.112539  0.010193  0  1.023813  0
H  H117  1  0.81153475  0.97122655  0.24999470  1  0.113002  0  0.112512  0.010296  0  1.023631  0
H  H118  1  0.68847771  0.47122293  0.24999686  1  0.113254  0  0.112556  0.010333  0  1.023724  0
H  H119  1  0.18846925  0.02877133  0.74999911  1  0.113144  0  0.112525  0.010333  0  1.023638  0
C  C120  1  0.80372854  0.34657726  0.47418554  1  0.393222  0  0.09853  0.01448  0  3.964368  0
C  C121  1  0.30372455  0.15342149  0.52580692  1  0.393041  0  0.098555  0.014426  0  3.964182  0
C  C122  1  0.19627076  0.65341926  0.97419352  1  0.392621  0  0.098642  0.014561  0  3.964334  0
C  C123  1  0.69627613  0.84657544  0.02581329  1  0.392762  0  0.098609  0.014551  0  3.964243  0
C  C124  1  0.19627626  0.65342369  0.52581141  1  0.392927  0  0.098603  0.014468  0  3.964266  0
C  C125  1  0.69627704  0.84658023  0.47419182  1  0.392621  0  0.098558  0.014461  0  3.964189  0
C  C126  1  0.80372521  0.34657324  0.02580881  1  0.392992  0  0.098672  0.014589  0  3.964076  0
C  C127  1  0.30371583  0.15342321  0.97418590  1  0.393002  0  0.098653  0.014652  0  3.964122  0
C  C128  1  0.77104167  0.44090630  0.45028494  1  0.394606  0  0.095931  -0.001274  0  3.92905  0
C  C129  1  0.27103561  0.05909578  0.54970962  1  0.394289  0  0.096007  -0.001046  0  3.929091  0
C  C130  1  0.22895968  0.55909360  0.95029438  1  0.394907  0  0.095892  -0.001046  0  3.92913  0
C  C131  1  0.72896141  0.94090315  0.04971303  1  0.394524  0  0.095943  -0.001244  0  3.929132  0
C  C132  1  0.22896232  0.55909696  0.54971290  1  0.394433  0  0.095969  -0.001141  0  3.929209  0
C  C133  1  0.72896117  0.94090594  0.45028958  1  0.394589  0  0.095993  -0.001092  0  3.929093  0
C  C134  1  0.77103629  0.44090044  0.04970884  1  0.39411  0  0.095962  -0.001092  0  3.929133  0
C  C135  1  0.27103216  0.05909780  0.95028482  1  0.394105  0  0.095935  -0.001082  0  3.929075  0
C  C136  1  0.92400720  0.39264778  0.40769698  1  1.029246  0  0.254814  0.406803  0  3.927782  0
C  C137  1  0.42400056  0.10735850  0.59230053  1  1.029045  0  0.254759  0.406855  0  3.927637  0
C  C138  1  0.07599673  0.60735574  0.90770057  1  1.029134  0  0.254811  0.406894  0  3.927793  0
C  C139  1  0.57599708  0.89264372  0.09230299  1  1.029229  0  0.254764  0.406735  0  3.927818  0
C  C140  1  0.07599920  0.60736162  0.59230221  1  1.02915  0  0.254709  0.406762  0  3.927757  0
C  C141  1  0.57599862  0.89264091  0.40769732  1  1.029229  0  0.254726  0.406719  0  3.927835  0
C  C142  1  0.92400246  0.39264137  0.09229907  1  1.028564  0  0.254829  0.406872  0  3.927513  0
C  C143  1  0.42400050  0.10735723  0.90769710  1  1.029072  0  0.254775  0.40687  0  3.927731  0
C  C144  1  0.76202551  0.28073698  0.52409587  1  1.62679  0  0.23219  0.627869  0  4.200606  0
C  C145  1  0.26202263  0.21926517  0.47589461  1  1.627198  0  0.231995  0.627555  0  4.201302  0
C  C146  1  0.23796551  0.71925998  0.02410380  1  1.62693  0  0.23208  0.627738  0  4.200897  0
C  C147  1  0.73797589  0.78073670  0.97590007  1  1.627204  0  0.232107  0.627776  0  4.20072  0
C  C148  1  0.23797769  0.71926244  0.47590018  1  1.627099  0  0.232103  0.627768  0  4.200843  0
C  C149  1  0.73797815  0.78073655  0.52410189  1  1.627119  0  0.232073  0.627696  0  4.201053  0
C  C150  1  0.76202565  0.28073406  0.97589808  1  1.627069  0  0.232111  0.627719  0  4.200882  0
C  C151  1  0.26201607  0.21926040  0.02410002  1  1.627152  0  0.23201  0.627586  0  4.201238  0
C  C152  1  0.68459756  0.51354407  0.46293885  1  1.560419  0  0.216692  0.593622  0  4.231673  0
C  C153  1  0.18459658  0.98645917  0.53705670  1  1.56101  0  0.216594  0.593439  0  4.231877  0
C  C154  1  0.31540157  0.48645721  0.96294632  1  1.560546  0  0.216671  0.593307  0  4.231939  0
C  C155  1  0.81540185  0.01354222  0.03705920  1  1.560728  0  0.216554  0.593454  0  4.23201  0
C  C156  1  0.31540403  0.48645765  0.53706034  1  1.560683  0  0.216644  0.593524  0  4.231917  0
C  C157  1  0.81540180  0.01354331  0.46294115  1  1.560725  0  0.21662  0.593576  0  4.231793  0
C  C158  1  0.68459520  0.51353760  0.03705825  1  1.561054  0  0.216627  0.593386  0  4.231846  0
C  C159  1  0.18459172  0.98645949  0.96293909  1  1.560743  0  0.216753  0.593541  0  4.23204  0
C  C160  1  0.02508317  0.40250972  0.37294855  1  -0.035329  0  -0.145394  -0.264522  0  3.933963  0
C  C161  1  0.52507705  0.09749809  0.62704845  1  -0.035262  0  -0.145322  -0.264255  0  3.934115  0
C  C162  1  0.97492185  0.59749348  0.87295008  1  -0.035156  0  -0.145362  -0.264554  0  3.933988  0
C  C163  1  0.47491950  0.90250291  0.12705040  1  -0.034953  0  -0.145358  -0.264362  0  3.934101  0
C  C164  1  0.97492564  0.59750276  0.62705154  1  -0.034909  0  -0.145334  -0.264371  0  3.933952  0
C  C165  1  0.47492373  0.90250056  0.37294715  1  -0.034938  0  -0.145374  -0.26438  0  3.934001  0
C  C166  1  0.02508054  0.40250132  0.12704866  1  -0.035038  0  -0.145382  -0.264366  0  3.933936  0
C  C167  1  0.52507727  0.09750265  0.87295103  1  -0.034871  0  -0.145318  -0.264325  0  3.934229  0
C  C168  1  0.10574525  0.46971755  0.40793529  1  0.011427  0  -0.160788  -0.075103  0  3.911804  0
C  C169  1  0.60573997  0.03029195  0.59206163  1  0.011207  0  -0.160836  -0.075351  0  3.912052  0
C  C170  1  0.89425628  0.53028367  0.90793675  1  0.011311  0  -0.160779  -0.075126  0  3.911805  0
C  C171  1  0.39425606  0.96971181  0.09206336  1  0.011177  0  -0.160789  -0.075332  0  3.912118  0
C  C172  1  0.89426036  0.53029109  0.59206390  1  0.011148  0  -0.160868  -0.075435  0  3.911944  0
C  C173  1  0.39426082  0.96970977  0.40793442  1  0.011153  0  -0.160855  -0.07531  0  3.911987  0
C  C174  1  0.10574531  0.46971113  0.09206289  1  0.011164  0  -0.160745  -0.075334  0  3.912024  0
C  C175  1  0.60573991  0.03029222  0.90793897  1  0.011157  0  -0.160804  -0.075319  0  3.911982  0
C  C176  1  0.20733707  0.49218730  0.37225229  1  -0.055558  0  -0.246551  -0.351646  0  3.950008  0
C  C177  1  0.70733491  0.00782064  0.62774287  1  -0.055054  0  -0.246494  -0.351399  0  3.95013  0
C  C178  1  0.79266313  0.50781514  0.87225382  1  -0.055156  0  -0.246521  -0.351534  0  3.950063  0
C  C179  1  0.29266165  0.99218266  0.12774448  1  -0.055126  0  -0.246543  -0.351462  0  3.95016  0
C  C180  1  0.79266854  0.50781903  0.62774466  1  -0.055022  0  -0.246495  -0.351421  0  3.950311  0
C  C181  1  0.29266748  0.99218108  0.37225273  1  -0.053427  0  -0.246548  -0.351474  0  3.950153  0
C  C182  1  0.20733686  0.49218274  0.12774537  1  -0.055503  0  -0.24651  -0.351405  0  3.950078  0
C  C183  1  0.70733432  0.00782060  0.87225696  1  -0.054999  0  -0.246449  -0.351271  0  3.950077  0
C  C184  1  0.05688162  0.17141874  0.63395018  1  1.593667  0  0.216094  0.482254  0  4.262967  0
C  C185  1  0.55688897  0.32858345  0.36605593  1  1.593459  0  0.21631  0.482497  0  4.262407  0
C  C186  1  0.94315276  0.82857372  0.13394163  1  1.592744  0  0.216455  0.482759  0  4.262455  0
C  C187  1  0.44311514  0.67141293  0.86606364  1  1.59336  0  0.216087  0.482256  0  4.262793  0
C  C188  1  0.94312399  0.82858759  0.36605394  1  1.593386  0  0.216427  0.482674  0  4.262218  0
C  C189  1  0.44312546  0.67141289  0.63394415  1  1.59335  0  0.216479  0.482906  0  4.261727  0
C  C190  1  0.05686969  0.17142185  0.86605666  1  1.593289  0  0.216277  0.482549  0  4.262353  0
C  C191  1  0.55686317  0.32857957  0.13394721  1  1.593596  0  0.216285  0.482326  0  4.262635  0
C  C192  1  0.07418789  0.28210577  0.60948817  1  1.59629  0  0.219643  0.48605  0  4.237322  0
C  C193  1  0.57419894  0.21788706  0.39051489  1  1.596443  0  0.219548  0.485954  0  4.237174  0
C  C194  1  0.92582766  0.71789008  0.10947778  1  1.596526  0  0.219662  0.485837  0  4.237618  0
C  C195  1  0.42579752  0.78210439  0.89052068  1  1.596973  0  0.219604  0.485976  0  4.237173  0
C  C196  1  0.92581771  0.71789748  0.39051282  1  1.596801  0  0.219647  0.48606  0  4.237378  0
C  C197  1  0.42581068  0.78210544  0.60948295  1  1.596357  0  0.2196  0.485819  0  4.237344  0
C  C198  1  0.07418837  0.28210780  0.89051962  1  1.596239  0  0.219675  0.485994  0  4.237373  0
C  C199  1  0.57418883  0.21789195  0.10948613  1  1.596342  0  0.21958  0.48592  0  4.237264  0
C  C200  1  0.22588475  0.55187704  0.74999894  1  1.532758  0  0.149014  0.529132  0  4.231001  0
C  C201  1  0.72591347  0.94813126  0.24999366  1  1.533274  0  0.148905  0.528933  0  4.23054  0
C  C202  1  0.77409517  0.44812391  0.25000204  1  1.532602  0  0.148948  0.528903  0  4.230679  0
C  C203  1  0.27409213  0.05186892  0.75000329  1  1.533413  0  0.148905  0.528843  0  4.230544  0
N  N204  1  0.89886795  0.31862035  0.44703359  1  -1.206389  0  -0.423289  -0.490772  0  3.41535  0
N  N205  1  0.39886172  0.18137998  0.55296067  1  -1.206296  0  -0.423267  -0.490681  0  3.415113  0
N  N206  1  0.10113174  0.68137959  0.94703741  1  -1.206211  0  -0.423282  -0.49072  0  3.415136  0
N  N207  1  0.60113694  0.81861583  0.05296716  1  -1.206398  0  -0.423324  -0.490783  0  3.415225  0
N  N208  1  0.10113685  0.68138522  0.55296470  1  -1.206517  0  -0.423297  -0.490711  0  3.415153  0
N  N209  1  0.60113585  0.81861866  0.44703673  1  -1.206233  0  -0.423274  -0.490648  0  3.414983  0
N  N210  1  0.89886423  0.31861521  0.05296178  1  -1.205814  0  -0.423364  -0.490813  0  3.415208  0
N  N211  1  0.39885903  0.18138204  0.94703293  1  -1.206306  0  -0.423324  -0.490856  0  3.41514  0
N  N212  1  0.84818291  0.46662154  0.40863980  1  -1.275653  0  -0.355846  -0.251213  0  3.568388  0
N  N213  1  0.34817527  0.03338533  0.59135871  1  -1.275342  0  -0.355894  -0.251483  0  3.568386  0
N  N214  1  0.15182183  0.53338043  0.90864496  1  -1.275781  0  -0.355936  -0.25155  0  3.568594  0
N  N215  1  0.65181996  0.96661691  0.09135851  1  -1.27561  0  -0.355808  -0.251193  0  3.568499  0
N  N216  1  0.15182269  0.53338710  0.59135984  1  -1.27529  0  -0.355799  -0.251273  0  3.568525  0
N  N217  1  0.65182231  0.96661486  0.40864003  1  -1.27553  0  -0.355813  -0.251352  0  3.568439  0
N  N218  1  0.84817735  0.46661667  0.09135558  1  -1.275306  0  -0.355931  -0.251507  0  3.568483  0
N  N219  1  0.34817441  0.03338635  0.90863978  1  -1.275381  0  -0.355875  -0.251429  0  3.568488  0
O  O220  1  0.82807100  0.21606793  0.54545002  1  -1.177056  0  -0.381297  -0.616287  0  2.216093  0
O  O221  1  0.32806567  0.28393678  0.45454390  1  -1.177258  0  -0.381334  -0.616304  0  2.216217  0
O  O222  1  0.17193077  0.78393105  0.04545467  1  -1.17724  0  -0.381222  -0.616178  0  2.216196  0
O  O223  1  0.67192772  0.71606383  0.95454844  1  -1.177129  0  -0.38133  -0.616382  0  2.215908  0
O  O224  1  0.17193380  0.78393225  0.45454468  1  -1.177116  0  -0.381317  -0.616375  0  2.216141  0
O  O225  1  0.67194234  0.71606494  0.54545574  1  -1.177111  0  -0.381281  -0.616258  0  2.216183  0
O  O226  1  0.82806440  0.21607067  0.95454138  1  -1.177225  0  -0.381269  -0.616239  0  2.216282  0
O  O227  1  0.32806344  0.28393251  0.04545299  1  -1.176973  0  -0.381271  -0.616268  0  2.2162  0
O  O228  1  0.66669271  0.29256098  0.54349680  1  -1.211914  0  -0.406182  -0.664347  0  2.29285  0
O  O229  1  0.16668804  0.20743575  0.45649458  1  -1.21198  0  -0.405973  -0.664072  0  2.293327  0
O  O230  1  0.33330181  0.70743034  0.04350927  1  -1.211702  0  -0.406158  -0.664407  0  2.292811  0
O  O231  1  0.83330297  0.79256868  0.95649819  1  -1.211913  0  -0.406081  -0.664223  0  2.292998  0
O  O232  1  0.33330969  0.70743920  0.45650015  1  -1.211993  0  -0.4061  -0.66419  0  2.292841  0
O  O233  1  0.83331596  0.79256597  0.54350058  1  -1.212087  0  -0.406102  -0.664223  0  2.293057  0
O  O234  1  0.66668694  0.29255831  0.95649755  1  -1.211931  0  -0.406151  -0.664306  0  2.292866  0
O  O235  1  0.16668818  0.20742766  0.04350145  1  -1.212108  0  -0.406019  -0.664117  0  2.293242  0
O  O236  1  0.61315945  0.49374147  0.50309325  1  -1.199736  0  -0.436064  -0.718569  0  2.404363  0
O  O237  1  0.11315545  0.00625798  0.49690146  1  -1.200897  0  -0.43603  -0.718534  0  2.404425  0
O  O238  1  0.38684248  0.50625422  0.00310147  1  -1.19992  0  -0.436002  -0.718323  0  2.404366  0
O  O239  1  0.88684418  0.99374055  0.99690803  1  -1.199855  0  -0.435967  -0.718444  0  2.404592  0
O  O240  1  0.38684775  0.50626179  0.49690953  1  -1.200804  0  -0.43601  -0.718492  0  2.404619  0
O  O241  1  0.88684453  0.99374297  0.50309459  1  -1.199866  0  -0.435995  -0.718553  0  2.404518  0
O  O242  1  0.61314867  0.49373904  0.99690490  1  -1.200937  0  -0.436036  -0.71842  0  2.404221  0
O  O243  1  0.11315179  0.00625964  0.00309116  1  -1.200785  0  -0.43607  -0.718568  0  2.40468  0
O  O244  1  0.68163427  0.59813929  0.43429209  1  -1.177523  0  -0.338196  -0.586393  0  2.257095  0
O  O245  1  0.18163201  0.90186551  0.56570479  1  -1.177926  0  -0.338194  -0.586342  0  2.25703  0
O  O246  1  0.31836925  0.40186620  0.93429726  1  -1.177605  0  -0.338196  -0.586268  0  2.257003  0
O  O247  1  0.81836042  0.09813782  0.06570425  1  -1.177757  0  -0.33816  -0.586355  0  2.257066  0
O  O248  1  0.31836331  0.40186012  0.56570486  1  -1.177702  0  -0.338177  -0.58636  0  2.256931  0
O  O249  1  0.81836637  0.09813698  0.43429351  1  -1.177785  0  -0.338206  -0.586408  0  2.257026  0
O  O250  1  0.68163153  0.59813168  0.06570597  1  -1.177884  0  -0.338208  -0.5863  0  2.256953  0
O  O251  1  0.18162993  0.90186390  0.93429360  1  -1.177702  0  -0.338223  -0.586386  0  2.257207  0
O  O252  1  0.08040816  0.15542524  0.68778339  1  -1.167859  0  -0.348871  -0.572135  0  2.315001  0
O  O253  1  0.58042822  0.34457138  0.31221745  1  -1.167694  0  -0.349045  -0.5723  0  2.314282  0
O  O254  1  0.91964387  0.84455883  0.18779260  1  -1.166998  0  -0.349139  -0.572572  0  2.314024  0
O  O255  1  0.41958392  0.65542338  0.81222332  1  -1.167347  0  -0.349004  -0.572345  0  2.314452  0
O  O256  1  0.91958862  0.84457878  0.31221087  1  -1.16744  0  -0.349045  -0.572411  0  2.31401  0
O  O257  1  0.41958219  0.65542342  0.68779295  1  -1.167386  0  -0.349174  -0.572677  0  2.31354  0
O  O258  1  0.08040106  0.15542982  0.81221421  1  -1.167559  0  -0.349023  -0.572453  0  2.314041  0
O  O259  1  0.58038557  0.34456911  0.18778663  1  -1.167508  0  -0.348999  -0.572295  0  2.314522  0
O  O260  1  0.01939332  0.10554288  0.59699875  1  -1.191594  0  -0.353419  -0.593022  0  2.350305  0
O  O261  1  0.51939506  0.39444884  0.40300316  1  -1.19168  0  -0.353516  -0.593107  0  2.350771  0
O  O262  1  0.98062525  0.89444468  0.09700219  1  -1.191861  0  -0.353523  -0.593051  0  2.351071  0
O  O263  1  0.48060880  0.60554552  0.90300953  1  -1.192077  0  -0.353303  -0.592825  0  2.350766  0
O  O264  1  0.98061228  0.89445577  0.40299641  1  -1.191732  0  -0.353596  -0.593123  0  2.350799  0
O  O265  1  0.48061535  0.60555288  0.59700590  1  -1.191581  0  -0.353547  -0.593093  0  2.351009  0
O  O266  1  0.01937553  0.10555320  0.90299745  1  -1.191771  0  -0.353515  -0.593004  0  2.350818  0
O  O267  1  0.51937032  0.39444851  0.09699952  1  -1.191792  0  -0.353486  -0.592904  0  2.350588  0
O  O268  1  0.05371876  0.29974038  0.55525267  1  -1.176131  0  -0.363697  -0.576916  0  2.322722  0
O  O269  1  0.55372193  0.20025260  0.44474939  1  -1.176213  0  -0.36359  -0.576849  0  2.32274  0
O  O270  1  0.94627994  0.70025924  0.05525277  1  -1.176471  0  -0.363623  -0.5767  0  2.323561  0
O  O271  1  0.44627052  0.79973968  0.94475745  1  -1.176449  0  -0.363588  -0.576832  0  2.322543  0
O  O272  1  0.94628604  0.70026364  0.44474383  1  -1.176601  0  -0.363701  -0.576924  0  2.323073  0
O  O273  1  0.44627485  0.79973682  0.55525832  1  -1.176634  0  -0.363483  -0.576587  0  2.32349  0
O  O274  1  0.05372566  0.29974017  0.94474731  1  -1.176362  0  -0.363546  -0.576714  0  2.323272  0
O  O275  1  0.55372144  0.20025666  0.05525072  1  -1.176239  0  -0.363622  -0.576822  0  2.322769  0
O  O276  1  0.10786927  0.34767110  0.64755361  1  -1.185712  0  -0.353616  -0.578882  0  2.338229  0
O  O277  1  0.60788189  0.15232378  0.35244422  1  -1.185643  0  -0.353638  -0.578833  0  2.338105  0
O  O278  1  0.89213401  0.65231888  0.14755457  1  -1.185129  0  -0.353728  -0.578985  0  2.337588  0
O  O279  1  0.39210918  0.84766662  0.85245226  1  -1.18579  0  -0.353752  -0.578896  0  2.338253  0
O  O280  1  0.89213473  0.65232908  0.35244154  1  -1.185691  0  -0.35365  -0.57898  0  2.338046  0
O  O281  1  0.39212050  0.84767717  0.64756080  1  -1.185299  0  -0.353795  -0.579063  0  2.337621  0
O  O282  1  0.10788523  0.34767362  0.85244597  1  -1.185175  0  -0.353794  -0.57904  0  2.337799  0
O  O283  1  0.60787957  0.15232664  0.14755411  1  -1.185719  0  -0.353669  -0.578867  0  2.338138  0
O  O284  1  0.15567194  0.48109769  0.74999311  1  -1.211167  0  -0.407989  -0.625837  0  2.289449  0
O  O285  1  0.65569539  0.01890912  0.24999643  1  -1.211385  0  -0.407946  -0.625929  0  2.289466  0
O  O286  1  0.84431761  0.51890250  0.25001281  1  -1.210801  0  -0.40801  -0.625861  0  2.289099  0
O  O287  1  0.34431102  0.98108261  0.75000859  1  -1.211515  0  -0.40799  -0.625922  0  2.289325  0
O  O288  1  0.20482347  0.64747651  0.75000182  1  -1.201197  0  -0.413226  -0.631187  0  2.268492  0
O  O289  1  0.70485699  0.85253119  0.24998799  1  -1.200932  0  -0.413155  -0.631029  0  2.268225  0
O  O290  1  0.79515404  0.35252906  0.24999737  1  -1.201122  0  -0.413185  -0.631059  0  2.268467  0
O  O291  1  0.29514941  0.14746438  0.75000313  1  -1.201178  0  -0.413101  -0.630922  0  2.268285  0
O  O292  1  0.02539747  0.09623405  0.38183492  1  -1.224569  0  -0.610401  -0.817877  0  2.02602  0
O  O293  1  0.52539349  0.40376992  0.61815983  1  -1.225087  0  -0.610366  -0.81779  0  2.02582  0
O  O294  1  0.97459805  0.90376827  0.88183467  1  -1.22502  0  -0.610403  -0.817956  0  2.025908  0
O  O295  1  0.47460373  0.59623120  0.11816851  1  -1.224462  0  -0.610417  -0.817887  0  2.025895  0
O  O296  1  0.97459850  0.90376306  0.61816337  1  -1.224908  0  -0.610416  -0.817895  0  2.02596  0
O  O297  1  0.47460248  0.59623180  0.38183846  1  -1.225067  0  -0.610402  -0.817921  0  2.025825  0
O  O298  1  0.02539712  0.09622653  0.11816139  1  -1.225034  0  -0.610361  -0.817808  0  2.025944  0
O  O299  1  0.52539144  0.40376821  0.88183651  1  -1.225127  0  -0.610268  -0.817623  0  2.0261  0
O  O300  1  0.32202531  0.33735751  0.68039263  1  -1.252747  0  -0.632272  -0.849018  0  2.035733  0
O  O301  1  0.82203335  0.16263725  0.31960620  1  -1.252643  0  -0.632308  -0.848904  0  2.035787  0
O  O302  1  0.67798087  0.66263204  0.18039254  1  -1.252738  0  -0.632258  -0.849005  0  2.035866  0
O  O303  1  0.17796285  0.83736357  0.81960656  1  -1.252577  0  -0.632375  -0.849001  0  2.035869  0
O  O304  1  0.67797708  0.66264267  0.31960566  1  -1.252824  0  -0.632302  -0.849094  0  2.035712  0
O  O305  1  0.17797386  0.83736293  0.68039523  1  -1.252675  0  -0.632331  -0.848992  0  2.035708  0
O  O306  1  0.32202794  0.33737199  0.81960530  1  -1.252664  0  -0.632313  -0.848959  0  2.035802  0
O  O307  1  0.82203232  0.16264200  0.18039084  1  -1.252698  0  -0.632348  -0.849033  0  2.035647  0
O  O308  1  0.95919038  0.33173868  0.75000293  1  -1.215651  0  -0.577888  -0.786026  0  2.012051  0
O  O309  1  0.45919822  0.16825581  0.25000416  1  -1.215224  0  -0.577844  -0.786069  0  2.012084  0
O  O310  1  0.04082165  0.66825382  0.25000254  1  -1.215272  0  -0.577984  -0.786097  0  2.011935  0
O  O311  1  0.54080418  0.83173361  0.75000489  1  -1.215227  0  -0.577883  -0.785962  0  2.012042  0
