# generated using pymatgen
data_AgH5C10NO2F3
_symmetry_space_group_name_H-M   'P 1'
_cell_length_a   4.50706435
_cell_length_b   11.35761330
_cell_length_c   19.26657218
_cell_angle_alpha   101.34551129
_cell_angle_beta   89.99999652
_cell_angle_gamma   89.99987273
_symmetry_Int_Tables_number   1
_chemical_formula_structural   AgH5C10NO2F3
_chemical_formula_sum   'Ag4 H20 C40 N4 O8 F12'
_cell_volume   966.97355525
_cell_formula_units_Z   4
loop_
 _symmetry_equiv_pos_site_id
 _symmetry_equiv_pos_as_xyz
  1  'x, y, z'
loop_
 _atom_site_type_symbol
 _atom_site_label
 _atom_site_symmetry_multiplicity
 _atom_site_fract_x
 _atom_site_fract_y
 _atom_site_fract_z
 _atom_site_occupancy
 _atom_site_hle17_bader_spin_density
 _atom_site_hle17_ddec_charge
 _atom_site_hle17_ddec_spin_density
 _atom_site_hle17_ddec_sum_bond_order
 _atom_site_hle17_magmom
 _atom_site_hse06_10hf_bader_spin_density
 _atom_site_hse06_10hf_ddec_charge
 _atom_site_hse06_10hf_ddec_spin_density
 _atom_site_hse06_10hf_ddec_sum_bond_order
 _atom_site_hse06_10hf_magmom
 _atom_site_hse06_bader_spin_density
 _atom_site_hse06_ddec_charge
 _atom_site_hse06_ddec_spin_density
 _atom_site_hse06_ddec_sum_bond_order
 _atom_site_hse06_magmom
 _atom_site_pbe_bader_spin_density
 _atom_site_pbe_cm5_charge
 _atom_site_pbe_ddec_charge
 _atom_site_pbe_ddec_spin_density
 _atom_site_pbe_ddec_sum_bond_order
 _atom_site_pbe_magmom
Ag  Ag0  1  0.76245698  0.55720907  0.56086782  1  0  0.610738  0  1.360151  0  0  0.481823  0  1.786492  0  0  0.510877  0  1.740649  0  0  0.45797  0.461266  0  1.818258  0
Ag  Ag1  1  0.26247326  0.44279506  0.93913385  1  0  0.610813  0  1.360078  0  0  0.481895  0  1.786404  0  0  0.510951  0  1.740562  0  0  0.457994  0.461337  0  1.818167  0
Ag  Ag2  1  0.23753026  0.44279414  0.43913495  1  0  0.6108  0  1.360041  0  0  0.481889  0  1.786373  0  0  0.510943  0  1.740534  0  0  0.457996  0.461329  0  1.81813  0
Ag  Ag3  1  0.73753173  0.55720635  0.06086509  1  0  0.610809  0  1.360118  0  0  0.481885  0  1.786452  0  0  0.510939  0  1.740611  0  0  0.457999  0.461326  0  1.818208  0
H  H4  1  0.29367482  0.65830440  0.67476441  1  0  0.116174  0  0.941896  0  0  0.122259  0  1.007432  0  0  0.126503  0  1.003157  0  0  0.100824  0.119126  0  1.010654  0
H  H5  1  0.79367964  0.34169521  0.82523571  1  0  0.116163  0  0.941925  0  0  0.122251  0  1.007443  0  0  0.126503  0  1.00316  0  0  0.100803  0.119116  0  1.010668  0
H  H6  1  0.70631907  0.34169612  0.32523702  1  0  0.116095  0  0.94197  0  0  0.122209  0  1.007458  0  0  0.126455  0  1.003182  0  0  0.100786  0.119073  0  1.01068  0
H  H7  1  0.20631869  0.65830620  0.17476375  1  0  0.116182  0  0.941895  0  0  0.122275  0  1.007401  0  0  0.126527  0  1.003117  0  0  0.100811  0.11914  0  1.010625  0
H  H8  1  0.65630069  0.80517022  0.74173586  1  0  0.092025  0  0.963595  0  0  0.097615  0  1.031886  0  0  0.101016  0  1.02961  0  0  0.091323  0.095156  0  1.033638  0
H  H9  1  0.15630509  0.19482682  0.75826397  1  0  0.092103  0  0.96355  0  0  0.097721  0  1.031811  0  0  0.101123  0  1.029529  0  0  0.091391  0.095262  0  1.033566  0
H  H10  1  0.34369321  0.19482940  0.25826547  1  0  0.092034  0  0.963598  0  0  0.097631  0  1.031876  0  0  0.101031  0  1.0296  0  0  0.091339  0.095172  0  1.033627  0
H  H11  1  0.84369325  0.80517369  0.24173539  1  0  0.092067  0  0.963561  0  0  0.097649  0  1.031862  0  0  0.101049  0  1.029586  0  0  0.091369  0.095192  0  1.033614  0
H  H12  1  0.79860568  0.98841784  0.69943645  1  0  0.091111  0  0.958333  0  0  0.102728  0  1.017648  0  0  0.104797  0  1.018256  0  0  0.097267  0.10123  0  1.017301  0
H  H13  1  0.29860665  0.01157907  0.80056335  1  0  0.091236  0  0.958332  0  0  0.102822  0  1.017656  0  0  0.104911  0  1.018243  0  0  0.097314  0.101321  0  1.017321  0
H  H14  1  0.20139488  0.01158088  0.30056373  1  0  0.091151  0  0.958308  0  0  0.102733  0  1.017663  0  0  0.104801  0  1.018273  0  0  0.09728  0.101237  0  1.017317  0
H  H15  1  0.70139169  0.98842144  0.19943600  1  0  0.091182  0  0.958341  0  0  0.102764  0  1.017675  0  0  0.104848  0  1.018266  0  0  0.097294  0.101264  0  1.017336  0
H  H16  1  0.58854701  0.03218857  0.58627554  1  0  0.123425  0  0.961967  0  0  0.12708  0  1.03232  0  0  0.131361  0  1.028695  0  0  0.102986  0.123972  0  1.034998  0
H  H17  1  0.08854706  0.96780853  0.91372481  1  0  0.123386  0  0.961987  0  0  0.127052  0  1.032319  0  0  0.131336  0  1.028699  0  0  0.102997  0.123944  0  1.034996  0
H  H18  1  0.41145798  0.96780745  0.41372381  1  0  0.123403  0  0.961983  0  0  0.12706  0  1.032319  0  0  0.131345  0  1.028694  0  0  0.102993  0.123953  0  1.034996  0
H  H19  1  0.91145571  0.03219288  0.08627569  1  0  0.123366  0  0.962002  0  0  0.127031  0  1.032331  0  0  0.131317  0  1.02871  0  0  0.102988  0.123923  0  1.035006  0
H  H20  1  0.82774042  0.82913293  0.40592867  1  0  0.139424  0  0.954645  0  0  0.146113  0  1.022796  0  0  0.149992  0  1.022161  0  0  0.104564  0.143383  0  1.023423  0
H  H21  1  0.32774500  0.17086928  0.09407260  1  0  0.139508  0  0.95453  0  0  0.146163  0  1.022711  0  0  0.150042  0  1.022076  0  0  0.104583  0.14343  0  1.023338  0
H  H22  1  0.17226013  0.17086669  0.59407161  1  0  0.139495  0  0.954565  0  0  0.146163  0  1.022735  0  0  0.150041  0  1.022102  0  0  0.104585  0.143432  0  1.023361  0
H  H23  1  0.67225999  0.82913303  0.90592851  1  0  0.13943  0  0.954641  0  0  0.146121  0  1.022788  0  0  0.149999  0  1.022156  0  0  0.104564  0.14339  0  1.023415  0
C  C24  1  0.32358729  0.86980294  0.57055918  1  0  0.186683  0  3.768123  0  0  0.175889  0  4.02562  0  0  0.18147  0  4.044967  0  0  0.075922  0.172032  0  4.01249  0
C  C25  1  0.82358660  0.13019395  0.92944062  1  0  0.186505  0  3.768309  0  0  0.175848  0  4.025664  0  0  0.181418  0  4.045012  0  0  0.07593  0.171991  0  4.012532  0
C  C26  1  0.67641548  0.13019399  0.42944027  1  0  0.186477  0  3.768354  0  0  0.175799  0  4.025711  0  0  0.181366  0  4.04506  0  0  0.075979  0.17194  0  4.012582  0
C  C27  1  0.17641173  0.86980566  0.07055915  1  0  0.186492  0  3.768282  0  0  0.175828  0  4.025671  0  0  0.181395  0  4.045021  0  0  0.075907  0.171971  0  4.01254  0
C  C28  1  0.24062671  0.76453454  0.59326061  1  0  0.124597  0  3.893983  0  0  0.119336  0  4.138519  0  0  0.122107  0  4.16435  0  0  0.071865  0.117412  0  4.12091  0
C  C29  1  0.74062766  0.23546332  0.90673775  1  0  0.124839  0  3.893987  0  0  0.119427  0  4.138643  0  0  0.122198  0  4.164479  0  0  0.071931  0.117502  0  4.121034  0
C  C30  1  0.75937163  0.23546418  0.40673853  1  0  0.124755  0  3.894036  0  0  0.119417  0  4.138625  0  0  0.122186  0  4.164461  0  0  0.071893  0.117492  0  4.121014  0
C  C31  1  0.25937068  0.76453719  0.09326108  1  0  0.12479  0  3.894015  0  0  0.119392  0  4.138661  0  0  0.122162  0  4.164497  0  0  0.071912  0.117468  0  4.12105  0
C  C32  1  0.35934484  0.73858932  0.65561071  1  0  -0.159395  0  3.771087  0  0  -0.175502  0  4.033929  0  0  -0.178102  0  4.051909  0  0  -0.102204  -0.173609  0  4.021793  0
C  C33  1  0.85935676  0.26140933  0.84439033  1  0  -0.159501  0  3.771192  0  0  -0.175567  0  4.03408  0  0  -0.178175  0  4.052056  0  0  -0.102257  -0.173674  0  4.021947  0
C  C34  1  0.64064240  0.26141030  0.34439165  1  0  -0.159357  0  3.771269  0  0  -0.175465  0  4.034115  0  0  -0.178066  0  4.052095  0  0  -0.102195  -0.173568  0  4.021976  0
C  C35  1  0.14064823  0.73859208  0.15560964  1  0  -0.159481  0  3.771157  0  0  -0.175551  0  4.03403  0  0  -0.178157  0  4.052006  0  0  -0.102227  -0.173657  0  4.021896  0
C  C36  1  0.55859847  0.82219279  0.69300968  1  0  -0.070985  0  3.778087  0  0  -0.091314  0  4.041163  0  0  -0.093612  0  4.063217  0  0  -0.09993  -0.089783  0  4.0262  0
C  C37  1  0.05860295  0.17780344  0.80698850  1  0  -0.071041  0  3.77812  0  0  -0.091403  0  4.041198  0  0  -0.093703  0  4.063261  0  0  -0.099981  -0.089872  0  4.026238  0
C  C38  1  0.44139764  0.17780503  0.30698988  1  0  -0.071074  0  3.778192  0  0  -0.091407  0  4.04126  0  0  -0.093704  0  4.063315  0  0  -0.099971  -0.089874  0  4.026296  0
C  C39  1  0.94139760  0.82219617  0.19301075  1  0  -0.071015  0  3.778189  0  0  -0.091351  0  4.041275  0  0  -0.093648  0  4.063334  0  0  -0.099982  -0.089821  0  4.026315  0
C  C40  1  0.64045413  0.92645866  0.66879881  1  0  -0.059605  0  3.752212  0  0  -0.074765  0  4.006859  0  0  -0.077193  0  4.030408  0  0  -0.095723  -0.073101  0  3.990894  0
C  C41  1  0.14045697  0.07353750  0.83120195  1  0  -0.059772  0  3.752478  0  0  -0.074925  0  4.007176  0  0  -0.077367  0  4.030722  0  0  -0.095787  -0.073262  0  3.991207  0
C  C42  1  0.35954421  0.07353916  0.33120231  1  0  -0.059595  0  3.75233  0  0  -0.074736  0  4.007005  0  0  -0.077163  0  4.030557  0  0  -0.095725  -0.07307  0  3.991033  0
C  C43  1  0.85954137  0.92646212  0.16879834  1  0  -0.059697  0  3.752398  0  0  -0.074832  0  4.007061  0  0  -0.07727  0  4.030607  0  0  -0.095743  -0.073171  0  3.991097  0
C  C44  1  0.52388595  0.95265516  0.60610131  1  0  -0.158905  0  3.732326  0  0  -0.183394  0  3.992625  0  0  -0.185606  0  4.010015  0  0  -0.102723  -0.181746  0  3.980828  0
C  C45  1  0.02388448  0.04734201  0.89389853  1  0  -0.158741  0  3.732502  0  0  -0.183265  0  3.992751  0  0  -0.185487  0  4.010159  0  0  -0.1027  -0.181619  0  3.980962  0
C  C46  1  0.47611683  0.04734176  0.39389815  1  0  -0.15881  0  3.732491  0  0  -0.183324  0  3.992741  0  0  -0.185541  0  4.010141  0  0  -0.10273  -0.18168  0  3.980957  0
C  C47  1  0.97611386  0.95265851  0.10610186  1  0  -0.158752  0  3.732441  0  0  -0.183256  0  3.99267  0  0  -0.18548  0  4.010079  0  0  -0.102702  -0.18161  0  3.980878  0
C  C48  1  0.99892961  0.77007135  0.49555864  1  0  0.474002  0  3.72486  0  0  0.440628  0  4.00504  0  0  0.468052  0  4.010112  0  0  0.209696  0.422475  0  4.000896  0
C  C49  1  0.49892944  0.22992711  0.00444116  1  0  0.47396  0  3.72491  0  0  0.440544  0  4.005114  0  0  0.46796  0  4.010186  0  0  0.209641  0.42239  0  4.000967  0
C  C50  1  0.00107094  0.22992737  0.50444207  1  0  0.473973  0  3.724731  0  0  0.440594  0  4.004917  0  0  0.46801  0  4.009987  0  0  0.209659  0.422441  0  4.000767  0
C  C51  1  0.50107111  0.77007251  0.99555860  1  0  0.473989  0  3.724787  0  0  0.440618  0  4.004958  0  0  0.468033  0  4.010028  0  0  0.209668  0.422465  0  4.00081  0
C  C52  1  0.81929167  0.75532133  0.43426854  1  0  -0.370311  0  3.768229  0  0  -0.418985  0  4.060332  0  0  -0.436867  0  4.076981  0  0  -0.152881  -0.407173  0  4.048791  0
C  C53  1  0.31929584  0.24467998  0.06573159  1  0  -0.37038  0  3.76824  0  0  -0.41899  0  4.06035  0  0  -0.436873  0  4.077  0  0  -0.152851  -0.407176  0  4.048809  0
C  C54  1  0.18070667  0.24468008  0.56573299  1  0  -0.370411  0  3.768148  0  0  -0.419048  0  4.060267  0  0  -0.436934  0  4.076921  0  0  -0.152878  -0.407233  0  4.048727  0
C  C55  1  0.68070915  0.75532143  0.93426890  1  0  -0.370352  0  3.768229  0  0  -0.41903  0  4.06033  0  0  -0.436914  0  4.076984  0  0  -0.152898  -0.407215  0  4.048787  0
C  C56  1  0.64697357  0.65662552  0.40679834  1  0  0.224432  0  3.915253  0  0  0.20807  0  4.176349  0  0  0.226871  0  4.187731  0  0  0.075284  0.195774  0  4.168206  0
C  C57  1  0.14697940  0.34337416  0.09320161  1  0  0.224473  0  3.915205  0  0  0.208078  0  4.176303  0  0  0.226887  0  4.187695  0  0  0.075281  0.195778  0  4.168167  0
C  C58  1  0.35302255  0.34337590  0.59320319  1  0  0.224402  0  3.91543  0  0  0.207952  0  4.176474  0  0  0.226751  0  4.187857  0  0  0.075197  0.195646  0  4.168339  0
C  C59  1  0.85302559  0.65662635  0.90679774  1  0  0.224465  0  3.915169  0  0  0.208107  0  4.176262  0  0  0.226905  0  4.187641  0  0  0.075296  0.195805  0  4.168121  0
C  C60  1  0.48997116  0.65820916  0.33613957  1  0  0.719713  0  3.625068  0  0  0.645743  0  3.963208  0  0  0.675132  0  3.936311  0  0  0.29481  0.624755  0  3.982397  0
C  C61  1  0.98997380  0.34179289  0.16386064  1  0  0.719736  0  3.625165  0  0  0.645882  0  3.963139  0  0  0.675223  0  3.936321  0  0  0.294877  0.624896  0  3.982322  0
C  C62  1  0.51003383  0.34178956  0.66386061  1  0  0.71938  0  3.625686  0  0  0.64577  0  3.96327  0  0  0.675164  0  3.936363  0  0  0.29488  0.624778  0  3.982464  0
C  C63  1  0.01003119  0.65821032  0.83613954  1  0  0.7197  0  3.625061  0  0  0.645714  0  3.963231  0  0  0.675114  0  3.936315  0  0  0.294807  0.624729  0  3.982416  0
N  N64  1  0.03782969  0.70324438  0.54455136  1  0  -0.477227  0  3.257236  0  0  -0.40151  0  3.547899  0  0  -0.425892  0  3.558248  0  0  -0.373324  -0.384884  0  3.54035  0
N  N65  1  0.53783472  0.29675457  0.95544816  1  0  -0.477306  0  3.257272  0  0  -0.401523  0  3.547959  0  0  -0.425907  0  3.558312  0  0  -0.373341  -0.384898  0  3.540409  0
N  N66  1  0.96216421  0.29675434  0.45544934  1  0  -0.477224  0  3.25717  0  0  -0.401486  0  3.547843  0  0  -0.425871  0  3.558197  0  0  -0.373322  -0.384857  0  3.540286  0
N  N67  1  0.46216361  0.70324505  0.04455161  1  0  -0.477314  0  3.257303  0  0  -0.401532  0  3.547965  0  0  -0.425915  0  3.558317  0  0  -0.373341  -0.384905  0  3.540412  0
O  O68  1  0.17106894  0.87346143  0.50888793  1  0  -0.266065  0  2.276009  0  0  -0.193605  0  2.494908  0  0  -0.212092  0  2.497136  0  0  -0.119345  -0.1813  0  2.493254  0
O  O69  1  0.67106604  0.12653650  0.99111148  1  0  -0.266041  0  2.276126  0  0  -0.193586  0  2.494986  0  0  -0.212043  0  2.497191  0  0  -0.119333  -0.181281  0  2.493332  0
O  O70  1  0.82893383  0.12653549  0.49111153  1  0  -0.266005  0  2.275996  0  0  -0.193585  0  2.494886  0  0  -0.212034  0  2.497084  0  0  -0.119363  -0.181279  0  2.493233  0
O  O71  1  0.32893230  0.87346402  0.00888839  1  0  -0.265998  0  2.276001  0  0  -0.193602  0  2.494902  0  0  -0.212053  0  2.497104  0  0  -0.119327  -0.181295  0  2.493247  0
O  O72  1  0.61861392  0.55859338  0.43036223  1  0  -0.572273  0  2.251107  0  0  -0.491187  0  2.537188  0  0  -0.520263  0  2.527702  0  0  -0.337505  -0.470777  0  2.542914  0
O  O73  1  0.11861477  0.44140812  0.06963741  1  0  -0.572328  0  2.251019  0  0  -0.491219  0  2.537107  0  0  -0.520296  0  2.527615  0  0  -0.337541  -0.470803  0  2.542822  0
O  O74  1  0.38137776  0.44140894  0.56963941  1  0  -0.572163  0  2.2511  0  0  -0.491056  0  2.53718  0  0  -0.520132  0  2.527697  0  0  -0.337449  -0.470664  0  2.542961  0
O  O75  1  0.88138356  0.55859149  0.93036080  1  0  -0.572259  0  2.251032  0  0  -0.491156  0  2.537086  0  0  -0.520233  0  2.5276  0  0  -0.337481  -0.470761  0  2.542854  0
F  F76  1  0.40627113  0.77080251  0.32820225  1  0  -0.26551  0  1.176872  0  0  -0.211461  0  1.337138  0  0  -0.222253  0  1.323493  0  0  -0.09471  -0.203565  0  1.34654  0
F  F77  1  0.90626996  0.22920052  0.17179807  1  0  -0.265389  0  1.176862  0  0  -0.21146  0  1.337172  0  0  -0.222239  0  1.323545  0  0  -0.094703  -0.203565  0  1.346572  0
F  F78  1  0.59373830  0.22919620  0.67179533  1  0  -0.265337  0  1.177026  0  0  -0.21144  0  1.337219  0  0  -0.222231  0  1.323571  0  0  -0.0947  -0.203545  0  1.346622  0
F  F79  1  0.09373060  0.77080269  0.82820211  1  0  -0.265502  0  1.176932  0  0  -0.211446  0  1.337207  0  0  -0.222238  0  1.323559  0  0  -0.094707  -0.203551  0  1.346609  0
F  F80  1  0.24258416  0.58861988  0.32827303  1  0  -0.244441  0  1.231955  0  0  -0.212964  0  1.425699  0  0  -0.222453  0  1.407346  0  0  -0.100265  -0.205748  0  1.438131  0
F  F81  1  0.74258863  0.41138420  0.17172690  1  0  -0.244514  0  1.231984  0  0  -0.213048  0  1.425695  0  0  -0.222525  0  1.407358  0  0  -0.100305  -0.205835  0  1.438128  0
F  F82  1  0.75741861  0.41138063  0.67172580  1  0  -0.244385  0  1.232091  0  0  -0.212986  0  1.425711  0  0  -0.222473  0  1.407352  0  0  -0.100292  -0.205771  0  1.438147  0
F  F83  1  0.25741858  0.58862080  0.82827348  1  0  -0.244454  0  1.23193  0  0  -0.212974  0  1.425683  0  0  -0.222463  0  1.407323  0  0  -0.100267  -0.205761  0  1.438118  0
F  F84  1  0.66978013  0.61375305  0.27983929  1  0  -0.257659  0  1.17087  0  0  -0.212655  0  1.33517  0  0  -0.223908  0  1.31984  0  0  -0.103929  -0.204944  0  1.346037  0
F  F85  1  0.16978347  0.38624840  0.22016086  1  0  -0.257702  0  1.1709  0  0  -0.212702  0  1.335164  0  0  -0.223942  0  1.319847  0  0  -0.103956  -0.204992  0  1.346028  0
F  F86  1  0.33022930  0.38624477  0.72016183  1  0  -0.257556  0  1.170998  0  0  -0.212619  0  1.335181  0  0  -0.223879  0  1.319849  0  0  -0.103926  -0.204888  0  1.346026  0
F  F87  1  0.83022596  0.61375301  0.77983860  1  0  -0.257657  0  1.17086  0  0  -0.212655  0  1.335181  0  0  -0.223915  0  1.319846  0  0  -0.103934  -0.204934  0  1.346036  0
