# generated using pymatgen
data_ZnH6C5N8
_symmetry_space_group_name_H-M   'P 1'
_cell_length_a   4.72276795
_cell_length_b   9.83045969
_cell_length_c   16.94440648
_cell_angle_alpha   90.00065946
_cell_angle_beta   89.99966510
_cell_angle_gamma   92.62654723
_symmetry_Int_Tables_number   1
_chemical_formula_structural   ZnH6C5N8
_chemical_formula_sum   'Zn4 H24 C20 N32'
_cell_volume   785.85117183
_cell_formula_units_Z   4
loop_
 _symmetry_equiv_pos_site_id
 _symmetry_equiv_pos_as_xyz
  1  'x, y, z'
loop_
 _atom_site_type_symbol
 _atom_site_label
 _atom_site_symmetry_multiplicity
 _atom_site_fract_x
 _atom_site_fract_y
 _atom_site_fract_z
 _atom_site_occupancy
 _atom_site_hle17_bader_spin_density
 _atom_site_hle17_ddec_charge
 _atom_site_hle17_ddec_spin_density
 _atom_site_hle17_ddec_sum_bond_order
 _atom_site_hle17_magmom
 _atom_site_hse06_10hf_bader_spin_density
 _atom_site_hse06_10hf_ddec_charge
 _atom_site_hse06_10hf_ddec_spin_density
 _atom_site_hse06_10hf_ddec_sum_bond_order
 _atom_site_hse06_10hf_magmom
 _atom_site_hse06_bader_spin_density
 _atom_site_hse06_ddec_charge
 _atom_site_hse06_ddec_spin_density
 _atom_site_hse06_ddec_sum_bond_order
 _atom_site_hse06_magmom
 _atom_site_pbe_bader_spin_density
 _atom_site_pbe_cm5_charge
 _atom_site_pbe_ddec_charge
 _atom_site_pbe_ddec_spin_density
 _atom_site_pbe_ddec_sum_bond_order
 _atom_site_pbe_magmom
Zn  Zn0  1  0.74881670  0.89325515  0.35808979  1  0  0.934895  0  1.835607  0  0  0.719539  0  2.307707  0  0  0.764603  0  2.260539  0  0  0.777774  0.687871  0  2.340036  0
Zn  Zn1  1  0.25118053  0.60674804  0.85808340  1  0  0.934939  0  1.835491  0  0  0.719593  0  2.30756  0  0  0.764652  0  2.260392  0  0  0.777801  0.687922  0  2.339888  0
Zn  Zn2  1  0.25117554  0.10674681  0.64191220  1  0  0.934883  0  1.835614  0  0  0.719543  0  2.307697  0  0  0.764602  0  2.260528  0  0  0.777769  0.687871  0  2.340021  0
Zn  Zn3  1  0.74881578  0.39325285  0.14191623  1  0  0.934917  0  1.835593  0  0  0.719561  0  2.307715  0  0  0.764618  0  2.260545  0  0  0.777776  0.687889  0  2.340044  0
H  H4  1  0.10655196  0.67651586  0.12669206  1  0  0.103958  0  0.922692  0  0  0.116122  0  0.987992  0  0  0.117866  0  0.987147  0  0  0.101483  0.114855  0  0.988683  0
H  H5  1  0.89345432  0.82348223  0.62668357  1  0  0.104024  0  0.922592  0  0  0.116167  0  0.987925  0  0  0.117911  0  0.987078  0  0  0.101482  0.114896  0  0.988622  0
H  H6  1  0.89345233  0.32348185  0.87330934  1  0  0.103956  0  0.922682  0  0  0.116099  0  0.987997  0  0  0.117831  0  0.987145  0  0  0.101482  0.114832  0  0.988688  0
H  H7  1  0.10654491  0.17652371  0.37331606  1  0  0.103979  0  0.922679  0  0  0.116169  0  0.987921  0  0  0.117906  0  0.987071  0  0  0.101492  0.114873  0  0.988644  0
H  H8  1  0.22291385  0.77125113  0.21033109  1  0  0.099587  0  0.971719  0  0  0.106318  0  1.047676  0  0  0.107679  0  1.047844  0  0  0.102671  0.105464  0  1.047465  0
H  H9  1  0.77708741  0.72875268  0.71032689  1  0  0.099447  0  0.971787  0  0  0.106221  0  1.047689  0  0  0.107581  0  1.047857  0  0  0.102629  0.105374  0  1.047474  0
H  H10  1  0.77710244  0.22875559  0.78966618  1  0  0.099508  0  0.971769  0  0  0.106268  0  1.047638  0  0  0.107616  0  1.047806  0  0  0.102645  0.105418  0  1.047423  0
H  H11  1  0.22289865  0.27125039  0.28967393  1  0  0.099516  0  0.971785  0  0  0.106275  0  1.047685  0  0  0.107631  0  1.047847  0  0  0.102644  0.105415  0  1.047479  0
H  H12  1  0.93743102  0.96196802  0.17703668  1  0  0.06982  0  0.967205  0  0  0.082138  0  1.036989  0  0  0.082627  0  1.03849  0  0  0.090468  0.081772  0  1.035951  0
H  H13  1  0.06255709  0.53802596  0.67703413  1  0  0.069806  0  0.967087  0  0  0.082078  0  1.036936  0  0  0.082563  0  1.038445  0  0  0.090418  0.081715  0  1.035892  0
H  H14  1  0.06256091  0.03803191  0.82296177  1  0  0.069833  0  0.967158  0  0  0.082139  0  1.036956  0  0  0.08263  0  1.03846  0  0  0.090447  0.081772  0  1.035918  0
H  H15  1  0.93742558  0.46196901  0.32296492  1  0  0.06981  0  0.967185  0  0  0.082101  0  1.036993  0  0  0.082591  0  1.038497  0  0  0.090453  0.081736  0  1.035956  0
H  H16  1  0.15693393  0.92192425  0.09862573  1  0  0.079309  0  0.948332  0  0  0.097009  0  1.009279  0  0  0.097929  0  1.009612  0  0  0.097554  0.096308  0  1.009107  0
H  H17  1  0.84305032  0.57807399  0.59862519  1  0  0.079212  0  0.948306  0  0  0.096907  0  1.009274  0  0  0.097826  0  1.009608  0  0  0.097532  0.096207  0  1.009103  0
H  H18  1  0.84305799  0.07807568  0.90137331  1  0  0.079297  0  0.948293  0  0  0.096987  0  1.009258  0  0  0.097906  0  1.009594  0  0  0.097544  0.096286  0  1.009086  0
H  H19  1  0.15693331  0.42192708  0.40137622  1  0  0.079298  0  0.94834  0  0  0.097003  0  1.009274  0  0  0.097921  0  1.00961  0  0  0.097566  0.096303  0  1.009103  0
H  H20  1  0.52194771  0.84723689  0.11009682  1  0  0.090848  0  0.970641  0  0  0.107121  0  1.03296  0  0  0.10786  0  1.033537  0  0  0.099947  0.106528  0  1.032662  0
H  H21  1  0.47805631  0.65275010  0.61009383  1  0  0.090854  0  0.970664  0  0  0.107135  0  1.032934  0  0  0.107873  0  1.033509  0  0  0.099986  0.106541  0  1.032637  0
H  H22  1  0.47804892  0.15276603  0.88989928  1  0  0.090892  0  0.970569  0  0  0.107161  0  1.032871  0  0  0.107899  0  1.033448  0  0  0.099949  0.106567  0  1.032573  0
H  H23  1  0.52194490  0.34724154  0.38990758  1  0  0.090799  0  0.970695  0  0  0.107102  0  1.032968  0  0  0.107839  0  1.033544  0  0  0.09996  0.106509  0  1.03267  0
H  H24  1  0.68297330  0.97944088  0.05324048  1  0  0.104822  0  0.922468  0  0  0.118636  0  0.986884  0  0  0.119763  0  0.986461  0  0  0.104426  0.117718  0  0.987392  0
H  H25  1  0.31701283  0.52055118  0.55323535  1  0  0.104777  0  0.922399  0  0  0.118514  0  0.986883  0  0  0.119629  0  0.986463  0  0  0.104418  0.117603  0  0.987384  0
H  H26  1  0.31702935  0.02055992  0.94675621  1  0  0.104808  0  0.922465  0  0  0.118573  0  0.986918  0  0  0.119694  0  0.986499  0  0  0.104417  0.117659  0  0.987423  0
H  H27  1  0.68297016  0.47944581  0.44676664  1  0  0.104786  0  0.922425  0  0  0.118598  0  0.986835  0  0  0.119715  0  0.986414  0  0  0.104434  0.117685  0  0.98734  0
C  C28  1  0.80872233  0.68336248  0.21912967  1  0  0.380562  0  3.68751  0  0  0.352016  0  3.951894  0  0  0.367038  0  3.967428  0  0  0.237965  0.342236  0  3.941035  0
C  C29  1  0.19129263  0.81663238  0.71912408  1  0  0.380352  0  3.688073  0  0  0.352047  0  3.952115  0  0  0.367044  0  3.967684  0  0  0.237954  0.342288  0  3.941223  0
C  C30  1  0.19129269  0.31663610  0.78087468  1  0  0.380661  0  3.687483  0  0  0.352066  0  3.951916  0  0  0.367086  0  3.967425  0  0  0.237985  0.342285  0  3.941058  0
C  C31  1  0.80871604  0.18336629  0.28087496  1  0  0.380487  0  3.687888  0  0  0.35204  0  3.952109  0  0  0.367029  0  3.967673  0  0  0.237944  0.34231  0  3.94117  0
C  C32  1  0.04074058  0.74997431  0.17134723  1  0  -0.217531  0  3.689748  0  0  -0.253565  0  3.935992  0  0  -0.256519  0  3.946275  0  0  -0.157496  -0.251513  0  3.928834  0
C  C33  1  0.95925958  0.75003007  0.67134047  1  0  -0.217378  0  3.689776  0  0  -0.253501  0  3.935986  0  0  -0.256445  0  3.946275  0  0  -0.157461  -0.251463  0  3.928821  0
C  C34  1  0.95926989  0.25002229  0.82865417  1  0  -0.217518  0  3.689899  0  0  -0.253461  0  3.936034  0  0  -0.256359  0  3.946244  0  0  -0.157486  -0.251414  0  3.928873  0
C  C35  1  0.04073737  0.24997489  0.32866094  1  0  -0.217474  0  3.689691  0  0  -0.253543  0  3.935841  0  0  -0.256456  0  3.946088  0  0  -0.157489  -0.251482  0  3.928681  0
C  C36  1  0.96981708  0.88493368  0.13175950  1  0  -0.077342  0  3.666695  0  0  -0.12018  0  3.926859  0  0  -0.120574  0  3.939136  0  0  -0.163547  -0.119665  0  3.918271  0
C  C37  1  0.03018100  0.61506521  0.63175695  1  0  -0.077174  0  3.66628  0  0  -0.120028  0  3.926497  0  0  -0.120425  0  3.938764  0  0  -0.163481  -0.119511  0  3.917914  0
C  C38  1  0.03018134  0.11506718  0.86824014  1  0  -0.077313  0  3.666694  0  0  -0.120171  0  3.926844  0  0  -0.120584  0  3.939109  0  0  -0.163509  -0.119656  0  3.918258  0
C  C39  1  0.96981400  0.38494079  0.36824564  1  0  -0.077302  0  3.666593  0  0  -0.120167  0  3.926817  0  0  -0.120574  0  3.939083  0  0  -0.163532  -0.119651  0  3.918226  0
C  C40  1  0.71374300  0.87684805  0.07695375  1  0  -0.194839  0  3.702054  0  0  -0.238092  0  3.946923  0  0  -0.2396  0  3.958976  0  0  -0.155384  -0.236952  0  3.938851  0
C  C41  1  0.28626131  0.62314727  0.57694658  1  0  -0.194751  0  3.702052  0  0  -0.237877  0  3.946839  0  0  -0.239357  0  3.958853  0  0  -0.155395  -0.236738  0  3.938772  0
C  C42  1  0.28625542  0.12315281  0.92304530  1  0  -0.194863  0  3.702149  0  0  -0.238036  0  3.946941  0  0  -0.239536  0  3.958985  0  0  -0.155399  -0.236901  0  3.938872  0
C  C43  1  0.71373337  0.37685670  0.42304951  1  0  -0.194601  0  3.70193  0  0  -0.237874  0  3.946833  0  0  -0.239358  0  3.958856  0  0  -0.155384  -0.236734  0  3.938766  0
C  C44  1  0.73747358  0.77843319  0.01088822  1  0  0.307876  0  3.730352  0  0  0.302386  0  4.001129  0  0  0.30803  0  4.019008  0  0  0.216595  0.298369  0  3.989224  0
C  C45  1  0.26253218  0.72155734  0.51088119  1  0  0.307786  0  3.730387  0  0  0.302301  0  4.001134  0  0  0.307942  0  4.019008  0  0  0.216623  0.298284  0  3.989232  0
C  C46  1  0.26251934  0.22155959  0.98911377  1  0  0.307846  0  3.730242  0  0  0.302346  0  4.001023  0  0  0.30799  0  4.018897  0  0  0.216636  0.298331  0  3.989116  0
C  C47  1  0.73748885  0.27843912  0.48911845  1  0  0.30778  0  3.730505  0  0  0.302348  0  4.001233  0  0  0.307987  0  4.019108  0  0  0.216688  0.298329  0  3.989331  0
N  N48  1  0.68145880  0.73334958  0.28340817  1  0  -0.35657  0  3.172286  0  0  -0.282008  0  3.475878  0  0  -0.301979  0  3.486589  0  0  -0.243563  -0.268131  0  3.46809  0
N  N49  1  0.31854166  0.76664835  0.78340069  1  0  -0.35651  0  3.172512  0  0  -0.282025  0  3.476035  0  0  -0.301986  0  3.486754  0  0  -0.243651  -0.268154  0  3.46824  0
N  N50  1  0.31855573  0.26664594  0.71659442  1  0  -0.356567  0  3.171981  0  0  -0.282028  0  3.475614  0  0  -0.302005  0  3.486327  0  0  -0.243527  -0.268151  0  3.467826  0
N  N51  1  0.68146035  0.23334838  0.21659835  1  0  -0.356611  0  3.172533  0  0  -0.282087  0  3.476087  0  0  -0.302049  0  3.486809  0  0  -0.243608  -0.268216  0  3.468272  0
N  N52  1  0.47965381  0.63904799  0.30721368  1  0  -0.04961  0  2.9427  0  0  -0.047601  0  3.240369  0  0  -0.045385  0  3.252723  0  0  -0.083467  -0.049076  0  3.232158  0
N  N53  1  0.52033477  0.86095056  0.80721030  1  0  -0.049623  0  2.94268  0  0  -0.047623  0  3.240385  0  0  -0.04541  0  3.252735  0  0  -0.083437  -0.049101  0  3.232176  0
N  N54  1  0.52034672  0.36095284  0.69278300  1  0  -0.049521  0  2.942498  0  0  -0.047477  0  3.24014  0  0  -0.045258  0  3.252492  0  0  -0.08342  -0.048953  0  3.231932  0
N  N55  1  0.47966529  0.13904721  0.19278933  1  0  -0.049611  0  2.942834  0  0  -0.047576  0  3.240455  0  0  -0.045361  0  3.252805  0  0  -0.083423  -0.049055  0  3.232244  0
N  N56  1  0.48094078  0.53554609  0.25984633  1  0  -0.074984  0  2.961693  0  0  -0.066236  0  3.260671  0  0  -0.065725  0  3.27325  0  0  -0.090286  -0.066805  0  3.252504  0
N  N57  1  0.51905287  0.96445351  0.75984492  1  0  -0.074914  0  2.961782  0  0  -0.066181  0  3.260789  0  0  -0.065666  0  3.273365  0  0  -0.090316  -0.066752  0  3.252623  0
N  N58  1  0.51906008  0.46445677  0.74015035  1  0  -0.075001  0  2.961776  0  0  -0.066283  0  3.260786  0  0  -0.065771  0  3.273366  0  0  -0.090294  -0.066853  0  3.252621  0
N  N59  1  0.48094719  0.03554426  0.24015413  1  0  -0.074868  0  2.961752  0  0  -0.066125  0  3.26072  0  0  -0.065612  0  3.273297  0  0  -0.090312  -0.066696  0  3.252559  0
N  N60  1  0.68588936  0.55992864  0.20432938  1  0  -0.377256  0  3.244246  0  0  -0.299688  0  3.553246  0  0  -0.32049  0  3.564293  0  0  -0.255498  -0.285368  0  3.545437  0
N  N61  1  0.31411780  0.94007345  0.70432405  1  0  -0.377291  0  3.244418  0  0  -0.299799  0  3.55335  0  0  -0.320592  0  3.564403  0  0  -0.255405  -0.285484  0  3.54553  0
N  N62  1  0.31412988  0.44006988  0.79567144  1  0  -0.377351  0  3.244413  0  0  -0.299773  0  3.553421  0  0  -0.320572  0  3.564457  0  0  -0.255549  -0.285454  0  3.545615  0
N  N63  1  0.68588908  0.05992729  0.29567500  1  0  -0.377322  0  3.244334  0  0  -0.299812  0  3.553327  0  0  -0.320606  0  3.564382  0  0  -0.255434  -0.285508  0  3.545504  0
N  N64  1  0.53164981  0.68574955  0.99050713  1  0  -0.282359  0  2.973656  0  0  -0.269574  0  3.258793  0  0  -0.276046  0  3.271996  0  0  -0.216544  -0.265095  0  3.250123  0
N  N65  1  0.46836277  0.81424460  0.49050450  1  0  -0.282361  0  2.973543  0  0  -0.269601  0  3.258715  0  0  -0.27608  0  3.27193  0  0  -0.216609  -0.265117  0  3.250033  0
N  N66  1  0.46835284  0.31425125  0.00949605  1  0  -0.282422  0  2.973619  0  0  -0.269668  0  3.258802  0  0  -0.276142  0  3.272009  0  0  -0.216609  -0.265188  0  3.250127  0
N  N67  1  0.53163712  0.18575216  0.50949337  1  0  -0.28224  0  2.973191  0  0  -0.269489  0  3.258325  0  0  -0.275963  0  3.271528  0  0  -0.216528  -0.265012  0  3.249656  0
N  N68  1  0.62984606  0.61950907  0.92848403  1  0  -0.143455  0  3.13904  0  0  -0.09909  0  3.447859  0  0  -0.106177  0  3.459647  0  0  -0.129017  -0.094294  0  3.440061  0
N  N69  1  0.37015371  0.88049654  0.42848607  1  0  -0.143497  0  3.138914  0  0  -0.099111  0  3.447717  0  0  -0.106198  0  3.459504  0  0  -0.128964  -0.094315  0  3.439923  0
N  N70  1  0.37015496  0.38049481  0.07151797  1  0  -0.143312  0  3.139158  0  0  -0.098894  0  3.447943  0  0  -0.105979  0  3.459733  0  0  -0.128893  -0.0941  0  3.440147  0
N  N71  1  0.62984667  0.11950327  0.57151592  1  0  -0.143589  0  3.138831  0  0  -0.099191  0  3.447624  0  0  -0.106274  0  3.459408  0  0  -0.129011  -0.094397  0  3.439827  0
N  N72  1  0.89711466  0.66961944  0.91331520  1  0  -0.144928  0  3.243407  0  0  -0.083925  0  3.558847  0  0  -0.093931  0  3.570894  0  0  -0.129088  -0.077029  0  3.550572  0
N  N73  1  0.10288221  0.83038416  0.41331804  1  0  -0.14474  0  3.24341  0  0  -0.083731  0  3.558828  0  0  -0.093736  0  3.570879  0  0  -0.129027  -0.076838  0  3.550557  0
N  N74  1  0.10288456  0.33038650  0.08668797  1  0  -0.14499  0  3.243551  0  0  -0.084039  0  3.559057  0  0  -0.094044  0  3.571101  0  0  -0.129162  -0.077146  0  3.55079  0
N  N75  1  0.89711622  0.16961670  0.58668277  1  0  -0.144733  0  3.243524  0  0  -0.083731  0  3.558965  0  0  -0.093738  0  3.571012  0  0  -0.12905  -0.076835  0  3.550687  0
N  N76  1  0.96475114  0.76916361  0.96381313  1  0  -0.252856  0  2.947781  0  0  -0.24138  0  3.222885  0  0  -0.247024  0  3.23753  0  0  -0.205023  -0.237242  0  3.212927  0
N  N77  1  0.03525488  0.73083445  0.46380920  1  0  -0.252914  0  2.94787  0  0  -0.241457  0  3.222994  0  0  -0.247102  0  3.237643  0  0  -0.205078  -0.23732  0  3.213036  0
N  N78  1  0.03524353  0.23084036  0.03619182  1  0  -0.252815  0  2.947679  0  0  -0.241337  0  3.222826  0  0  -0.246981  0  3.237472  0  0  -0.205017  -0.237199  0  3.212865  0
N  N79  1  0.96473640  0.26916140  0.53618867  1  0  -0.253024  0  2.94842  0  0  -0.241595  0  3.223573  0  0  -0.247239  0  3.238221  0  0  -0.205182  -0.237457  0  3.213615  0
