# generated using pymatgen
data_NiH30C27(N2O3)2
_symmetry_space_group_name_H-M   'P 1'
_cell_length_a   9.78976842
_cell_length_b   10.23559404
_cell_length_c   27.40943905
_cell_angle_alpha   90.04197284
_cell_angle_beta   89.97877644
_cell_angle_gamma   102.23049026
_symmetry_Int_Tables_number   1
_chemical_formula_structural   NiH30C27(N2O3)2
_chemical_formula_sum   'Ni4 H120 C108 N16 O24'
_cell_volume   2684.19990540
_cell_formula_units_Z   4
loop_
 _symmetry_equiv_pos_site_id
 _symmetry_equiv_pos_as_xyz
  1  'x, y, z'
loop_
 _atom_site_type_symbol
 _atom_site_label
 _atom_site_symmetry_multiplicity
 _atom_site_fract_x
 _atom_site_fract_y
 _atom_site_fract_z
 _atom_site_occupancy
 _atom_site_pbe_bader_charge
 _atom_site_pbe_bader_spin_density
 _atom_site_pbe_cm5_charge
 _atom_site_pbe_ddec_charge
 _atom_site_pbe_ddec_spin_density
 _atom_site_pbe_ddec_sum_bond_order
 _atom_site_pbe_magmom
Ni  Ni0  1  0.62065752  0.35223921  0.52413562  1  1.117261  -0.00693  0.629947  0.702813  -0.006048  2.489547  -0.008
Ni  Ni1  1  0.88070039  0.64795818  0.02377957  1  1.118772  -0.01317  0.629606  0.701878  -0.019052  2.49262  -0.015
Ni  Ni2  1  0.37930855  0.64773623  0.47585758  1  1.117116  0.006681  0.630171  0.702946  0.015417  2.488821  0.007
Ni  Ni3  1  0.11933443  0.35207052  0.97622458  1  1.117231  -0.012705  0.6295  0.702491  -0.017228  2.489534  -0.014
H  H4  1  0.25808604  0.31290208  0.36023323  1  0.047009  -0.000141  0.087488  0.077954  -0.000127  1.052123  0.0
H  H5  1  0.24198309  0.68754965  0.86000141  1  0.045255  0.000145  0.087393  0.078083  0.000132  1.0518  0.0
H  H6  1  0.74213924  0.68730331  0.63985083  1  0.043874  0.000142  0.08753  0.078262  0.00013  1.052185  0.0
H  H7  1  0.75761630  0.31209171  0.14013369  1  0.040381  0.000145  0.087491  0.078363  0.000132  1.051515  0.0
H  H8  1  0.40358731  0.23726684  0.36945289  1  -0.016337  -4.3e-05  0.086814  0.083102  -9e-06  0.986716  0.0
H  H9  1  0.09640456  0.76303293  0.86934396  1  -0.016911  2.6e-05  0.0866  0.083134  -6e-06  0.987068  0.0
H  H10  1  0.59658707  0.76282146  0.63060781  1  -0.014747  4.2e-05  0.086902  0.083168  8e-06  0.986698  0.0
H  H11  1  0.90330480  0.23683756  0.13073024  1  -0.015467  2.9e-05  0.086426  0.082691  -4e-06  0.986983  0.0
H  H12  1  0.62686952  0.43976167  0.00197841  1  0.140046  -0.000603  0.118984  0.090584  -0.000451  1.048452  0.0
H  H13  1  0.87406071  0.56052103  0.50203551  1  0.14225  -0.000781  0.118568  0.090096  -0.000506  1.049505  0.0
H  H14  1  0.37335866  0.56022590  0.99797720  1  0.140202  -0.000675  0.119005  0.090477  -0.000492  1.048852  0.0
H  H15  1  0.12582161  0.43947798  0.49793909  1  0.141514  0.000811  0.118489  0.089827  0.00053  1.049643  0.0
H  H16  1  0.42570137  0.11343706  0.44979014  1  0.033929  -0.00014  0.091958  0.099122  -0.000152  1.015218  0.0
H  H17  1  0.07431626  0.88677573  0.94975790  1  0.034567  -7.2e-05  0.092273  0.099767  -4.9e-05  1.015349  0.0
H  H18  1  0.57437412  0.88644001  0.55021216  1  0.03378  0.000139  0.091927  0.099059  0.000153  1.015276  0.0
H  H19  1  0.92553128  0.11343987  0.05025140  1  0.035362  -7.6e-05  0.092186  0.099556  -5.4e-05  1.01502  0.0
H  H20  1  0.29407066  0.10016943  0.49399856  1  0.021097  -0.000262  0.089244  0.09097  -0.000256  1.002596  0.0
H  H21  1  0.20586887  0.89992198  0.99392559  1  0.023849  0.000304  0.089259  0.091064  0.000291  1.003294  0.0
H  H22  1  0.70602328  0.89966080  0.50601540  1  0.021278  0.000262  0.089079  0.090915  0.00026  1.002804  0.0
H  H23  1  0.79397429  0.10035354  0.00609064  1  0.024711  0.0003  0.089106  0.091044  0.000288  1.003464  0.0
H  H24  1  0.30596968  0.49034336  0.88513399  1  0.517205  0.000117  0.310591  0.280495  0.000205  0.97332  0.0
H  H25  1  0.19366343  0.51013858  0.38502983  1  0.512347  -0.000115  0.31063  0.279668  -0.00019  0.973805  0.0
H  H26  1  0.69420139  0.50927247  0.11485367  1  0.519635  0.000114  0.310114  0.280395  0.000203  0.97418  0.0
H  H27  1  0.80628153  0.49008344  0.61496523  1  0.512524  0.000116  0.310553  0.279986  0.000197  0.973707  0.0
H  H28  1  0.46053488  0.38130058  0.93169916  1  0.181104  -0.000319  0.112095  0.13493  -0.000244  1.050376  0.0
H  H29  1  0.03935070  0.61911170  0.43149136  1  0.179606  -0.000231  0.112184  0.135343  -0.000134  1.053013  0.0
H  H30  1  0.53972146  0.61858124  0.06823783  1  0.180548  -0.000357  0.112146  0.134756  -0.000278  1.050109  0.0
H  H31  1  0.96050965  0.38094613  0.56847085  1  0.17975  0.000234  0.112333  0.135483  0.000137  1.052725  0.0
H  H32  1  0.13365312  0.36721614  0.70283665  1  0.494567  -9e-06  0.297821  0.259056  -1.3e-05  1.024424  0.0
H  H33  1  0.36619936  0.63280096  0.20275595  1  0.494653  -7e-06  0.297879  0.259244  -8e-06  1.024517  0.0
H  H34  1  0.86634419  0.63273848  0.29716093  1  0.494457  1e-05  0.297871  0.259144  1.4e-05  1.024288  0.0
H  H35  1  0.63390673  0.36735387  0.79722194  1  0.494093  -8e-06  0.297928  0.259146  -9e-06  1.024215  0.0
H  H36  1  0.08867458  0.20643016  0.48165269  1  -0.029749  -3.4e-05  0.087203  0.085782  2.1e-05  1.00283  0.0
H  H37  1  0.41125637  0.79396787  0.98150084  1  -0.027213  8.1e-05  0.086923  0.085246  3.6e-05  1.002553  0.0
H  H38  1  0.91144392  0.79353704  0.51840253  1  -0.029873  3.7e-05  0.087116  0.085638  -1.9e-05  1.002703  0.0
H  H39  1  0.58847975  0.20598364  0.01858139  1  -0.030604  8.2e-05  0.086942  0.085468  3.7e-05  1.002709  0.0
H  H40  1  0.06982266  0.29379162  0.42718092  1  0.037189  -0.000247  0.08189  0.074283  -0.000242  1.057519  0.0
H  H41  1  0.43035857  0.70670952  0.92697986  1  0.014564  0.000225  0.081495  0.073759  0.000241  1.058047  0.0
H  H42  1  0.93039408  0.70635081  0.57290168  1  0.035879  0.00025  0.081953  0.074205  0.000248  1.057677  0.0
H  H43  1  0.56926612  0.29307673  0.07312352  1  0.017937  0.000222  0.08194  0.074657  0.000238  1.057985  0.0
H  H44  1  0.36974597  0.98475374  0.36723451  1  0.003161  5.3e-05  0.087281  0.084141  3.5e-05  0.987504  0.0
H  H45  1  0.13022628  0.01578470  0.86731857  1  0.001241  -3.1e-05  0.087423  0.084263  -1.6e-05  0.988065  0.0
H  H46  1  0.63025353  0.01529574  0.63273790  1  0.002496  -5.1e-05  0.087379  0.084259  -3.2e-05  0.98779  0.0
H  H47  1  0.86977832  0.98409499  0.13261733  1  0.001897  -2.5e-05  0.087258  0.084218  -1e-05  0.988121  0.0
H  H48  1  0.20052538  0.88398031  0.35916904  1  0.035671  0.000322  0.09105  0.089279  0.000317  1.024042  0.0
H  H49  1  0.29946610  0.11652834  0.85928156  1  0.03247  -0.000419  0.090582  0.088918  -0.0004  1.023893  0.0
H  H50  1  0.79942243  0.11618875  0.64078187  1  0.034536  -0.000332  0.090892  0.089076  -0.000323  1.02395  0.0
H  H51  1  0.70060989  0.88315290  0.14062732  1  0.031668  -0.000435  0.090679  0.0891  -0.000417  1.023445  0.0
H  H52  1  0.85658930  0.76836796  0.93037506  1  0.121013  -0.00027  0.123211  0.098201  -0.000176  1.010627  0.0
H  H53  1  0.64417744  0.23127615  0.43070053  1  0.122794  -0.000615  0.123183  0.098325  -0.000372  1.010226  0.0
H  H54  1  0.14335756  0.23179214  0.06961160  1  0.121975  -0.000367  0.123201  0.098227  -0.000237  1.01051  0.0
H  H55  1  0.35586586  0.76862673  0.56928536  1  0.123019  0.000657  0.123281  0.098451  0.000405  1.010271  0.0
H  H56  1  0.44663856  0.09945702  0.56113865  1  0.126694  -0.00068  0.125674  0.105347  -0.000517  1.019468  0.0
H  H57  1  0.05373358  0.90075992  0.06114020  1  0.131544  -0.000248  0.125842  0.106021  -0.000151  1.018111  0.0
H  H58  1  0.55347452  0.90051812  0.43889722  1  0.174705  0.000704  0.125728  0.105344  0.000544  1.019351  0.0
H  H59  1  0.94607949  0.09929678  0.93891468  1  0.131297  -0.000333  0.125931  0.106205  -0.000209  1.018458  0.0
H  H60  1  0.31675517  0.45007895  0.66245925  1  0.093424  -0.000305  0.112074  0.114569  -0.000192  1.011937  0.0
H  H61  1  0.18324206  0.55005985  0.16233418  1  0.094495  -0.000174  0.111897  0.114402  -0.000111  1.012044  0.0
H  H62  1  0.68316415  0.54990226  0.33752447  1  0.093522  0.000319  0.111932  0.114449  0.000205  1.012103  0.0
H  H63  1  0.81695078  0.45001447  0.83764151  1  0.095016  -0.000208  0.111931  0.114418  -0.000132  1.012165  0.0
H  H64  1  0.70875999  0.71786329  0.85469049  1  0.10628  -8.9e-05  0.117625  0.128586  -5.6e-05  0.980096  0.0
H  H65  1  0.79111329  0.28177449  0.35479722  1  0.107818  -0.000267  0.117548  0.12845  -0.000173  0.979963  0.0
H  H66  1  0.29122688  0.28227402  0.14529288  1  0.10695  -0.000135  0.11746  0.128206  -8.6e-05  0.980354  0.0
H  H67  1  0.20893760  0.71816338  0.64519268  1  0.10789  0.000288  0.11742  0.12811  0.00019  0.979647  0.0
H  H68  1  0.28936936  0.03101653  0.63363627  1  0.085012  -0.000264  0.115914  0.12462  -0.000165  0.994541  0.0
H  H69  1  0.21049032  0.96912855  0.13379773  1  0.118533  -0.00014  0.115785  0.124289  -9.8e-05  0.994868  0.0
H  H70  1  0.71077737  0.96896777  0.36641347  1  0.085529  0.000281  0.115786  0.124709  0.000178  0.994744  0.0
H  H71  1  0.78928416  0.03093398  0.86627357  1  0.084197  -0.000183  0.115813  0.12432  -0.000123  0.994991  0.0
H  H72  1  0.01789352  0.86409066  0.42327818  1  0.010354  0.000248  0.087116  0.087252  0.000221  1.002849  0.0
H  H73  1  0.48202819  0.13637338  0.92335162  1  0.007745  -0.000335  0.087147  0.08709  -0.000287  1.002259  0.0
H  H74  1  0.98208574  0.13602561  0.57666798  1  0.010839  -0.000258  0.086984  0.087151  -0.000226  1.002719  0.0
H  H75  1  0.51798463  0.86342644  0.07657588  1  0.013653  -0.000344  0.087045  0.086961  -0.000298  1.002374  0.0
H  H76  1  0.05548859  0.95007017  0.47952641  1  0.020308  5e-06  0.087962  0.085417  2e-06  1.033825  0.0
H  H77  1  0.44445689  0.05028621  0.97955005  1  0.020011  1.6e-05  0.087978  0.085612  1.7e-05  1.033881  0.0
H  H78  1  0.94449382  0.04991930  0.52043870  1  0.019043  -2e-06  0.087884  0.085491  0.0  1.0337  0.0
H  H79  1  0.55549565  0.94973508  0.02041580  1  0.018706  2.1e-05  0.087911  0.08555  2.1e-05  1.034255  0.0
H  H80  1  0.22758047  0.09928847  0.31351790  1  0.048009  -9.6e-05  0.099674  0.076825  -6.5e-05  0.943829  0.0
H  H81  1  0.27240186  0.90128042  0.81348609  1  0.047026  0.000154  0.099759  0.07673  0.000108  0.944141  0.0
H  H82  1  0.77256519  0.90099239  0.68649539  1  0.047881  9.9e-05  0.099516  0.076671  6.8e-05  0.944076  0.0
H  H83  1  0.72743599  0.09822608  0.18652821  1  0.046945  0.000158  0.099816  0.077343  0.000111  0.944173  0.0
H  H84  1  0.02461584  0.15409046  0.77169442  1  0.0916  -3e-06  0.110634  0.093352  -0.0  0.971458  0.0
H  H85  1  0.47516993  0.84590492  0.27170801  1  0.091472  -0.0  0.110686  0.093151  -1e-06  0.972044  0.0
H  H86  1  0.97539717  0.84589419  0.22831191  1  0.091956  6e-06  0.110694  0.09338  5e-06  0.971428  0.0
H  H87  1  0.52488632  0.15413786  0.72830672  1  0.092037  -2e-06  0.110583  0.093063  -0.0  0.971951  0.0
H  H88  1  0.99567778  0.31988689  0.76904370  1  0.028953  -1e-06  0.102939  0.07714  1e-06  0.994639  0.0
H  H89  1  0.50415434  0.68011348  0.26893780  1  0.028341  2e-06  0.103013  0.077086  2e-06  0.9941  0.0
H  H90  1  0.00435850  0.68011084  0.23095935  1  0.02857  -2e-06  0.102936  0.077117  -2e-06  0.994489  0.0
H  H91  1  0.49585649  0.31992708  0.73104811  1  0.028928  -1e-06  0.102955  0.077037  0.0  0.994322  0.0
H  H92  1  0.29675464  0.48535297  0.77668551  1  0.072213  -2e-06  0.109052  0.08708  -3e-06  0.982346  0.0
H  H93  1  0.20321988  0.51452355  0.27658175  1  0.074251  -3e-06  0.108991  0.08686  -1e-06  0.981854  0.0
H  H94  1  0.70328370  0.51457885  0.22330221  1  0.071562  6e-06  0.109033  0.087018  5e-06  0.982349  0.0
H  H95  1  0.79679873  0.48553402  0.72341219  1  0.074175  -2e-06  0.108954  0.086881  -4e-06  0.981947  0.0
H  H96  1  0.15882271  0.50563928  0.81610567  1  0.037511  1.8e-05  0.104876  0.077262  7e-06  0.978311  0.0
H  H97  1  0.34104158  0.49432661  0.31602167  1  0.037599  -1.8e-05  0.105044  0.077444  -6e-06  0.978675  0.0
H  H98  1  0.84124887  0.49435161  0.18388424  1  0.036465  1.7e-05  0.104891  0.077404  6e-06  0.978133  0.0
H  H99  1  0.65896213  0.50569993  0.68397445  1  0.037543  1.8e-05  0.105016  0.077432  7e-06  0.978693  0.0
H  H100  1  0.47272903  0.50045523  0.59087683  1  0.141638  -0.000537  0.119971  0.093515  -0.000376  1.054736  0.0
H  H101  1  0.02779327  0.49973321  0.09059622  1  0.141892  -0.000187  0.120108  0.092964  -0.000121  1.05384  0.0
H  H102  1  0.52713254  0.49951870  0.40907880  1  0.141345  0.000571  0.119973  0.093427  0.000399  1.054492  0.0
H  H103  1  0.97245712  0.50034732  0.90933276  1  0.141839  -0.000266  0.1201  0.093266  -0.000173  1.053394  0.0
H  H104  1  0.91334206  0.06777695  0.42616506  1  0.017151  -0.000197  0.08554  0.04945  -0.000124  0.984487  0.0
H  H105  1  0.58661504  0.93274317  0.92606375  1  0.014004  -0.000129  0.085635  0.049555  -8.4e-05  0.983791  0.0
H  H106  1  0.08675600  0.93240682  0.57383436  1  0.013579  0.000194  0.085531  0.049465  0.000123  0.984153  0.0
H  H107  1  0.41318934  0.06695295  0.07397466  1  0.014226  -0.000115  0.085638  0.049532  -7.3e-05  0.983634  0.0
H  H108  1  0.13263468  0.26749784  0.84434814  1  0.051275  3e-06  0.093117  0.095776  1.6e-05  1.022411  0.0
H  H109  1  0.36723824  0.73244946  0.34432250  1  0.051975  -6e-06  0.092979  0.095212  -1.8e-05  1.022769  0.0
H  H110  1  0.86737941  0.73249181  0.15565892  1  0.051331  1e-06  0.093174  0.095863  1.4e-05  1.022384  0.0
H  H111  1  0.63280891  0.26758428  0.65567581  1  0.052364  7e-06  0.092914  0.095121  1.9e-05  1.022506  0.0
H  H112  1  0.26736845  0.24674418  0.80435350  1  0.045847  -1.2e-05  0.099292  0.106169  -1e-06  0.986803  0.0
H  H113  1  0.23244077  0.75317590  0.30440633  1  0.049409  8e-06  0.099041  0.105831  0.0  0.98674  0.0
H  H114  1  0.73262705  0.75319746  0.19566085  1  0.046513  -1.2e-05  0.099266  0.106219  -1e-06  0.986699  0.0
H  H115  1  0.76760275  0.24687880  0.69560292  1  0.049451  -8e-06  0.099039  0.105914  -0.0  0.986523  0.0
H  H116  1  0.99205991  0.99311497  0.34547661  1  0.016469  -3.5e-05  0.085938  0.086424  -3e-05  1.014468  0.0
H  H117  1  0.50795373  0.00723429  0.84540884  1  0.01322  2.9e-05  0.086144  0.086827  2.8e-05  1.014932  0.0
H  H118  1  0.00801297  0.00724943  0.65449730  1  0.014351  3.5e-05  0.085939  0.086517  3e-05  1.014619  0.0
H  H119  1  0.49193449  0.99219351  0.15457189  1  0.009961  3e-05  0.086158  0.087029  2.9e-05  1.014805  0.0
H  H120  1  0.01556550  0.16894409  0.34714581  1  -0.010482  -1.1e-05  0.086632  0.08495  -1e-06  0.993379  0.0
H  H121  1  0.48430795  0.83142876  0.84705327  1  -0.010515  6e-06  0.086449  0.084619  -2e-06  0.993864  0.0
H  H122  1  0.98463136  0.83142691  0.65288720  1  -0.00444  1.2e-05  0.086406  0.084698  2e-06  0.993449  0.0
H  H123  1  0.51542498  0.16799445  0.15304130  1  -0.000311  6e-06  0.086516  0.085061  -2e-06  0.993033  0.0
C  C124  1  0.29059837  0.22617991  0.37633054  1  -0.011878  0.000248  -0.161805  -0.215308  0.000216  3.8689  0.0
C  C125  1  0.20939351  0.77417151  0.87619808  1  -0.03169  -1.3e-05  -0.162253  -0.216112  -9e-06  3.86963  0.0
C  C126  1  0.70955800  0.77392428  0.62372615  1  -0.029211  -0.000245  -0.162146  -0.215462  -0.000207  3.869522  0.0
C  C127  1  0.79032365  0.22561714  0.12388012  1  -0.02631  -1.9e-05  -0.161999  -0.214722  -1.4e-05  3.869871  0.0
C  C128  1  0.21180647  0.19246319  0.70092883  1  1.390226  -4.8e-05  0.23034  0.443799  -4.5e-05  4.197756  0.0
C  C129  1  0.28804818  0.80759743  0.20095264  1  1.412688  -1.9e-05  0.230546  0.443634  -1.8e-05  4.196158  0.0
C  C130  1  0.78828895  0.80753883  0.29909355  1  1.414745  4.9e-05  0.230035  0.442991  4.8e-05  4.198286  0.0
C  C131  1  0.71188562  0.19246479  0.79907414  1  1.413046  -2.7e-05  0.230511  0.443426  -2.5e-05  4.197968  0.0
C  C132  1  0.48261154  0.51363081  0.84295283  1  1.421698  5.4e-05  0.23924  0.457725  4.5e-05  4.152143  0.0
C  C133  1  0.01712429  0.48623333  0.34285346  1  1.41913  -6.6e-05  0.238815  0.457622  -5.9e-05  4.151001  0.0
C  C134  1  0.51748912  0.48644708  0.15700827  1  1.42668  4.5e-05  0.239267  0.457262  3.6e-05  4.152266  0.0
C  C135  1  0.98285285  0.51376012  0.65712697  1  1.418776  6.7e-05  0.238949  0.457386  6.2e-05  4.151027  0.0
C  C136  1  0.57205489  0.54601011  0.88757466  1  -0.137782  0.00015  0.006749  0.018706  0.000123  3.991373  0.0
C  C137  1  0.92782084  0.45396496  0.38752007  1  -0.136481  0.000674  0.006304  0.017829  0.000584  3.991887  0.0
C  C138  1  0.42804730  0.45400886  0.11239045  1  -0.060771  0.000226  0.006897  0.018854  0.00019  3.991062  0.0
C  C139  1  0.07212368  0.54601935  0.61245416  1  -0.137494  -0.000708  0.006374  0.018435  -0.000604  3.991615  0.0
C  C140  1  0.23339838  0.97272620  0.43090642  1  0.050592  0.002018  -0.01689  0.047241  0.001818  3.790431  0.002
C  C141  1  0.26650307  0.02761004  0.93097176  1  0.031927  -0.001614  -0.016575  0.048809  -0.00146  3.7875  -0.001
C  C142  1  0.76659047  0.02725532  0.56906635  1  0.052106  -0.001939  -0.017033  0.046265  -0.001696  3.790401  -0.002
C  C143  1  0.73347284  0.97238237  0.06896671  1  0.044833  -0.001412  -0.016809  0.04905  -0.001311  3.786534  -0.001
C  C144  1  0.63924776  0.49933102  0.96883553  1  0.449528  -0.000464  0.049319  0.09368  -0.000609  3.907852  0.0
C  C145  1  0.86142006  0.50081694  0.46890314  1  0.469346  -0.000145  0.049812  0.094242  -0.000455  3.908977  0.0
C  C146  1  0.36090900  0.50068519  0.03112117  1  0.447706  -0.000446  0.049534  0.094206  -0.000611  3.908935  0.0
C  C147  1  0.13849021  0.49919318  0.53107182  1  0.474511  0.00013  0.050058  0.094442  0.000478  3.90852  0.0
C  C148  1  0.31261703  0.10326639  0.45439790  1  -0.009265  -0.001613  -0.164558  -0.228044  -0.001645  3.858247  -0.001
C  C149  1  0.18738914  0.89683998  0.95432433  1  -0.012017  0.001096  -0.165201  -0.229568  0.001306  3.861517  0.001
C  C150  1  0.68745884  0.89657474  0.54561717  1  -0.008791  0.001584  -0.164469  -0.227705  0.001651  3.859803  0.001
C  C151  1  0.81245233  0.10334764  0.04568970  1  -0.009663  0.001002  -0.164879  -0.229039  0.001216  3.86198  0.001
C  C152  1  0.26424638  0.22386868  0.43213026  1  0.018199  -0.008408  -0.019091  0.037794  -0.007442  3.783845  -0.006
C  C153  1  0.23578745  0.77643326  0.93197123  1  0.022481  0.004406  -0.019071  0.037335  0.003966  3.787814  0.003
C  C154  1  0.73591175  0.77611168  0.56792751  1  0.020051  0.008374  -0.019147  0.036772  0.007542  3.785497  0.006
C  C155  1  0.76392570  0.22356310  0.06812049  1  0.022428  0.004548  -0.019418  0.035753  0.004102  3.791517  0.004
C  C156  1  0.29088971  0.23433590  0.65443329  1  -0.024167  0.000639  0.008133  0.019974  0.000551  3.967389  0.0
C  C157  1  0.20906668  0.76579797  0.15442329  1  -0.044912  0.000651  0.007632  0.019453  0.000554  3.966678  0.0
C  C158  1  0.70915596  0.76564392  0.34557924  1  -0.047612  -0.00065  0.008147  0.020099  -0.000552  3.967117  0.0
C  C159  1  0.79090002  0.23427936  0.84559327  1  -0.044209  0.000689  0.007803  0.019666  0.000587  3.967205  0.0
C  C160  1  0.34869363  0.35644276  0.45219275  1  1.539502  -0.007508  0.218698  0.572555  -0.009397  4.097981  -0.007
C  C161  1  0.15188587  0.64389491  0.95222512  1  1.542048  -0.006677  0.219433  0.573554  -0.00686  4.100689  -0.01
C  C162  1  0.65151463  0.64349092  0.54790405  1  1.536703  0.007405  0.218915  0.573246  0.009445  4.099666  0.007
C  C163  1  0.84769334  0.35623775  0.04795966  1  1.537552  -0.00653  0.219077  0.574019  -0.006687  4.099853  -0.01
C  C164  1  0.54857560  0.46695504  0.92948022  1  -0.026328  -0.000728  -0.082433  -0.165868  -0.000624  3.930534  0.0
C  C165  1  0.95150512  0.53325121  0.42940245  1  -0.023724  -0.001492  -0.082426  -0.166216  -0.00126  3.930752  -0.001
C  C166  1  0.45159034  0.53300927  0.07047028  1  -0.025716  -0.000932  -0.082019  -0.165488  -0.000796  3.93091  -0.001
C  C167  1  0.04838600  0.46676482  0.57056887  1  -0.024976  0.00156  -0.082599  -0.166565  0.001339  3.931033  0.001
C  C168  1  0.10680510  0.20789130  0.44194456  1  -0.00997  -0.001147  -0.168069  -0.222244  -0.001062  3.877755  -0.001
C  C169  1  0.39327252  0.79255581  0.94178486  1  0.011893  -0.001035  -0.167791  -0.22136  -0.000827  3.87705  -0.001
C  C170  1  0.89335282  0.79217295  0.55810774  1  -0.008432  0.001111  -0.168075  -0.221481  0.00105  3.877904  0.001
C  C171  1  0.60645440  0.20732975  0.05829481  1  0.009922  -0.000982  -0.168  -0.222367  -0.000778  3.877821  -0.001
C  C172  1  0.25797556  0.97772599  0.37522758  1  -0.023507  -0.000444  -0.160768  -0.215701  -0.00027  3.870521  0.0
C  C173  1  0.24197132  0.02277117  0.87529774  1  -0.01826  0.000359  -0.160846  -0.216241  0.000204  3.870398  0.0
C  C174  1  0.74203143  0.02236747  0.62475177  1  -0.022128  0.000428  -0.160905  -0.215773  0.000271  3.869612  0.0
C  C175  1  0.75800667  0.97702352  0.12464582  1  -0.019632  0.000329  -0.160833  -0.216429  0.000174  3.868947  0.0
C  C176  1  0.76928806  0.68278780  0.92833484  1  0.470707  0.000408  0.049548  0.091066  0.000541  3.911396  0.0
C  C177  1  0.73136091  0.31696279  0.42856995  1  0.476478  0.000523  0.049777  0.090663  0.000466  3.91276  0.001
C  C178  1  0.23073562  0.31731672  0.07164633  1  0.397246  0.000361  0.050113  0.091511  0.000467  3.912786  0.0
C  C179  1  0.26863678  0.68298881  0.57140500  1  0.475627  -0.000501  0.049497  0.090251  -0.000402  3.913167  0.0
C  C180  1  0.41599932  0.17327274  0.58511143  1  0.443578  0.000171  0.049121  0.07829  0.000242  3.908227  0.0
C  C181  1  0.08428084  0.82694515  0.08509691  1  0.44087  0.000579  0.049218  0.077975  0.000703  3.906293  0.0
C  C182  1  0.58406345  0.82670117  0.41491059  1  0.394542  -0.000121  0.049606  0.079187  -0.000168  3.907358  0.0
C  C183  1  0.91561571  0.17311491  0.91494118  1  0.396866  0.000496  0.049282  0.078178  0.000598  3.906743  0.0
C  C184  1  0.28068470  0.85080702  0.45130051  1  1.510861  -7.7e-05  0.203103  0.538772  -0.000287  4.126395  0.0
C  C185  1  0.21820228  0.14856215  0.95188455  1  1.531299  6.2e-05  0.201314  0.536417  0.000225  4.130077  0.0
C  C186  1  0.71912677  0.14896388  0.54857374  1  1.510788  6.9e-05  0.202757  0.538968  0.000357  4.127545  0.0
C  C187  1  0.78210549  0.85179213  0.04788576  1  1.530961  3.6e-05  0.20039  0.534889  0.000159  4.132137  0.0
C  C188  1  0.34160691  0.36783187  0.64135443  1  -0.028136  -0.001614  -0.081173  -0.16014  -0.00137  3.962165  -0.001
C  C189  1  0.15850097  0.63229738  0.14124330  1  -0.029409  -0.001101  -0.080388  -0.159697  -0.000922  3.96093  -0.001
C  C190  1  0.65835815  0.63214356  0.35863804  1  -0.028855  0.001666  -0.081069  -0.159941  0.001438  3.961582  0.001
C  C191  1  0.84160000  0.36777254  0.85874406  1  -0.029147  -0.001235  -0.080549  -0.159666  -0.001037  3.961524  -0.001
C  C192  1  0.68638783  0.65481025  0.88697994  1  -0.00763  -0.000162  -0.075973  -0.156745  -0.000156  3.9567  0.0
C  C193  1  0.81371364  0.34496913  0.38706803  1  -0.014757  -0.001017  -0.076087  -0.156189  -0.00086  3.957902  -0.001
C  C194  1  0.31364964  0.34526837  0.11299904  1  -0.012332  -0.000341  -0.076112  -0.156592  -0.000316  3.957134  0.0
C  C195  1  0.18628711  0.65498248  0.61290984  1  -0.012666  0.001104  -0.075653  -0.155746  0.000948  3.956646  0.001
C  C196  1  0.32761763  0.13609148  0.62468652  1  0.03634  -0.001023  -0.072442  -0.139194  -0.0009  3.94011  -0.001
C  C197  1  0.17237159  0.86408048  0.12474856  1  -0.00091  -0.000425  -0.071743  -0.138119  -0.000391  3.939332  0.0
C  C198  1  0.67246026  0.86388150  0.37534097  1  0.034588  0.001097  -0.072676  -0.139923  0.000978  3.940489  0.001
C  C199  1  0.82751023  0.13599649  0.87529391  1  0.072005  -0.000589  -0.071909  -0.138119  -0.000539  3.939434  0.0
C  C200  1  0.07521375  0.95751183  0.44003170  1  -0.01738  -0.000228  -0.163765  -0.225703  -0.000114  3.868302  0.0
C  C201  1  0.42470073  0.04292320  0.94005993  1  -0.014081  0.000124  -0.163936  -0.226124  2.2e-05  3.867886  0.0
C  C202  1  0.92479973  0.04252672  0.55993743  1  -0.017813  0.000215  -0.163412  -0.225374  0.00011  3.868103  0.0
C  C203  1  0.57524688  0.95696225  0.05990443  1  -0.019684  9.9e-05  -0.163726  -0.226054  -4e-06  3.86759  0.0
C  C204  1  0.20872746  0.09705303  0.35315592  1  -0.014712  -0.000531  -0.089231  0.0457  -0.000444  3.841215  0.0
C  C205  1  0.29126109  0.90344136  0.85311310  1  0.002883  0.000626  -0.088574  0.046628  0.000551  3.840068  0.0
C  C206  1  0.79138900  0.90313084  0.64686357  1  0.002359  0.000532  -0.088815  0.046254  0.000453  3.841077  0.0
C  C207  1  0.70859070  0.09621900  0.14690414  1  0.000436  0.000623  -0.088428  0.045396  0.000551  3.84123  0.0
C  C208  1  0.07620036  0.25985056  0.76799864  1  0.345994  -6e-06  -0.060307  0.000543  -2e-06  3.909258  0.0
C  C209  1  0.42359148  0.74014096  0.26796620  1  0.325372  1.4e-05  -0.060477  0.000883  1.1e-05  3.908951  0.0
C  C210  1  0.92382039  0.74013213  0.23200696  1  0.346576  -9e-06  -0.060256  0.000692  -6e-06  3.908888  0.0
C  C211  1  0.57644064  0.25991767  0.73203394  1  0.323375  -9e-06  -0.060355  0.000852  -4e-06  3.908932  0.0
C  C212  1  0.24296217  0.45062664  0.81092363  1  0.312194  5e-06  -0.058309  0.004136  -1e-06  3.897178  0.0
C  C213  1  0.25689598  0.54929570  0.31084121  1  0.31095  2e-06  -0.058323  0.003911  1.1e-05  3.896676  0.0
C  C214  1  0.75708837  0.54933321  0.18906920  1  0.313563  6e-06  -0.058336  0.00383  -0.0  3.897494  0.0
C  C215  1  0.74312273  0.45075288  0.68915382  1  0.311095  -2e-06  -0.058093  0.003831  -1.2e-05  3.897215  0.0
C  C216  1  0.43127339  0.39773643  0.60168997  1  0.443748  -0.000562  0.047138  0.091578  -0.000786  3.909082  0.0
C  C217  1  0.06918178  0.60244382  0.10149166  1  0.443303  -0.000263  0.046891  0.092243  -0.000487  3.908302  0.0
C  C218  1  0.56866149  0.60224586  0.39829593  1  0.44421  0.000569  0.047156  0.091539  0.000821  3.908901  0.0
C  C219  1  0.93095098  0.39761725  0.89848767  1  0.442417  -0.000273  0.046933  0.091783  -0.000508  3.909164  0.0
C  C220  1  0.02579420  0.07805206  0.41857022  1  0.01567  -0.000511  -0.092855  0.040613  -0.000421  3.858904  0.0
C  C221  1  0.47418166  0.92240338  0.91847930  1  -0.009866  3.6e-05  -0.092585  0.041439  2.2e-05  3.858298  0.0
C  C222  1  0.97430638  0.92205383  0.58143831  1  0.019016  0.000502  -0.093127  0.040129  0.000421  3.859961  0.0
C  C223  1  0.52562927  0.07736067  0.08154599  1  -0.010075  6e-05  -0.092847  0.041833  4.5e-05  3.857158  0.0
C  C224  1  0.18215476  0.30025467  0.80922822  1  -0.018693  -3.2e-05  -0.166252  -0.208269  -4e-05  3.91245  0.0
C  C225  1  0.31767795  0.69968844  0.30920421  1  -0.021557  4.3e-05  -0.165937  -0.207008  4.7e-05  3.911547  0.0
C  C226  1  0.81786507  0.69971903  0.19078140  1  -0.019871  -3.7e-05  -0.166337  -0.208414  -4.6e-05  3.912505  0.0
C  C227  1  0.68235980  0.30036323  0.69079630  1  -0.022001  -3.5e-05  -0.165939  -0.206932  -3.9e-05  3.911027  0.0
C  C228  1  0.05182780  0.08366892  0.36323103  1  -0.005758  1e-05  -0.165259  -0.208777  8e-06  3.874644  0.0
C  C229  1  0.44813252  0.91676204  0.86315477  1  0.025073  -1.5e-05  -0.165356  -0.209123  -4e-06  3.87623  0.0
C  C230  1  0.94830107  0.91660987  0.63677460  1  -0.009513  -1e-05  -0.16499  -0.208676  -7e-06  3.874844  0.0
C  C231  1  0.55168573  0.08278133  0.13687705  1  0.019093  -1.6e-05  -0.165844  -0.210214  -3e-06  3.876031  0.0
N  N232  1  0.74688597  0.60556484  0.96878853  1  -1.165966  -0.009811  -0.324795  -0.18436  -0.008322  3.583185  -0.008
N  N233  1  0.75411454  0.39431805  0.46902160  1  -1.190957  -0.021279  -0.325231  -0.183805  -0.017991  3.583093  -0.017
N  N234  1  0.25318723  0.39450894  0.03118461  1  -1.164792  -0.012649  -0.325384  -0.184954  -0.0107  3.584784  -0.01
N  N235  1  0.24585045  0.60565238  0.53095189  1  -1.194898  0.022489  -0.325435  -0.183656  0.019317  3.5832  0.018
N  N236  1  0.47195430  0.30276295  0.57453884  1  -1.196956  -0.021863  -0.324862  -0.192623  -0.018509  3.577323  -0.018
N  N237  1  0.02870019  0.69746292  0.07438957  1  -1.196083  -0.01202  -0.324635  -0.192058  -0.010303  3.577437  -0.01
N  N238  1  0.52802376  0.69720657  0.42546384  1  -1.195603  0.022984  -0.325021  -0.19292  0.019773  3.577333  0.018
N  N239  1  0.97134652  0.30260178  0.92562187  1  -1.191114  -0.014638  -0.32473  -0.192609  -0.012491  3.578502  -0.012
N  N240  1  0.34378616  0.48702815  0.85030072  1  -1.252667  0.000336  -0.409586  -0.331236  0.00029  3.548452  0.0
N  N241  1  0.15595571  0.51290352  0.35018593  1  -1.247221  -0.000205  -0.409525  -0.330344  -0.000179  3.548594  0.0
N  N242  1  0.65630947  0.51295585  0.14967168  1  -1.25644  0.000334  -0.40964  -0.331361  0.000287  3.548501  0.0
N  N243  1  0.84402761  0.48712792  0.64980326  1  -1.246513  0.000206  -0.409708  -0.33041  0.000184  3.548529  0.0
N  N244  1  0.14174001  0.28069165  0.72020450  1  -1.253472  -4.2e-05  -0.425507  -0.357817  -3.2e-05  3.573069  0.0
N  N245  1  0.35802094  0.71931125  0.22017831  1  -1.231656  1.5e-05  -0.425579  -0.358285  1.3e-05  3.572448  0.0
N  N246  1  0.85829236  0.71928810  0.27980439  1  -1.253872  3.7e-05  -0.425334  -0.357573  3.1e-05  3.573219  0.0
N  N247  1  0.64200429  0.28078630  0.77982512  1  -1.232444  0.0  -0.425497  -0.357879  2e-06  3.573412  0.0
O  O248  1  0.36763802  0.86181052  0.48650678  1  -1.124217  -0.089071  -0.3012  -0.521019  -0.073451  2.221205  -0.078
O  O249  1  0.13214568  0.13582734  0.98730038  1  -1.14114  0.087187  -0.300118  -0.521655  0.073114  2.220022  0.076
O  O250  1  0.63224507  0.13757919  0.51335391  1  -1.12775  0.088818  -0.300643  -0.521117  0.074469  2.220183  0.077
O  O251  1  0.86801021  0.86509848  0.01244704  1  -1.149219  0.085688  -0.300761  -0.5226  0.071894  2.218609  0.075
O  O252  1  0.46640263  0.35897586  0.47081761  1  -1.198098  -0.032598  -0.310733  -0.565896  -0.027351  2.470166  -0.027
O  O253  1  0.03495206  0.64180983  0.97153319  1  -1.197945  -0.032766  -0.311248  -0.564947  -0.02825  2.480623  -0.026
O  O254  1  0.53383934  0.64078818  0.52926383  1  -1.196885  0.032166  -0.310742  -0.566084  0.027497  2.468803  0.026
O  O255  1  0.96474500  0.35869689  0.02866733  1  -1.196311  -0.032126  -0.311841  -0.566402  -0.027796  2.474373  -0.026
O  O256  1  0.29832482  0.46190810  0.44520186  1  -1.151606  -0.086628  -0.306688  -0.549434  -0.070875  2.376264  -0.076
O  O257  1  0.20196526  0.53857790  0.94498810  1  -1.154168  0.077788  -0.30602  -0.55  0.065198  2.372862  0.069
O  O258  1  0.70194759  0.53807184  0.55492777  1  -1.151878  0.087369  -0.30714  -0.550404  0.072667  2.374893  0.076
O  O259  1  0.79747827  0.46144734  0.05524192  1  -1.153357  0.078016  -0.305413  -0.550275  0.065414  2.370421  0.07
O  O260  1  0.23506362  0.73759634  0.43089661  1  -1.158029  0.07188  -0.310967  -0.542833  0.060197  2.270663  0.063
O  O261  1  0.26220447  0.26252494  0.93166688  1  -1.144691  -0.086591  -0.310985  -0.540579  -0.071268  2.267032  -0.076
O  O262  1  0.76457275  0.26231855  0.56893462  1  -1.155042  -0.074342  -0.311183  -0.542737  -0.061213  2.270923  -0.066
O  O263  1  0.73851612  0.73755649  0.06802128  1  -1.149394  -0.090577  -0.30984  -0.53822  -0.07463  2.268968  -0.08
O  O264  1  0.53983575  0.51282925  0.80206048  1  -1.16254  8.8e-05  -0.315196  -0.517867  7.2e-05  2.11838  0.0
O  O265  1  0.95988456  0.48685517  0.30197598  1  -1.163236  -0.000106  -0.314517  -0.517206  -8.5e-05  2.117828  0.0
O  O266  1  0.46023597  0.48744024  0.19788678  1  -1.16609  9.3e-05  -0.315161  -0.517667  7.6e-05  2.118152  0.0
O  O267  1  0.04014412  0.51308858  0.69799934  1  -1.162877  0.000103  -0.314685  -0.517422  8.4e-05  2.117698  0.0
O  O268  1  0.21741236  0.08373147  0.72016618  1  -1.134823  8.7e-05  -0.311837  -0.497685  7.6e-05  2.063569  0.0
O  O269  1  0.28248573  0.91633400  0.22025895  1  -1.135465  8.3e-05  -0.311921  -0.497529  6.7e-05  2.062826  0.0
O  O270  1  0.78274123  0.91631277  0.27987335  1  -1.133852  -8.9e-05  -0.311647  -0.497154  -7.2e-05  2.063536  0.0
O  O271  1  0.71733581  0.08366281  0.77978972  1  -1.134651  8.5e-05  -0.311841  -0.497503  7.3e-05  2.063535  0.0
