# generated using pymatgen
data_ZnH14C14(N3O)4
_symmetry_space_group_name_H-M   'P 1'
_cell_length_a   6.09584766
_cell_length_b   11.89769229
_cell_length_c   13.48233704
_cell_angle_alpha   92.88335753
_cell_angle_beta   90.00067912
_cell_angle_gamma   104.82834940
_symmetry_Int_Tables_number   1
_chemical_formula_structural   ZnH14C14(N3O)4
_chemical_formula_sum   'Zn2 H28 C28 N24 O8'
_cell_volume   943.98151551
_cell_formula_units_Z   2
loop_
 _symmetry_equiv_pos_site_id
 _symmetry_equiv_pos_as_xyz
  1  'x, y, z'
loop_
 _atom_site_type_symbol
 _atom_site_label
 _atom_site_symmetry_multiplicity
 _atom_site_fract_x
 _atom_site_fract_y
 _atom_site_fract_z
 _atom_site_occupancy
 _atom_site_hle17_bader_spin_density
 _atom_site_hle17_ddec_charge
 _atom_site_hle17_ddec_spin_density
 _atom_site_hle17_ddec_sum_bond_order
 _atom_site_hle17_magmom
 _atom_site_hse06_10hf_bader_spin_density
 _atom_site_hse06_10hf_ddec_charge
 _atom_site_hse06_10hf_ddec_spin_density
 _atom_site_hse06_10hf_ddec_sum_bond_order
 _atom_site_hse06_10hf_magmom
 _atom_site_hse06_bader_spin_density
 _atom_site_hse06_ddec_charge
 _atom_site_hse06_ddec_spin_density
 _atom_site_hse06_ddec_sum_bond_order
 _atom_site_hse06_magmom
 _atom_site_pbe_bader_spin_density
 _atom_site_pbe_cm5_charge
 _atom_site_pbe_ddec_charge
 _atom_site_pbe_ddec_spin_density
 _atom_site_pbe_ddec_sum_bond_order
 _atom_site_pbe_magmom
Zn  Zn0  1  0.05704465  0.00003523  0.75009429  1  0  1.017713  0  1.87195  0  0  0.827796  0  2.349655  0  0  0.873674  0  2.29489  0  0  0.703552  0.795781  0  2.387351  0
Zn  Zn1  1  0.94295093  0.99997020  0.24990545  1  0  1.017718  0  1.871945  0  0  0.827738  0  2.349693  0  0  0.873616  0  2.294924  0  0  0.703568  0.79572  0  2.387392  0
H  H2  1  0.49550987  0.62482081  0.13587119  1  0  0.13155  0  0.939482  0  0  0.138566  0  1.011833  0  0  0.14131  0  1.010513  0  0  0.108192  0.136652  0  1.012747  0
H  H3  1  0.87217934  0.37545701  0.36409757  1  0  0.13157  0  0.939993  0  0  0.138662  0  1.011955  0  0  0.141448  0  1.010597  0  0  0.108167  0.136762  0  1.012902  0
H  H4  1  0.50450147  0.37517679  0.86412747  1  0  0.131582  0  0.939449  0  0  0.138579  0  1.011781  0  0  0.141318  0  1.010468  0  0  0.108216  0.136668  0  1.012697  0
H  H5  1  0.12781744  0.62454755  0.63590659  1  0  0.131609  0  0.939965  0  0  0.13867  0  1.011936  0  0  0.141457  0  1.010581  0  0  0.108176  0.136771  0  1.012884  0
H  H6  1  0.36215077  0.73869032  0.11546783  1  0  0.128354  0  0.928805  0  0  0.14199  0  0.987203  0  0  0.14472  0  0.98529  0  0  0.109725  0.139973  0  0.98868  0
H  H7  1  0.62461117  0.26169431  0.38432427  1  0  0.128227  0  0.927661  0  0  0.141902  0  0.985812  0  0  0.144666  0  0.983884  0  0  0.109256  0.139886  0  0.987371  0
H  H8  1  0.63786276  0.26131163  0.88453028  1  0  0.128316  0  0.928895  0  0  0.141921  0  0.98727  0  0  0.144645  0  0.98537  0  0  0.109699  0.139911  0  0.988748  0
H  H9  1  0.37538856  0.73831287  0.61567777  1  0  0.128245  0  0.927708  0  0  0.141917  0  0.985828  0  0  0.144683  0  0.9839  0  0  0.109234  0.139904  0  0.987388  0
H  H10  1  0.64782417  0.62605025  0.97120712  1  0  0.084269  0  0.923443  0  0  0.086355  0  0.99711  0  0  0.088676  0  0.994174  0  0  0.141248  0.084728  0  0.99913  0
H  H11  1  0.02242320  0.37406670  0.52885529  1  0  0.084781  0  0.924428  0  0  0.087169  0  0.998466  0  0  0.089521  0  0.995529  0  0  0.141639  0.085505  0  1.000433  0
H  H12  1  0.35218805  0.37394908  0.02878790  1  0  0.084247  0  0.923397  0  0  0.086243  0  0.997204  0  0  0.088557  0  0.994262  0  0  0.141199  0.084618  0  0.999215  0
H  H13  1  0.97757218  0.62593177  0.47114786  1  0  0.084763  0  0.924453  0  0  0.087143  0  0.998515  0  0  0.089496  0  0.995577  0  0  0.14161  0.085475  0  1.000486  0
H  H14  1  0.88866267  0.75039925  0.84806944  1  0  0.112342  0  0.956972  0  0  0.118977  0  1.02279  0  0  0.121576  0  1.019797  0  0  0.145387  0.11698  0  1.025018  0
H  H15  1  0.13859642  0.24965174  0.65213949  1  0  0.111101  0  0.955642  0  0  0.117967  0  1.021335  0  0  0.12044  0  1.018459  0  0  0.144966  0.11605  0  1.023501  0
H  H16  1  0.11135859  0.24961489  0.15193736  1  0  0.112317  0  0.957025  0  0  0.118935  0  1.022843  0  0  0.121534  0  1.019852  0  0  0.145401  0.116934  0  1.025074  0
H  H17  1  0.86140049  0.75034324  0.34785905  1  0  0.111093  0  0.95573  0  0  0.117986  0  1.021387  0  0  0.12046  0  1.018511  0  0  0.144994  0.116068  0  1.023551  0
H  H18  1  0.62817449  0.04558109  0.88809167  1  0  0.107489  0  0.946612  0  0  0.108867  0  1.019089  0  0  0.11182  0  1.015229  0  0  0.137675  0.106638  0  1.021968  0
H  H19  1  0.58320959  0.95450532  0.61169844  1  0  0.107313  0  0.945523  0  0  0.108576  0  1.018314  0  0  0.111549  0  1.014424  0  0  0.137462  0.106325  0  1.021227  0
H  H20  1  0.37179116  0.95441041  0.11190301  1  0  0.107503  0  0.946549  0  0  0.108932  0  1.018974  0  0  0.111883  0  1.015116  0  0  0.137687  0.1067  0  1.021859  0
H  H21  1  0.41676751  0.04549924  0.38830201  1  0  0.107296  0  0.945524  0  0  0.108557  0  1.018305  0  0  0.111529  0  1.01442  0  0  0.137458  0.106307  0  1.021218  0
H  H22  1  0.01745735  0.45673608  0.77477537  1  0  0.090181  0  0.952214  0  0  0.092304  0  1.02394  0  0  0.095475  0  1.020362  0  0  0.126521  0.089951  0  1.026545  0
H  H23  1  0.56095314  0.54303829  0.72536540  1  0  0.090921  0  0.951482  0  0  0.092822  0  1.023501  0  0  0.096058  0  1.019842  0  0  0.126951  0.090447  0  1.026123  0
H  H24  1  0.98254767  0.54325542  0.22522450  1  0  0.0902  0  0.952153  0  0  0.092323  0  1.023889  0  0  0.095483  0  1.020322  0  0  0.126513  0.089968  0  1.026493  0
H  H25  1  0.43904278  0.45696453  0.27463868  1  0  0.090891  0  0.95151  0  0  0.092776  0  1.023537  0  0  0.09601  0  1.019878  0  0  0.126953  0.0904  0  1.026159  0
H  H26  1  0.06572353  0.69602316  0.01903840  1  0  0.112604  0  0.9851  0  0  0.116943  0  1.057537  0  0  0.121142  0  1.052075  0  0  0.133265  0.11385  0  1.061388  0
H  H27  1  0.37045903  0.30399118  0.48086529  1  0  0.112782  0  0.984116  0  0  0.116466  0  1.057096  0  0  0.120612  0  1.051758  0  0  0.133137  0.113367  0  1.060999  0
H  H28  1  0.93428444  0.30397095  0.98095788  1  0  0.112549  0  0.98518  0  0  0.116886  0  1.057628  0  0  0.121079  0  1.052184  0  0  0.133203  0.113792  0  1.061484  0
H  H29  1  0.62953877  0.69600554  0.51914000  1  0  0.112776  0  0.984189  0  0  0.116475  0  1.057147  0  0  0.120624  0  1.051802  0  0  0.133138  0.113375  0  1.061052  0
C  C30  1  0.72250207  0.79681510  0.14132763  1  0  0.697686  0  3.875741  0  0  0.651947  0  4.1774  0  0  0.685175  0  4.17076  0  0  0.198523  0.629409  0  4.181102  0
C  C31  1  0.92662345  0.20334876  0.35853404  1  0  0.699491  0  3.871438  0  0  0.653651  0  4.173119  0  0  0.686866  0  4.166495  0  0  0.198149  0.631183  0  4.176811  0
C  C32  1  0.27751594  0.20318598  0.85866821  1  0  0.697601  0  3.875655  0  0  0.651862  0  4.177285  0  0  0.685088  0  4.170644  0  0  0.198421  0.629325  0  4.180991  0
C  C33  1  0.07337594  0.79666102  0.64146367  1  0  0.699394  0  3.87128  0  0  0.653471  0  4.173082  0  0  0.686688  0  4.166459  0  0  0.198093  0.631003  0  4.176775  0
C  C34  1  0.51257148  0.70708741  0.09914529  1  0  -0.337129  0  3.630068  0  0  -0.384322  0  3.88005  0  0  -0.390724  0  3.885541  0  0  -0.160456  -0.379817  0  3.876363  0
C  C35  1  0.80657888  0.29317547  0.40074044  1  0  -0.338296  0  3.627657  0  0  -0.384696  0  3.87858  0  0  -0.391155  0  3.884136  0  0  -0.16031  -0.380311  0  3.874845  0
C  C36  1  0.48744325  0.29291366  0.90085427  1  0  -0.337188  0  3.630263  0  0  -0.384178  0  3.880106  0  0  -0.390587  0  3.885574  0  0  -0.160448  -0.379658  0  3.876377  0
C  C37  1  0.19342446  0.70682909  0.59926149  1  0  -0.338496  0  3.627792  0  0  -0.384772  0  3.878608  0  0  -0.391259  0  3.884218  0  0  -0.160372  -0.380379  0  3.874845  0
C  C38  1  0.53036097  0.68050084  0.98781666  1  0  0.224871  0  3.588033  0  0  0.1716  0  3.843161  0  0  0.181532  0  3.853281  0  0  0.141853  0.164735  0  3.836568  0
C  C39  1  0.85065104  0.31964334  0.51207034  1  0  0.226435  0  3.586205  0  0  0.17002  0  3.846752  0  0  0.179937  0  3.856833  0  0  0.141603  0.163362  0  3.839999  0
C  C40  1  0.46964502  0.31949588  0.01217900  1  0  0.225075  0  3.587878  0  0  0.171662  0  3.843254  0  0  0.181642  0  3.853293  0  0  0.14191  0.164796  0  3.836672  0
C  C41  1  0.14934883  0.68035425  0.48793203  1  0  0.226461  0  3.586292  0  0  0.170031  0  3.846786  0  0  0.17995  0  3.856874  0  0  0.141662  0.16338  0  3.840033  0
C  C42  1  0.79188526  0.81142686  0.87198804  1  0  0.205547  0  3.616571  0  0  0.136296  0  3.880691  0  0  0.152635  0  3.890582  0  0  0.176472  0.125739  0  3.873837  0
C  C43  1  0.98081959  0.18868117  0.62809725  1  0  0.205438  0  3.615632  0  0  0.136253  0  3.879446  0  0  0.152674  0  3.889382  0  0  0.176101  0.125638  0  3.872582  0
C  C44  1  0.20812050  0.18857596  0.12801604  1  0  0.205692  0  3.616752  0  0  0.136471  0  3.880857  0  0  0.15281  0  3.890755  0  0  0.176507  0.125916  0  3.874005  0
C  C45  1  0.01916638  0.81131817  0.37190445  1  0  0.205492  0  3.615568  0  0  0.136302  0  3.879385  0  0  0.152719  0  3.889314  0  0  0.176157  0.125685  0  3.872523  0
C  C46  1  0.65392872  0.95941468  0.89407087  1  0  0.231287  0  3.655655  0  0  0.179623  0  3.937194  0  0  0.19256  0  3.947647  0  0  0.162534  0.171177  0  3.930047  0
C  C47  1  0.69513063  0.04070043  0.60584301  1  0  0.23211  0  3.653153  0  0  0.180432  0  3.934742  0  0  0.193369  0  3.945181  0  0  0.162544  0.172  0  3.927605  0
C  C48  1  0.34604939  0.04058203  0.10592182  1  0  0.231289  0  3.655642  0  0  0.17961  0  3.93713  0  0  0.192549  0  3.947585  0  0  0.162538  0.171162  0  3.92999  0
C  C49  1  0.30484744  0.95930936  0.39416582  1  0  0.231994  0  3.653048  0  0  0.180334  0  3.934663  0  0  0.193262  0  3.945104  0  0  0.162398  0.171898  0  3.927535  0
C  C50  1  0.08509900  0.51618428  0.83768423  1  0  0.198149  0  3.718131  0  0  0.155433  0  4.004535  0  0  0.16559  0  4.017044  0  0  0.139102  0.148903  0  3.995973  0
C  C51  1  0.56942538  0.48367174  0.66239789  1  0  0.196741  0  3.716031  0  0  0.154261  0  4.002302  0  0  0.164392  0  4.014741  0  0  0.138313  0.147743  0  3.993783  0
C  C52  1  0.91490973  0.48380809  0.16231420  1  0  0.197949  0  3.718336  0  0  0.155224  0  4.004746  0  0  0.165388  0  4.017265  0  0  0.139005  0.148696  0  3.996173  0
C  C53  1  0.43057251  0.51632847  0.33760533  1  0  0.196784  0  3.715998  0  0  0.154316  0  4.002295  0  0  0.164448  0  4.014738  0  0  0.138291  0.147796  0  3.993771  0
C  C54  1  0.10469767  0.63759985  0.96048286  1  0  0.161972  0  3.655256  0  0  0.096808  0  3.938486  0  0  0.111132  0  3.947429  0  0  0.150844  0.087705  0  3.932102  0
C  C55  1  0.46771771  0.36238288  0.53949125  1  0  0.161537  0  3.655685  0  0  0.097382  0  3.938582  0  0  0.111757  0  3.947473  0  0  0.151208  0.088218  0  3.93228  0
C  C56  1  0.89531237  0.36239513  0.03951643  1  0  0.16188  0  3.65559  0  0  0.096746  0  3.938751  0  0  0.111066  0  3.947695  0  0  0.150864  0.087639  0  3.932373  0
C  C57  1  0.53228096  0.63761558  0.46051412  1  0  0.161695  0  3.655806  0  0  0.097526  0  3.938682  0  0  0.111904  0  3.947568  0  0  0.151323  0.088359  0  3.932386  0
N  N58  1  0.52700030  0.87995666  0.94966344  1  0  -0.252442  0  2.844974  0  0  -0.241248  0  3.116702  0  0  -0.25058  0  3.131543  0  0  -0.212548  -0.235101  0  3.106793  0
N  N59  1  0.64785733  0.12014626  0.55012662  1  0  -0.252476  0  2.843647  0  0  -0.241076  0  3.115095  0  0  -0.250431  0  3.129927  0  0  -0.211714  -0.234914  0  3.105196  0
N  N60  1  0.47297857  0.12003832  0.05032991  1  0  -0.252463  0  2.844923  0  0  -0.241281  0  3.116662  0  0  -0.250614  0  3.131503  0  0  -0.212513  -0.235136  0  3.106757  0
N  N61  1  0.35213608  0.87985482  0.44987442  1  0  -0.252515  0  2.843384  0  0  -0.241117  0  3.11483  0  0  -0.25047  0  3.129664  0  0  -0.211726  -0.234957  0  3.104935  0
N  N62  1  0.61751312  0.78708226  0.93476242  1  0  -0.013106  0  3.539795  0  0  0.072016  0  3.766535  0  0  0.058213  0  3.792702  0  0  -0.127385  0.081036  0  3.748978  0
N  N63  1  0.83116686  0.21300403  0.56511246  1  0  -0.012641  0  3.539973  0  0  0.073025  0  3.767343  0  0  0.059298  0  3.793442  0  0  -0.126926  0.081954  0  3.749791  0
N  N64  1  0.38248105  0.21291708  0.06523854  1  0  -0.013343  0  3.539803  0  0  0.071815  0  3.76658  0  0  0.058004  0  3.79273  0  0  -0.127442  0.08083  0  3.74903  0
N  N65  1  0.16882808  0.78699356  0.43488620  1  0  -0.012499  0  3.539689  0  0  0.073181  0  3.76704  0  0  0.059452  0  3.793143  0  0  -0.12686  0.08211  0  3.749483  0
N  N66  1  0.82007702  0.92072719  0.84526341  1  0  -0.408735  0  3.254189  0  0  -0.326385  0  3.556865  0  0  -0.34821  0  3.563403  0  0  -0.345939  -0.311801  0  3.552172  0
N  N67  1  0.89961825  0.07941420  0.65485371  1  0  -0.409195  0  3.25598  0  0  -0.326902  0  3.558682  0  0  -0.34874  0  3.565206  0  0  -0.346132  -0.31233  0  3.554015  0
N  N68  1  0.17992218  0.07927563  0.15473919  1  0  -0.40864  0  3.254306  0  0  -0.326316  0  3.556991  0  0  -0.34815  0  3.563541  0  0  -0.345969  -0.311736  0  3.552301  0
N  N69  1  0.10037341  0.92058339  0.34514273  1  0  -0.409147  0  3.256029  0  0  -0.326898  0  3.558794  0  0  -0.348716  0  3.565295  0  0  -0.346093  -0.31233  0  3.554134  0
N  N70  1  0.30248872  0.54151587  0.86512815  1  0  -0.279641  0  2.86673  0  0  -0.264754  0  3.137783  0  0  -0.273346  0  3.152515  0  0  -0.222424  -0.259038  0  3.127812  0
N  N71  1  0.76152675  0.45846006  0.63483796  1  0  -0.279236  0  2.864305  0  0  -0.26431  0  3.135235  0  0  -0.272921  0  3.149967  0  0  -0.22201  -0.258584  0  3.125289  0
N  N72  1  0.69751925  0.45847824  0.13487110  1  0  -0.279605  0  2.866868  0  0  -0.264717  0  3.137909  0  0  -0.273306  0  3.152641  0  0  -0.222484  -0.259  0  3.127934  0
N  N73  1  0.23847408  0.54154276  0.36516315  1  0  -0.279247  0  2.864305  0  0  -0.264325  0  3.13526  0  0  -0.272937  0  3.149992  0  0  -0.222001  -0.258597  0  3.12531  0
N  N74  1  0.31174776  0.61862614  0.94452797  1  0  -0.016646  0  3.537283  0  0  0.067297  0  3.767983  0  0  0.053863  0  3.793339  0  0  -0.13758  0.076132  0  3.750829  0
N  N75  1  0.69378936  0.38148268  0.55534156  1  0  -0.016592  0  3.53633  0  0  0.067931  0  3.767829  0  0  0.054476  0  3.79322  0  0  -0.138135  0.076727  0  3.75063  0
N  N76  1  0.68825987  0.38137058  0.05547066  1  0  -0.016578  0  3.5375  0  0  0.067429  0  3.768184  0  0  0.053982  0  3.793531  0  0  -0.137528  0.076263  0  3.751034  0
N  N77  1  0.30621181  0.61851753  0.44466093  1  0  -0.016615  0  3.536333  0  0  0.0679  0  3.767841  0  0  0.054446  0  3.79323  0  0  -0.138157  0.076694  0  3.750643  0
N  N78  1  0.95656482  0.57348257  0.89402306  1  0  -0.405944  0  2.996809  0  0  -0.370109  0  3.282731  0  0  -0.38536  0  3.294229  0  0  -0.345885  -0.359844  0  3.274422  0
N  N79  1  0.38361902  0.42635558  0.60605817  1  0  -0.405699  0  2.99741  0  0  -0.370188  0  3.283343  0  0  -0.385409  0  3.294736  0  0  -0.345887  -0.359915  0  3.275028  0
N  N80  1  0.04344850  0.42651241  0.10597548  1  0  -0.405794  0  2.997098  0  0  -0.369939  0  3.282964  0  0  -0.385191  0  3.294467  0  0  -0.34577  -0.359673  0  3.274649  0
N  N81  1  0.61637756  0.57364202  0.39394790  1  0  -0.405803  0  2.997521  0  0  -0.370297  0  3.283468  0  0  -0.385518  0  3.294858  0  0  -0.345987  -0.360022  0  3.275156  0
O  O82  1  0.67693843  0.87628284  0.20116193  1  0  -0.650202  0  1.997251  0  0  -0.575637  0  2.263499  0  0  -0.604079  0  2.248071  0  0  -0.338671  -0.55576  0  2.273413  0
O  O83  1  0.80112001  0.12381574  0.29887845  1  0  -0.652395  0  1.996681  0  0  -0.577317  0  2.262486  0  0  -0.605763  0  2.247047  0  0  -0.339493  -0.557422  0  2.272321  0
O  O84  1  0.32306896  0.12371997  0.79882509  1  0  -0.650193  0  1.997009  0  0  -0.575675  0  2.263315  0  0  -0.604115  0  2.247884  0  0  -0.338684  -0.555807  0  2.273246  0
O  O85  1  0.19886747  0.87619317  0.70112442  1  0  -0.65221  0  1.996514  0  0  -0.577198  0  2.262456  0  0  -0.605638  0  2.247013  0  0  -0.33932  -0.557326  0  2.272343  0
O  O86  1  0.91753547  0.79008161  0.11805919  1  0  -0.630907  0  1.897269  0  0  -0.586033  0  2.120136  0  0  -0.609538  0  2.112197  0  0  -0.331993  -0.569711  0  2.125091  0
O  O87  1  0.12851588  0.21006968  0.38152546  1  0  -0.631279  0  1.895835  0  0  -0.586376  0  2.118693  0  0  -0.609907  0  2.110876  0  0  -0.33093  -0.570007  0  2.123524  0
O  O88  1  0.08248408  0.20991598  0.88194095  1  0  -0.630777  0  1.89727  0  0  -0.585955  0  2.120178  0  0  -0.609456  0  2.112239  0  0  -0.331875  -0.569636  0  2.125137  0
O  O89  1  0.87147840  0.78993313  0.61847492  1  0  -0.631202  0  1.895756  0  0  -0.586275  0  2.118671  0  0  -0.609808  0  2.11086  0  0  -0.330962  -0.569903  0  2.123501  0
