# generated using pymatgen
data_AgH9C6N4O5
_symmetry_space_group_name_H-M   'P 1'
_cell_length_a   9.38677948
_cell_length_b   9.38677638
_cell_length_c   12.37106076
_cell_angle_alpha   68.45433661
_cell_angle_beta   68.45440061
_cell_angle_gamma   74.75226144
_symmetry_Int_Tables_number   1
_chemical_formula_structural   AgH9C6N4O5
_chemical_formula_sum   'Ag4 H36 C24 N16 O20'
_cell_volume   932.62527047
_cell_formula_units_Z   4
loop_
 _symmetry_equiv_pos_site_id
 _symmetry_equiv_pos_as_xyz
  1  'x, y, z'
loop_
 _atom_site_type_symbol
 _atom_site_label
 _atom_site_symmetry_multiplicity
 _atom_site_fract_x
 _atom_site_fract_y
 _atom_site_fract_z
 _atom_site_occupancy
 _atom_site_hle17_bader_spin_density
 _atom_site_hle17_ddec_charge
 _atom_site_hle17_ddec_spin_density
 _atom_site_hle17_ddec_sum_bond_order
 _atom_site_hle17_magmom
 _atom_site_hse06_10hf_bader_spin_density
 _atom_site_hse06_10hf_ddec_charge
 _atom_site_hse06_10hf_ddec_spin_density
 _atom_site_hse06_10hf_ddec_sum_bond_order
 _atom_site_hse06_10hf_magmom
 _atom_site_hse06_bader_spin_density
 _atom_site_hse06_ddec_charge
 _atom_site_hse06_ddec_spin_density
 _atom_site_hse06_ddec_sum_bond_order
 _atom_site_hse06_magmom
 _atom_site_pbe_bader_spin_density
 _atom_site_pbe_cm5_charge
 _atom_site_pbe_ddec_charge
 _atom_site_pbe_ddec_spin_density
 _atom_site_pbe_ddec_sum_bond_order
 _atom_site_pbe_magmom
Ag  Ag0  1  0.69857928  0.55742614  0.45284872  1  0  0.593228  0  1.325819  0  0  0.440146  0  1.778911  0  0  0.47436  0  1.726746  0  0  0.473463  0.416451  0  1.814133  0
Ag  Ag1  1  0.44257256  0.30141847  0.04715370  1  0  0.593226  0  1.32578  0  0  0.440127  0  1.778886  0  0  0.474339  0  1.726729  0  0  0.47346  0.416427  0  1.814123  0
Ag  Ag2  1  0.30142071  0.44257220  0.54715216  1  0  0.593219  0  1.32582  0  0  0.440125  0  1.778907  0  0  0.474332  0  1.726749  0  0  0.473474  0.416431  0  1.814133  0
Ag  Ag3  1  0.55742629  0.69857986  0.95284750  1  0  0.593203  0  1.325827  0  0  0.440099  0  1.778924  0  0  0.474313  0  1.726761  0  0  0.473456  0.416398  0  1.81416  0
H  H4  1  0.27446577  0.97921215  0.61521313  1  0  0.160194  0  0.988751  0  0  0.165862  0  1.056007  0  0  0.170311  0  1.054546  0  0  0.113313  0.162384  0  1.057846  0
H  H5  1  0.02078839  0.72553583  0.88478468  1  0  0.160196  0  0.988747  0  0  0.165863  0  1.056011  0  0  0.170312  0  1.054552  0  0  0.113319  0.162386  0  1.057849  0
H  H6  1  0.72553519  0.02078737  0.38478635  1  0  0.160203  0  0.988758  0  0  0.165864  0  1.056031  0  0  0.170316  0  1.054567  0  0  0.11331  0.162387  0  1.057867  0
H  H7  1  0.97921221  0.27446600  0.11521345  1  0  0.160204  0  0.98874  0  0  0.165869  0  1.056006  0  0  0.170318  0  1.054545  0  0  0.113317  0.162391  0  1.057844  0
H  H8  1  0.16743876  0.09998190  0.88063337  1  0  0.110117  0  0.972283  0  0  0.126272  0  1.034177  0  0  0.127237  0  1.034162  0  0  0.106666  0.125541  0  1.03441  0
H  H9  1  0.90002202  0.83256204  0.61936480  1  0  0.110097  0  0.972304  0  0  0.12625  0  1.034202  0  0  0.127217  0  1.034185  0  0  0.106658  0.125519  0  1.034431  0
H  H10  1  0.83256184  0.90001993  0.11936557  1  0  0.110112  0  0.972299  0  0  0.126265  0  1.034196  0  0  0.127232  0  1.03418  0  0  0.10666  0.125534  0  1.034428  0
H  H11  1  0.09997990  0.16743864  0.38063408  1  0  0.110124  0  0.972293  0  0  0.126282  0  1.034175  0  0  0.127247  0  1.03416  0  0  0.106667  0.125551  0  1.034406  0
H  H12  1  0.10840162  0.01400747  0.79889899  1  0  0.094912  0  0.945115  0  0  0.108124  0  1.015127  0  0  0.10893  0  1.014774  0  0  0.09897  0.107664  0  1.015257  0
H  H13  1  0.98599408  0.89160076  0.70110103  1  0  0.094935  0  0.94507  0  0  0.108153  0  1.015078  0  0  0.10896  0  1.014725  0  0  0.098977  0.107692  0  1.015207  0
H  H14  1  0.89160031  0.98599320  0.20110071  1  0  0.09492  0  0.945102  0  0  0.108138  0  1.01511  0  0  0.108944  0  1.014757  0  0  0.098969  0.107677  0  1.01524  0
H  H15  1  0.01400652  0.10840106  0.29889872  1  0  0.094921  0  0.945095  0  0  0.108135  0  1.015113  0  0  0.108941  0  1.014759  0  0  0.098969  0.107674  0  1.015241  0
H  H16  1  0.25062485  0.14336799  0.71746858  1  0  0.082613  0  0.970279  0  0  0.090644  0  1.05586  0  0  0.092661  0  1.052474  0  0  0.091614  0.088841  0  1.058997  0
H  H17  1  0.85663465  0.74937319  0.78252992  1  0  0.082664  0  0.97022  0  0  0.090695  0  1.055799  0  0  0.092713  0  1.052408  0  0  0.091638  0.088876  0  1.058948  0
H  H18  1  0.74937479  0.85663268  0.28253014  1  0  0.082623  0  0.970286  0  0  0.090652  0  1.055866  0  0  0.092668  0  1.05248  0  0  0.09162  0.088841  0  1.059009  0
H  H19  1  0.14336878  0.25062519  0.21746838  1  0  0.082601  0  0.970291  0  0  0.090653  0  1.055847  0  0  0.092669  0  1.052462  0  0  0.091621  0.088837  0  1.058996  0
H  H20  1  0.32745105  0.93825237  0.32839128  1  0  0.118243  0  0.953368  0  0  0.134845  0  1.01127  0  0  0.135788  0  1.011376  0  0  0.109007  0.134045  0  1.011295  0
H  H21  1  0.06174653  0.67254943  0.17160683  1  0  0.118239  0  0.953397  0  0  0.134823  0  1.011323  0  0  0.135765  0  1.011427  0  0  0.109001  0.134023  0  1.011345  0
H  H22  1  0.67254762  0.06174712  0.67160965  1  0  0.118229  0  0.953382  0  0  0.134827  0  1.011291  0  0  0.135773  0  1.011395  0  0  0.109007  0.134028  0  1.011315  0
H  H23  1  0.93825311  0.32745123  0.82839189  1  0  0.118248  0  0.953399  0  0  0.134839  0  1.011306  0  0  0.135782  0  1.011412  0  0  0.109009  0.134039  0  1.01133  0
H  H24  1  0.32683201  0.04262954  0.42432942  1  0  0.088518  0  0.96373  0  0  0.102778  0  1.032171  0  0  0.10244  0  1.033709  0  0  0.097434  0.102907  0  1.031196  0
H  H25  1  0.95736883  0.67317019  0.07566867  1  0  0.088495  0  0.96373  0  0  0.102748  0  1.032181  0  0  0.102402  0  1.033739  0  0  0.097424  0.102878  0  1.031206  0
H  H26  1  0.67316913  0.95736881  0.57567195  1  0  0.088485  0  0.9637  0  0  0.10274  0  1.03215  0  0  0.102392  0  1.033715  0  0  0.097407  0.102869  0  1.031174  0
H  H27  1  0.04262949  0.32683162  0.92433010  1  0  0.088491  0  0.9637  0  0  0.102748  0  1.032152  0  0  0.102406  0  1.033699  0  0  0.097415  0.102877  0  1.031177  0
H  H28  1  0.20010174  0.89891883  0.48176638  1  0  0.108571  0  0.941276  0  0  0.121486  0  1.009983  0  0  0.122773  0  1.008583  0  0  0.105929  0.120461  0  1.01095  0
H  H29  1  0.10108167  0.79989859  0.01823210  1  0  0.108597  0  0.941254  0  0  0.121519  0  1.009934  0  0  0.122808  0  1.00853  0  0  0.10596  0.120491  0  1.010902  0
H  H30  1  0.79989904  0.10108183  0.51823444  1  0  0.108582  0  0.941233  0  0  0.121475  0  1.009958  0  0  0.122763  0  1.008557  0  0  0.105943  0.120452  0  1.010927  0
H  H31  1  0.89891815  0.20010092  0.98176770  1  0  0.108606  0  0.941258  0  0  0.121523  0  1.00994  0  0  0.122812  0  1.008537  0  0  0.105958  0.120496  0  1.010907  0
H  H32  1  0.71267137  0.51090883  0.81668786  1  0  0.320703  0  0.93067  0  0  0.298391  0  1.007592  0  0  0.306828  0  0.998827  0  0  0.301113  0.292383  0  1.013863  0
H  H33  1  0.48909093  0.28732800  0.68331352  1  0  0.320678  0  0.930679  0  0  0.298367  0  1.007605  0  0  0.306803  0  0.998843  0  0  0.301111  0.292355  0  1.013888  0
H  H34  1  0.28732977  0.48908952  0.18331351  1  0  0.320638  0  0.930737  0  0  0.298325  0  1.007662  0  0  0.306758  0  0.998906  0  0  0.301094  0.292314  0  1.013937  0
H  H35  1  0.51090907  0.71267035  0.31668655  1  0  0.320677  0  0.930723  0  0  0.298372  0  1.007624  0  0  0.306805  0  0.998869  0  0  0.301108  0.292363  0  1.013898  0
H  H36  1  0.75624870  0.45944123  0.68259242  1  0  0.343379  0  0.928878  0  0  0.317168  0  1.002504  0  0  0.326761  0  0.993848  0  0  0.297264  0.310065  0  1.009182  0
H  H37  1  0.54055794  0.24375083  0.81740830  1  0  0.343338  0  0.928962  0  0  0.317127  0  1.002581  0  0  0.326719  0  0.993928  0  0  0.297246  0.310026  0  1.009257  0
H  H38  1  0.24375112  0.54055827  0.31740738  1  0  0.343343  0  0.928894  0  0  0.317123  0  1.002536  0  0  0.326713  0  0.993883  0  0  0.297222  0.31002  0  1.009214  0
H  H39  1  0.45944073  0.75624865  0.18259262  1  0  0.343366  0  0.928877  0  0  0.317148  0  1.002513  0  0  0.32674  0  0.993859  0  0  0.297247  0.310046  0  1.009191  0
C  C40  1  0.45426556  0.79364243  0.56462860  1  0  0.516712  0  3.84385  0  0  0.474284  0  4.119569  0  0  0.502421  0  4.125364  0  0  0.214412  0.455045  0  4.115566  0
C  C41  1  0.20635839  0.54573450  0.93537049  1  0  0.51671  0  3.843859  0  0  0.474238  0  4.119609  0  0  0.502374  0  4.125406  0  0  0.214398  0.454995  0  4.11561  0
C  C42  1  0.54573522  0.20635824  0.43536979  1  0  0.516702  0  3.843834  0  0  0.474236  0  4.119584  0  0  0.502373  0  4.125377  0  0  0.214391  0.454998  0  4.115578  0
C  C43  1  0.79364125  0.45426616  0.06462985  1  0  0.516703  0  3.843812  0  0  0.47423  0  4.119566  0  0  0.502366  0  4.125362  0  0  0.214387  0.454989  0  4.115561  0
C  C44  1  0.59058293  0.65034865  0.70190722  1  0  0.674089  0  3.817638  0  0  0.62372  0  4.08312  0  0  0.652529  0  4.091285  0  0  0.346224  0.60389  0  4.077446  0
C  C45  1  0.34965101  0.40941564  0.79809351  1  0  0.674057  0  3.817555  0  0  0.623686  0  4.08303  0  0  0.652495  0  4.091197  0  0  0.346188  0.603844  0  4.077373  0
C  C46  1  0.40941688  0.34965085  0.29809339  1  0  0.674073  0  3.817611  0  0  0.623718  0  4.083057  0  0  0.652528  0  4.091223  0  0  0.346246  0.60387  0  4.077413  0
C  C47  1  0.65034881  0.59058386  0.20190710  1  0  0.67415  0  3.817583  0  0  0.623767  0  4.083077  0  0  0.652576  0  4.09124  0  0  0.346248  0.603922  0  4.077425  0
C  C48  1  0.39903005  0.85108006  0.74763562  1  0  0.524372  0  3.836085  0  0  0.482779  0  4.105349  0  0  0.511668  0  4.110654  0  0  0.217446  0.463277  0  4.101029  0
C  C49  1  0.14892075  0.60097028  0.75236416  1  0  0.524327  0  3.836204  0  0  0.482664  0  4.105513  0  0  0.511552  0  4.110821  0  0  0.217418  0.463165  0  4.101188  0
C  C50  1  0.60097091  0.14891945  0.25236547  1  0  0.524396  0  3.836098  0  0  0.482728  0  4.105434  0  0  0.511618  0  4.110739  0  0  0.217421  0.463228  0  4.101108  0
C  C51  1  0.85108003  0.39903038  0.24763504  1  0  0.524386  0  3.836083  0  0  0.48279  0  4.10537  0  0  0.51168  0  4.110673  0  0  0.217441  0.463288  0  4.101046  0
C  C52  1  0.36521501  0.88625307  0.63885243  1  0  -0.470555  0  3.718476  0  0  -0.490303  0  3.980252  0  0  -0.510925  0  3.996802  0  0  -0.144385  -0.476514  0  3.969655  0
C  C53  1  0.11374887  0.63478601  0.86114683  1  0  -0.470514  0  3.7185  0  0  -0.49026  0  3.980307  0  0  -0.510886  0  3.996861  0  0  -0.144374  -0.476472  0  3.96971  0
C  C54  1  0.63478577  0.11374760  0.36114677  1  0  -0.470596  0  3.718579  0  0  -0.490312  0  3.980357  0  0  -0.510938  0  3.996907  0  0  -0.144384  -0.476524  0  3.969755  0
C  C55  1  0.88625191  0.36521466  0.13885319  1  0  -0.470548  0  3.718498  0  0  -0.490282  0  3.980277  0  0  -0.510906  0  3.996828  0  0  -0.144365  -0.476493  0  3.969678  0
C  C56  1  0.20484263  0.05511807  0.80328453  1  0  -0.073278  0  3.558885  0  0  -0.168909  0  3.812875  0  0  -0.162261  0  3.816155  0  0  -0.142708  -0.173706  0  3.811678  0
C  C57  1  0.94488525  0.79515613  0.69671279  1  0  -0.073282  0  3.558844  0  0  -0.16896  0  3.81285  0  0  -0.162312  0  3.816127  0  0  -0.142726  -0.173748  0  3.811675  0
C  C58  1  0.79515701  0.94488258  0.19671500  1  0  -0.073261  0  3.558916  0  0  -0.168926  0  3.812897  0  0  -0.162276  0  3.816176  0  0  -0.142713  -0.173719  0  3.811713  0
C  C59  1  0.05511819  0.20484224  0.30328551  1  0  -0.07328  0  3.558908  0  0  -0.168913  0  3.812876  0  0  -0.162265  0  3.816155  0  0  -0.142708  -0.173697  0  3.811685  0
C  C60  1  0.31315370  0.93168700  0.42172074  1  0  -0.077672  0  3.543502  0  0  -0.17113  0  3.796685  0  0  -0.164105  0  3.799503  0  0  -0.146026  -0.175416  0  3.794203  0
C  C61  1  0.06831262  0.68684768  0.07827772  1  0  -0.077604  0  3.543514  0  0  -0.171053  0  3.796651  0  0  -0.164027  0  3.799461  0  0  -0.146004  -0.175338  0  3.794165  0
C  C62  1  0.68684611  0.06831250  0.57828068  1  0  -0.077608  0  3.543323  0  0  -0.171028  0  3.796512  0  0  -0.164007  0  3.799323  0  0  -0.146009  -0.175317  0  3.794031  0
C  C63  1  0.93168588  0.31315297  0.92172213  1  0  -0.077696  0  3.543476  0  0  -0.171131  0  3.796597  0  0  -0.16411  0  3.799412  0  0  -0.146043  -0.175414  0  3.794111  0
N  N64  1  0.56687713  0.67776916  0.59314699  1  0  -0.5773  0  3.178525  0  0  -0.499403  0  3.474436  0  0  -0.528401  0  3.479732  0  0  -0.371835  -0.479758  0  3.470932  0
N  N65  1  0.32222993  0.43312178  0.90685460  1  0  -0.577258  0  3.178473  0  0  -0.499351  0  3.474394  0  0  -0.528349  0  3.479692  0  0  -0.371788  -0.479698  0  3.470894  0
N  N66  1  0.43312136  0.32223149  0.40685367  1  0  -0.577285  0  3.178498  0  0  -0.499359  0  3.474374  0  0  -0.528359  0  3.479673  0  0  -0.371835  -0.479714  0  3.470882  0
N  N67  1  0.67776723  0.56688001  0.09314691  1  0  -0.577287  0  3.178514  0  0  -0.499353  0  3.474407  0  0  -0.528352  0  3.479707  0  0  -0.371809  -0.4797  0  3.470904  0
N  N68  1  0.50932576  0.73541257  0.78011404  1  0  -0.579641  0  3.1819  0  0  -0.499356  0  3.47192  0  0  -0.528871  0  3.478436  0  0  -0.369599  -0.478556  0  3.466431  0
N  N69  1  0.26458793  0.49067346  0.71988541  1  0  -0.579639  0  3.181863  0  0  -0.499328  0  3.471879  0  0  -0.528838  0  3.47839  0  0  -0.369623  -0.478525  0  3.466393  0
N  N70  1  0.49067388  0.26458809  0.21988548  1  0  -0.579613  0  3.181855  0  0  -0.499317  0  3.471892  0  0  -0.528833  0  3.478407  0  0  -0.369602  -0.478512  0  3.466409  0
N  N71  1  0.73541171  0.50932720  0.28011412  1  0  -0.579699  0  3.18189  0  0  -0.499416  0  3.471935  0  0  -0.528931  0  3.478446  0  0  -0.369634  -0.478613  0  3.466451  0
N  N72  1  0.69812895  0.53417113  0.73411358  1  0  -0.671476  0  3.11637  0  0  -0.629821  0  3.353454  0  0  -0.651972  0  3.34799  0  0  -0.569462  -0.61434  0  3.358361  0
N  N73  1  0.46582899  0.30186764  0.76588847  1  0  -0.671394  0  3.116377  0  0  -0.62976  0  3.35349  0  0  -0.651909  0  3.348027  0  0  -0.569439  -0.614276  0  3.358403  0
N  N74  1  0.30186972  0.46582836  0.26588654  1  0  -0.671359  0  3.116396  0  0  -0.629711  0  3.353485  0  0  -0.65186  0  3.348031  0  0  -0.569411  -0.614224  0  3.3584  0
N  N75  1  0.53416986  0.69813069  0.23411354  1  0  -0.671455  0  3.116394  0  0  -0.62979  0  3.35347  0  0  -0.651938  0  3.348011  0  0  -0.569446  -0.614305  0  3.358385  0
N  N76  1  0.02142350  0.71472297  0.40183439  1  0  0.706183  0  4.124405  0  0  0.738554  0  4.411807  0  0  0.765161  0  4.418207  0  0  0.10182  0.719238  0  4.407473  0
N  N77  1  0.28527799  0.97857507  0.09816365  1  0  0.706256  0  4.124449  0  0  0.738635  0  4.411865  0  0  0.765234  0  4.418264  0  0  0.10196  0.719321  0  4.407536  0
N  N78  1  0.97857500  0.28527768  0.59816384  1  0  0.706223  0  4.124547  0  0  0.738591  0  4.411977  0  0  0.765193  0  4.418376  0  0  0.101917  0.719276  0  4.407644  0
N  N79  1  0.71472297  0.02142444  0.90183664  1  0  0.706077  0  4.124616  0  0  0.738553  0  4.411919  0  0  0.765158  0  4.418318  0  0  0.101899  0.719241  0  4.407587  0
O  O80  1  0.96851555  0.62617667  0.37345019  1  0  -0.488566  0  1.830078  0  0  -0.468175  0  2.076359  0  0  -0.484435  0  2.066827  0  0  -0.207293  -0.456625  0  2.083287  0
O  O81  1  0.37382414  0.03148103  0.12654961  1  0  -0.488552  0  1.830125  0  0  -0.468168  0  2.076417  0  0  -0.484424  0  2.066885  0  0  -0.207327  -0.456616  0  2.083346  0
O  O82  1  0.03148180  0.37382397  0.62654917  1  0  -0.488562  0  1.830168  0  0  -0.468165  0  2.076459  0  0  -0.484422  0  2.066927  0  0  -0.207317  -0.456617  0  2.08339  0
O  O83  1  0.62617453  0.96851845  0.87345213  1  0  -0.488479  0  1.830117  0  0  -0.468116  0  2.076359  0  0  -0.484373  0  2.066826  0  0  -0.207295  -0.456567  0  2.083288  0
O  O84  1  0.16467183  0.68609473  0.39546006  1  0  -0.49155  0  1.812207  0  0  -0.469058  0  2.047966  0  0  -0.485375  0  2.03959  0  0  -0.199286  -0.457046  0  2.053268  0
O  O85  1  0.31390299  0.83532885  0.10453835  1  0  -0.491628  0  1.812318  0  0  -0.469125  0  2.048071  0  0  -0.485454  0  2.03971  0  0  -0.199349  -0.457113  0  2.053374  0
O  O86  1  0.83532932  0.31390362  0.60453807  1  0  -0.491589  0  1.812323  0  0  -0.469118  0  2.048107  0  0  -0.485447  0  2.039745  0  0  -0.199338  -0.457106  0  2.053407  0
O  O87  1  0.68609664  0.16467181  0.89546199  1  0  -0.491566  0  1.812307  0  0  -0.469104  0  2.048031  0  0  -0.485438  0  2.039674  0  0  -0.199336  -0.457092  0  2.053333  0
O  O88  1  0.93623012  0.82988838  0.43322756  1  0  -0.46987  0  1.76084  0  0  -0.459334  0  1.979239  0  0  -0.472462  0  1.973598  0  0  -0.192564  -0.449573  0  1.983267  0
O  O89  1  0.17011245  0.06377088  0.06677093  1  0  -0.469893  0  1.760778  0  0  -0.459372  0  1.9792  0  0  -0.472494  0  1.973556  0  0  -0.1926  -0.449612  0  1.983228  0
O  O90  1  0.06376952  0.17011228  0.56677278  1  0  -0.46988  0  1.76083  0  0  -0.459346  0  1.979241  0  0  -0.472472  0  1.973601  0  0  -0.192583  -0.449584  0  1.983264  0
O  O91  1  0.82988833  0.93622979  0.93322909  1  0  -0.469831  0  1.760918  0  0  -0.459341  0  1.979298  0  0  -0.472465  0  1.973656  0  0  -0.192574  -0.449576  0  1.983318  0
O  O92  1  0.32522555  0.92735420  0.82947495  1  0  -0.247164  0  2.341712  0  0  -0.162129  0  2.577777  0  0  -0.182757  0  2.578844  0  0  -0.159448  -0.147744  0  2.577537  0
O  O93  1  0.07264862  0.67477599  0.67052471  1  0  -0.247196  0  2.341867  0  0  -0.162056  0  2.577885  0  0  -0.182685  0  2.578952  0  0  -0.159438  -0.147675  0  2.57764  0
O  O94  1  0.67477637  0.07264648  0.17052475  1  0  -0.247215  0  2.341775  0  0  -0.162094  0  2.577806  0  0  -0.182722  0  2.57887  0  0  -0.159438  -0.147712  0  2.577563  0
O  O95  1  0.92735426  0.32522586  0.32947440  1  0  -0.247177  0  2.341718  0  0  -0.162165  0  2.577803  0  0  -0.182793  0  2.578868  0  0  -0.159461  -0.147782  0  2.577561  0
O  O96  1  0.43536356  0.81202514  0.45748482  1  0  -0.294745  0  2.383251  0  0  -0.207421  0  2.630514  0  0  -0.228278  0  2.629039  0  0  -0.172068  -0.192895  0  2.63048  0
O  O97  1  0.18797423  0.56463678  0.04251409  1  0  -0.294857  0  2.383273  0  0  -0.20747  0  2.630496  0  0  -0.228319  0  2.629009  0  0  -0.172093  -0.192938  0  2.630458  0
O  O98  1  0.56463608  0.18797552  0.54251471  1  0  -0.294767  0  2.383165  0  0  -0.207421  0  2.630418  0  0  -0.228273  0  2.628935  0  0  -0.172054  -0.192894  0  2.630384  0
O  O99  1  0.81202445  0.43536271  0.95748603  1  0  -0.294766  0  2.383182  0  0  -0.20741  0  2.630432  0  0  -0.228259  0  2.628945  0  0  -0.172069  -0.192883  0  2.630396  0
