# generated using pymatgen
data_Ni2H26C36S(N2O5)2
_symmetry_space_group_name_H-M   'P 1'
_cell_length_a   8.08435767
_cell_length_b   11.22608446
_cell_length_c   13.24644910
_cell_angle_alpha   107.33222022
_cell_angle_beta   107.76787479
_cell_angle_gamma   90.01244839
_symmetry_Int_Tables_number   1
_chemical_formula_structural   Ni2H26C36S(N2O5)2
_chemical_formula_sum   'Ni2 H26 C36 S1 N4 O10'
_cell_volume   1087.35827487
_cell_formula_units_Z   1
loop_
 _symmetry_equiv_pos_site_id
 _symmetry_equiv_pos_as_xyz
  1  'x, y, z'
loop_
 _atom_site_type_symbol
 _atom_site_label
 _atom_site_symmetry_multiplicity
 _atom_site_fract_x
 _atom_site_fract_y
 _atom_site_fract_z
 _atom_site_occupancy
 _atom_site_pbe_cm5_charge
 _atom_site_pbe_ddec_charge
 _atom_site_pbe_ddec_spin_density
 _atom_site_pbe_ddec_sum_bond_order
 _atom_site_pbe_magmom
Ni  Ni0  1  0.85717257  0.06903953  0.62422407  1  0.652324  0.811994  -1.770675  2.49674  -1.546
Ni  Ni1  1  0.23295816  0.93097681  0.37581522  1  0.652614  0.811786  -1.771057  2.497831  -1.546
H  H2  1  0.69107485  0.78933824  0.94473071  1  0.105924  0.128672  2.4e-05  1.015081  0.0
H  H3  1  0.74625830  0.21066845  0.05528391  1  0.106042  0.129096  -2.8e-05  1.014143  0.0
H  H4  1  0.42357667  0.69613824  0.77953525  1  0.0955  0.092745  -2.4e-05  1.004118  0.0
H  H5  1  0.64394542  0.30363882  0.22043113  1  0.095862  0.092919  -2e-05  1.004647  0.0
H  H6  1  0.33473834  0.79638421  0.62851351  1  0.092607  0.087316  4.7e-05  1.0635  0.0
H  H7  1  0.70625832  0.20338394  0.37144313  1  0.092488  0.087585  4.6e-05  1.06216  0.0
H  H8  1  0.68981393  0.81502056  0.45848927  1  0.122838  0.102139  -0.000652  1.005713  -0.001
H  H9  1  0.23123406  0.18509433  0.54154985  1  0.122792  0.102273  -0.000649  1.005325  -0.001
H  H10  1  0.67580335  0.59459386  0.45984660  1  0.105218  0.107285  -0.000509  1.022616  0.0
H  H11  1  0.21575296  0.40546594  0.54009604  1  0.104812  0.106878  -0.000508  1.022445  0.0
H  H12  1  0.04832962  0.72122887  0.79336852  1  0.117506  0.125655  -0.000462  0.986062  0.0
H  H13  1  0.25513924  0.27881267  0.20669413  1  0.117456  0.125758  -0.000464  0.985112  0.0
H  H14  1  0.04533694  0.93582624  0.77752783  1  0.119796  0.09179  -0.000495  1.011931  -0.001
H  H15  1  0.26812664  0.06423677  0.22262847  1  0.119939  0.091459  -0.000484  1.012112  -0.001
H  H16  1  0.10761324  0.30357863  0.74059872  1  0.126986  0.104201  -0.000572  0.985236  -0.001
H  H17  1  0.36700166  0.69656344  0.25937663  1  0.126359  0.102839  -0.000572  0.985422  -0.001
H  H18  1  0.12419750  0.52489620  0.74194635  1  0.111758  0.115496  -0.000479  1.00016  0.0
H  H19  1  0.38235407  0.47522526  0.25800213  1  0.11199  0.115521  -0.00048  1.000327  0.0
H  H20  1  0.58604939  0.45242358  0.52833683  1  0.102355  0.105745  -0.000399  1.035205  0.0
H  H21  1  0.05802246  0.54757397  0.47169386  1  0.102099  0.105163  -0.000401  1.034433  0.0
H  H22  1  0.59645472  0.23154798  0.53310473  1  0.118588  0.093046  -0.000591  1.029476  -0.001
H  H23  1  0.06348858  0.76840501  0.46692808  1  0.118882  0.094231  -0.000596  1.028342  -0.001
H  H24  1  0.19106487  0.02918297  0.61546398  1  0.29645  0.389987  -0.00043  0.953795  -0.001
H  H25  1  0.57566941  0.97091267  0.38454338  1  0.296697  0.38981  -0.00043  0.953725  -0.001
H  H26  1  0.18098278  0.09415410  0.73808514  1  0.329316  0.410259  1.2e-05  0.858741  0.0
H  H27  1  0.44287778  0.90593923  0.26192763  1  0.329317  0.410253  2.1e-05  0.858898  0.0
C  C28  1  0.54091389  0.94669936  0.71019188  1  -0.029188  -0.088655  -0.002068  3.986531  -0.003
C  C29  1  0.83078847  0.05318246  0.28972704  1  -0.028376  -0.086774  -0.002137  3.984399  -0.003
C  C30  1  0.68690713  0.00273151  0.80511566  1  -0.005948  -0.066693  -7.3e-05  3.903682  -0.001
C  C31  1  0.88169326  0.99714241  0.19474129  1  -0.005771  -0.067122  -0.000682  3.904298  -0.001
C  C32  1  0.73928206  0.94212308  0.88702409  1  -0.008922  0.038919  0.00017  3.981458  0.0
C  C33  1  0.85210430  0.05777630  0.11283353  1  -0.008987  0.038588  0.00014  3.98248  0.0
C  C34  1  0.64545681  0.83282966  0.87878943  1  -0.08229  -0.10122  -0.001053  3.943362  -0.001
C  C35  1  0.76659203  0.16709322  0.12116648  1  -0.081805  -0.10054  -0.000683  3.943882  -0.001
C  C36  1  0.49686866  0.78162480  0.78680619  1  -0.102855  -0.093798  0.000486  4.048359  0.0
C  C37  1  0.71005092  0.21821147  0.21317282  1  -0.103772  -0.094749  0.000465  4.050636  0.0
C  C38  1  0.44644355  0.83763430  0.70284089  1  -0.096604  -0.101871  -0.000702  4.012431  -0.001
C  C39  1  0.74364820  0.16219486  0.29712272  1  -0.096378  -0.10247  -0.000344  4.012677  0.0
C  C40  1  0.48712266  0.99480265  0.61254654  1  0.217659  0.583958  -0.001381  4.142654  -0.001
C  C41  1  0.87466514  0.00510078  0.38739999  1  0.21759  0.583532  -0.00148  4.13801  -0.001
C  C42  1  0.78378004  0.12908763  0.82751785  1  0.188194  0.563644  -0.00332  4.306252  -0.003
C  C43  1  0.95624878  0.87085486  0.17241682  1  0.188693  0.563051  -0.00331  4.305301  -0.003
C  C44  1  0.76756021  0.78988909  0.53086601  1  0.050711  0.101096  0.004816  3.926003  0.003
C  C45  1  0.23665634  0.21020407  0.46916475  1  0.050363  0.100624  0.004793  3.926226  0.003
C  C46  1  0.75987881  0.66696797  0.53272721  1  -0.082408  -0.172784  -0.002261  3.944656  -0.003
C  C47  1  0.22703048  0.33309462  0.46725131  1  -0.081875  -0.17277  -0.002257  3.943758  -0.003
C  C48  1  0.86171732  0.63736422  0.62716769  1  0.009974  0.097655  0.007435  3.992026  0.004
C  C49  1  0.23462822  0.36266957  0.37283306  1  0.010235  0.09828  0.007416  3.989583  0.004
C  C50  1  0.96937497  0.73605903  0.71604676  1  -0.076148  -0.163762  -0.002321  3.926863  -0.003
C  C51  1  0.25346149  0.26395589  0.28400008  1  -0.076084  -0.163521  -0.002324  3.923952  -0.003
C  C52  1  0.96912715  0.85647726  0.70798759  1  0.050897  0.098001  0.005529  3.952239  0.003
C  C53  1  0.26133444  0.14355707  0.29212528  1  0.050799  0.098304  0.005508  3.95333  0.003
C  C54  1  0.99580014  0.34007306  0.69360128  1  0.059477  0.113528  0.004282  3.915383  0.002
C  C55  1  0.30229330  0.66003201  0.30641465  1  0.060424  0.11545  0.004307  3.913988  0.002
C  C56  1  0.00322280  0.46398693  0.69430624  1  -0.079466  -0.176791  -0.002256  3.947986  -0.003
C  C57  1  0.30913730  0.53611451  0.30572052  1  -0.079661  -0.176371  -0.002261  3.94777  -0.003
C  C58  1  0.85691016  0.50801455  0.63213511  1  0.010305  0.09922  0.006464  3.999077  0.003
C  C59  1  0.22506793  0.49204046  0.36789273  1  0.009414  0.097533  0.006497  3.999176  0.003
C  C60  1  0.70657231  0.42309041  0.57432897  1  -0.084252  -0.176568  -0.002084  3.94044  -0.003
C  C61  1  0.13258982  0.57694876  0.42573065  1  -0.08327  -0.174457  -0.002091  3.937689  -0.003
C  C62  1  0.71034231  0.30023366  0.57699791  1  0.053481  0.104183  0.004311  3.921536  0.003
C  C63  1  0.13357755  0.69979842  0.42306632  1  0.052766  0.102395  0.004324  3.923342  0.003
S  S64  1  0.93666258  0.00002366  0.99995343  1  -0.010774  -0.060543  -0.001005  2.726733  -0.001
N  N65  1  0.86965626  0.88407752  0.61741244  1  -0.327504  -0.241674  -0.03786  3.605101  -0.059
N  N66  1  0.25235153  0.11599224  0.38269563  1  -0.327003  -0.241039  -0.037849  3.60619  -0.059
N  N67  1  0.85342392  0.25812317  0.63381912  1  -0.312508  -0.193079  -0.037663  3.506982  -0.058
N  N68  1  0.21972524  0.74193951  0.36619954  1  -0.312495  -0.193557  -0.037663  3.508445  -0.058
O  O69  1  0.59367891  0.05778136  0.59059057  1  -0.295827  -0.518356  -0.039456  2.418805  -0.066
O  O70  1  0.00303160  0.94204696  0.40937081  1  -0.295724  -0.51815  -0.039599  2.416502  -0.066
O  O71  1  0.32678479  0.96600393  0.54922678  1  -0.310503  -0.566743  -0.038088  2.440805  -0.061
O  O72  1  0.77775203  0.03407749  0.45076473  1  -0.310902  -0.566959  -0.038242  2.438387  -0.061
O  O73  1  0.91781128  0.12817002  0.79283318  1  -0.351098  -0.614812  -0.03988  2.353265  -0.065
O  O74  1  0.12499936  0.87193214  0.20727618  1  -0.351587  -0.614469  -0.039632  2.351825  -0.064
O  O75  1  0.73062680  0.22289571  0.88116117  1  -0.329548  -0.514815  -0.015373  2.04219  -0.024
O  O76  1  0.84958840  0.77696891  0.11871734  1  -0.329631  -0.514364  -0.015664  2.041442  -0.024
O  O77  1  0.13023159  0.09100710  0.66045095  1  -0.558061  -0.745346  -0.031525  2.198391  -0.049
O  O78  1  0.46984818  0.90905129  0.33956327  1  -0.558273  -0.745039  -0.031533  2.197713  -0.049
