# generated using pymatgen
data_ZnH20C29(NO4)2
_symmetry_space_group_name_H-M   'P 1'
_cell_length_a   9.59588270
_cell_length_b   11.57818701
_cell_length_c   13.19017627
_cell_angle_alpha   112.50087543
_cell_angle_beta   96.80988538
_cell_angle_gamma   97.11581798
_symmetry_Int_Tables_number   1
_chemical_formula_structural   ZnH20C29(NO4)2
_chemical_formula_sum   'Zn2 H40 C58 N4 O16'
_cell_volume   1321.27514551
_cell_formula_units_Z   2
loop_
 _symmetry_equiv_pos_site_id
 _symmetry_equiv_pos_as_xyz
  1  'x, y, z'
loop_
 _atom_site_type_symbol
 _atom_site_label
 _atom_site_symmetry_multiplicity
 _atom_site_fract_x
 _atom_site_fract_y
 _atom_site_fract_z
 _atom_site_occupancy
 _atom_site_hle17_bader_spin_density
 _atom_site_hle17_ddec_charge
 _atom_site_hle17_ddec_spin_density
 _atom_site_hle17_ddec_sum_bond_order
 _atom_site_hle17_magmom
 _atom_site_hse06_10hf_bader_spin_density
 _atom_site_hse06_10hf_ddec_charge
 _atom_site_hse06_10hf_ddec_spin_density
 _atom_site_hse06_10hf_ddec_sum_bond_order
 _atom_site_hse06_10hf_magmom
 _atom_site_hse06_bader_spin_density
 _atom_site_hse06_ddec_charge
 _atom_site_hse06_ddec_spin_density
 _atom_site_hse06_ddec_sum_bond_order
 _atom_site_hse06_magmom
 _atom_site_pbe_bader_spin_density
 _atom_site_pbe_cm5_charge
 _atom_site_pbe_ddec_charge
 _atom_site_pbe_ddec_spin_density
 _atom_site_pbe_ddec_sum_bond_order
 _atom_site_pbe_magmom
Zn  Zn0  1  0.95582445  0.89765156  0.74648004  1  0  0.977357  0  1.898887  0  0  0.783302  0  2.379709  0  0  0.830278  0  2.325354  0  0  0.69733  0.750879  0  2.416742  0
Zn  Zn1  1  0.04417608  0.10234686  0.25352053  1  0  0.977347  0  1.898949  0  0  0.783297  0  2.379785  0  0  0.83027  0  2.325426  0  0  0.697324  0.75086  0  2.416811  0
H  H2  1  0.70194691  0.70820285  0.40912480  1  0  0.107181  0  0.935711  0  0  0.117392  0  0.995654  0  0  0.121332  0  0.992431  0  0  0.106764  0.114436  0  0.998197  0
H  H3  1  0.29805295  0.29179746  0.59087482  1  0  0.107188  0  0.935719  0  0  0.117393  0  0.995666  0  0  0.121336  0  0.992444  0  0  0.10676  0.114435  0  0.998208  0
H  H4  1  0.25832925  0.53286266  0.27915322  1  0  0.109044  0  0.930509  0  0  0.119622  0  0.990253  0  0  0.122874  0  0.988171  0  0  0.108925  0.117269  0  0.991852  0
H  H5  1  0.74167147  0.46713669  0.72084616  1  0  0.109033  0  0.930569  0  0  0.119613  0  0.990312  0  0  0.122865  0  0.98823  0  0  0.108935  0.117262  0  0.991907  0
H  H6  1  0.42818337  0.65761610  0.62893974  1  0  0.112258  0  0.944205  0  0  0.118474  0  1.012143  0  0  0.122738  0  1.008359  0  0  0.108875  0.115366  0  1.014825  0
H  H7  1  0.57181753  0.34238421  0.37105997  1  0  0.112175  0  0.944283  0  0  0.118424  0  1.012175  0  0  0.122688  0  1.008393  0  0  0.108842  0.115319  0  1.014857  0
H  H8  1  0.62540251  0.61226143  0.21524408  1  0  0.082235  0  0.923647  0  0  0.10045  0  0.981317  0  0  0.10192  0  0.980123  0  0  0.096236  0.099393  0  0.98218  0
H  H9  1  0.37459820  0.38773792  0.78475529  1  0  0.082237  0  0.923644  0  0  0.100466  0  0.981315  0  0  0.101937  0  0.98012  0  0  0.09625  0.099416  0  0.982172  0
H  H10  1  0.46612837  0.49935377  0.15755346  1  0  0.09682  0  0.95905  0  0  0.110652  0  1.02603  0  0  0.111975  0  1.025336  0  0  0.097075  0.10977  0  1.026286  0
H  H11  1  0.53387234  0.50064559  0.84244591  1  0  0.096803  0  0.959034  0  0  0.110637  0  1.026042  0  0  0.11196  0  1.025347  0  0  0.097064  0.109764  0  1.026294  0
H  H12  1  0.58541181  0.64386013  0.03852416  1  0  0.096665  0  0.951071  0  0  0.107322  0  1.015178  0  0  0.110724  0  1.012617  0  0  0.101608  0.10482  0  1.017158  0
H  H13  1  0.41458871  0.35613827  0.96147488  1  0  0.096648  0  0.951103  0  0  0.1073  0  1.015224  0  0  0.110701  0  1.012656  0  0  0.101624  0.104801  0  1.0172  0
H  H14  1  0.29798289  0.89597681  0.02224700  1  0  0.113057  0  0.943839  0  0  0.11923  0  1.010754  0  0  0.123438  0  1.007161  0  0  0.107513  0.116197  0  1.013403  0
H  H15  1  0.70201649  0.10402633  0.97775201  1  0  0.113  0  0.943974  0  0  0.119205  0  1.010857  0  0  0.123413  0  1.007264  0  0  0.107521  0.116171  0  1.013503  0
H  H16  1  0.29616324  0.74455064  0.27209910  1  0  0.101482  0  0.970099  0  0  0.109598  0  1.036309  0  0  0.113126  0  1.034009  0  0  0.102384  0.107115  0  1.037856  0
H  H17  1  0.70383682  0.25545062  0.72790237  1  0  0.101428  0  0.970061  0  0  0.109561  0  1.036267  0  0  0.11309  0  1.033966  0  0  0.10236  0.107079  0  1.037814  0
H  H18  1  0.27338576  0.94811542  0.82473737  1  0  0.088048  0  0.948429  0  0  0.095892  0  1.012581  0  0  0.098598  0  1.009788  0  0  0.118985  0.093803  0  1.01481  0
H  H19  1  0.72661495  0.05188395  0.17526353  1  0  0.088009  0  0.948454  0  0  0.095853  0  1.012613  0  0  0.098558  0  1.00982  0  0  0.11896  0.093756  0  1.014845  0
H  H20  1  0.48897517  0.97741149  0.74672204  1  0  0.119523  0  0.951405  0  0  0.12857  0  1.011829  0  0  0.13139  0  1.012037  0  0  0.110528  0.126574  0  1.011788  0
H  H21  1  0.51102469  0.02258882  0.25327834  1  0  0.119554  0  0.951386  0  0  0.128604  0  1.011808  0  0  0.131423  0  1.012017  0  0  0.110534  0.126602  0  1.011768  0
H  H22  1  0.21097243  0.94691862  0.44856439  1  0  0.131951  0  0.987661  0  0  0.13908  0  1.051176  0  0  0.143366  0  1.048567  0  0  0.109197  0.135802  0  1.053588  0
H  H23  1  0.78902743  0.05308169  0.55143675  1  0  0.131914  0  0.987695  0  0  0.139047  0  1.051209  0  0  0.143333  0  1.0486  0  0  0.109193  0.135772  0  1.05362  0
H  H24  1  0.00654120  0.91643530  0.53969000  1  0  0.091333  0  0.933638  0  0  0.100994  0  0.994343  0  0  0.103453  0  0.992248  0  0  0.123019  0.099015  0  0.996107  0
H  H25  1  0.99345866  0.08356501  0.46031038  1  0  0.091323  0  0.933653  0  0  0.100987  0  0.994353  0  0  0.103446  0  0.992259  0  0  0.123016  0.099009  0  0.996116  0
H  H26  1  0.59913672  0.98999084  0.59611673  1  0  0.101425  0  0.94813  0  0  0.112758  0  1.008561  0  0  0.115108  0  1.008191  0  0  0.107802  0.110951  0  1.009089  0
H  H27  1  0.40086334  0.01001042  0.40388474  1  0  0.101439  0  0.948131  0  0  0.112779  0  1.00855  0  0  0.11513  0  1.008179  0  0  0.107815  0.110972  0  1.009077  0
H  H28  1  0.87143258  0.86434958  0.94148087  1  0  0.092782  0  0.921428  0  0  0.104502  0  0.97754  0  0  0.107231  0  0.974637  0  0  0.126008  0.102316  0  0.980072  0
H  H29  1  0.12856813  0.13564978  0.05852002  1  0  0.092779  0  0.921436  0  0  0.104498  0  0.977546  0  0  0.107228  0  0.974643  0  0  0.126023  0.102313  0  0.980076  0
H  H30  1  0.88145612  0.70706243  0.02579372  1  0  0.108334  0  0.938858  0  0  0.122488  0  0.991178  0  0  0.125473  0  0.990417  0  0  0.11309  0.120111  0  0.992346  0
H  H31  1  0.11854545  0.29293598  0.97420618  1  0  0.108326  0  0.938899  0  0  0.122476  0  0.991227  0  0  0.125463  0  0.990457  0  0  0.11309  0.120098  0  0.992399  0
H  H32  1  0.17599338  0.54646385  0.80904205  1  0  0.108472  0  0.931367  0  0  0.122543  0  0.983381  0  0  0.125526  0  0.98289  0  0  0.113436  0.120444  0  0.983918  0
H  H33  1  0.82400608  0.45353455  0.19095614  1  0  0.108486  0  0.931322  0  0  0.122552  0  0.983344  0  0  0.125535  0  0.982853  0  0  0.113437  0.120453  0  0.983881  0
H  H34  1  0.15658318  0.71329343  0.73642197  1  0  0.079987  0  0.956928  0  0  0.086715  0  1.023827  0  0  0.088887  0  1.022133  0  0  0.118728  0.085123  0  1.025032  0
H  H35  1  0.84341648  0.28670592  0.26357731  1  0  0.079981  0  0.95692  0  0  0.086714  0  1.023815  0  0  0.088885  0  1.02212  0  0  0.118735  0.085119  0  1.025022  0
H  H36  1  0.11035427  0.44638466  0.92725543  1  0  0.091129  0  0.941494  0  0  0.104969  0  0.997655  0  0  0.10785  0  0.996067  0  0  0.108003  0.102876  0  0.998949  0
H  H37  1  0.88964730  0.55361374  0.07274294  1  0  0.091155  0  0.941459  0  0  0.104997  0  0.997606  0  0  0.10788  0  0.996014  0  0  0.108017  0.102904  0  0.998899  0
H  H38  1  0.07716116  0.51069437  0.57570768  1  0  0.392829  0  0.897137  0  0  0.362673  0  0.975133  0  0  0.375768  0  0.961097  0  0  0.302798  0.35375  0  0.984464  0
H  H39  1  0.92283975  0.48930595  0.42429355  1  0  0.392942  0  0.896999  0  0  0.362751  0  0.975055  0  0  0.375844  0  0.961021  0  0  0.302829  0.353822  0  0.984408  0
H  H40  1  0.62127695  0.72455278  0.81415712  1  0  0.423722  0  0.867896  0  0  0.391645  0  0.944373  0  0  0.404259  0  0.926234  0  0  0.309021  0.382696  0  0.957246  0
H  H41  1  0.37872395  0.27544753  0.18584259  1  0  0.423737  0  0.86794  0  0  0.391664  0  0.944362  0  0  0.404279  0  0.92622  0  0  0.309034  0.382719  0  0.957231  0
C  C42  1  0.57690140  0.68852367  0.52799704  1  0  -0.071923  0  3.773133  0  0  -0.046891  0  4.01331  0  0  -0.057428  0  4.037859  0  0  -0.018875  -0.040155  0  3.996237  0
C  C43  1  0.42309951  0.31147664  0.47200267  1  0  -0.071817  0  3.773064  0  0  -0.046829  0  4.013276  0  0  -0.057365  0  4.037828  0  0  -0.018886  -0.040083  0  3.996201  0
C  C44  1  0.59583264  0.67528926  0.42062739  1  0  -0.084101  0  3.662317  0  0  -0.121795  0  3.911019  0  0  -0.119144  0  3.929328  0  0  -0.071653  -0.123179  0  3.898531  0
C  C45  1  0.40416807  0.32471010  0.57937199  1  0  -0.084152  0  3.66249  0  0  -0.121842  0  3.911188  0  0  -0.119199  0  3.929507  0  0  -0.071662  -0.123231  0  3.898695  0
C  C46  1  0.48322061  0.61898010  0.32934971  1  0  0.095376  0  3.726543  0  0  0.121786  0  3.96608  0  0  0.118506  0  3.990771  0  0  -0.00472  0.123725  0  3.94949  0
C  C47  1  0.51677867  0.38101736  0.67064967  1  0  0.09532  0  3.72669  0  0  0.121774  0  3.96619  0  0  0.118494  0  3.990881  0  0  -0.004719  0.123712  0  3.949591  0
C  C48  1  0.34861801  0.57857009  0.34814390  1  0  -0.07814  0  3.646275  0  0  -0.113551  0  3.8933  0  0  -0.109977  0  3.910204  0  0  -0.068348  -0.115863  0  3.882065  0
C  C49  1  0.65138376  0.42142928  0.65185632  1  0  -0.078083  0  3.646241  0  0  -0.11351  0  3.893263  0  0  -0.109936  0  3.910167  0  0  -0.06836  -0.11582  0  3.882021  0
C  C50  1  0.32782015  0.59351574  0.45573176  1  0  -0.087947  0  3.789854  0  0  -0.063987  0  4.030591  0  0  -0.075509  0  4.055848  0  0  -0.020262  -0.056534  0  4.013321  0
C  C51  1  0.67218056  0.40648361  0.54426762  1  0  -0.087912  0  3.789812  0  0  -0.063965  0  4.03055  0  0  -0.075486  0  4.055808  0  0  -0.020226  -0.05651  0  4.013279  0
C  C52  1  0.44263403  0.64703610  0.54546863  1  0  -0.05481  0  3.69325  0  0  -0.09657  0  3.94789  0  0  -0.09315  0  3.967916  0  0  -0.071417  -0.098124  0  3.9336  0
C  C53  1  0.55736582  0.35296421  0.45453175  1  0  -0.054793  0  3.693309  0  0  -0.096545  0  3.94792  0  0  -0.093127  0  3.967948  0  0  -0.071367  -0.098089  0  3.933636  0
C  C54  1  0.50942927  0.59941989  0.21374390  1  0  -0.195628  0  3.726819  0  0  -0.246947  0  3.968742  0  0  -0.247599  0  3.982165  0  0  -0.154145  -0.24617  0  3.959328  0
C  C55  1  0.49057249  0.40057947  0.78625632  1  0  -0.195557  0  3.72679  0  0  -0.246946  0  3.968766  0  0  -0.247598  0  3.98219  0  0  -0.154119  -0.246158  0  3.959333  0
C  C56  1  0.44839867  0.68361656  0.16219663  1  0  0.095687  0  3.72898  0  0  0.123645  0  3.966587  0  0  0.121037  0  3.992086  0  0  -0.008837  0.125067  0  3.949126  0
C  C57  1  0.55160080  0.31638184  0.83780308  1  0  0.09556  0  3.729089  0  0  0.12358  0  3.966658  0  0  0.120967  0  3.992161  0  0  -0.008867  0.124999  0  3.9492  0
C  C58  1  0.50052144  0.69420634  0.07040669  1  0  -0.119404  0  3.69594  0  0  -0.155858  0  3.945797  0  0  -0.154824  0  3.965892  0  0  -0.085391  -0.156004  0  3.932268  0
C  C59  1  0.49947593  0.30579205  0.92959133  1  0  -0.119294  0  3.69592  0  0  -0.155767  0  3.945773  0  0  -0.154723  0  3.965863  0  0  -0.085375  -0.15591  0  3.932244  0
C  C60  1  0.44570372  0.76909031  0.01897535  1  0  -0.083162  0  3.800998  0  0  -0.057942  0  4.039854  0  0  -0.067922  0  4.065112  0  0  -0.023202  -0.051508  0  4.022919  0
C  C61  1  0.55429469  0.23090808  0.98102351  1  0  -0.083242  0  3.801029  0  0  -0.058024  0  4.039909  0  0  -0.068007  0  4.065166  0  0  -0.023246  -0.051592  0  4.022978  0
C  C62  1  0.33861873  0.83571742  0.06040804  1  0  -0.062269  0  3.707715  0  0  -0.104513  0  3.963402  0  0  -0.101325  0  3.981809  0  0  -0.075859  -0.106372  0  3.950803  0
C  C63  1  0.66137903  0.16428289  0.93959216  1  0  -0.062143  0  3.707744  0  0  -0.104416  0  3.963431  0  0  -0.101228  0  3.981838  0  0  -0.075821  -0.106279  0  3.95083  0
C  C64  1  0.28505804  0.82538153  0.15082501  1  0  -0.065769  0  3.778347  0  0  -0.039389  0  4.01536  0  0  -0.048283  0  4.038429  0  0  -0.020582  -0.03346  0  3.999253  0
C  C65  1  0.71494286  0.17461878  0.84917470  1  0  -0.065744  0  3.77834  0  0  -0.039373  0  4.015392  0  0  -0.04827  0  4.038461  0  0  -0.020533  -0.033442  0  3.999269  0
C  C66  1  0.33972927  0.74929025  0.20088472  1  0  -0.108643  0  3.693877  0  0  -0.143771  0  3.93975  0  0  -0.143064  0  3.959634  0  0  -0.08023  -0.143542  0  3.925545  0
C  C67  1  0.66026972  0.25071100  0.79911514  1  0  -0.108569  0  3.693855  0  0  -0.143723  0  3.939712  0  0  -0.143012  0  3.959596  0  0  -0.08021  -0.143491  0  3.925498  0
C  C68  1  0.70004023  0.74622191  0.62392728  1  0  0.650193  0  3.904918  0  0  0.600619  0  4.193765  0  0  0.634868  0  4.18694  0  0  0.206575  0.577524  0  4.197323  0
C  C69  1  0.29995982  0.25377934  0.37607191  1  0  0.650158  0  3.90479  0  0  0.600595  0  4.193645  0  0  0.634842  0  4.186822  0  0  0.206582  0.577505  0  4.197211  0
C  C70  1  0.18368345  0.55134687  0.47315349  1  0  0.667305  0  3.786402  0  0  0.617816  0  4.079545  0  0  0.652186  0  4.070543  0  0  0.241419  0.594668  0  4.084796  0
C  C71  1  0.81631726  0.44865249  0.52684665  1  0  0.667321  0  3.786371  0  0  0.617856  0  4.079478  0  0  0.652226  0  4.070477  0  0  0.241456  0.59471  0  4.08473  0
C  C72  1  0.49415954  0.78027832  0.91918216  1  0  0.641971  0  3.831399  0  0  0.597129  0  4.12108  0  0  0.629929  0  4.112727  0  0  0.226755  0.574678  0  4.126242  0
C  C73  1  0.50583973  0.21971912  0.08081570  1  0  0.641983  0  3.831402  0  0  0.597153  0  4.121072  0  0  0.629952  0  4.112719  0  0  0.226768  0.574697  0  4.126232  0
C  C74  1  0.17364481  0.89967873  0.19861888  1  0  0.622974  0  3.944377  0  0  0.576278  0  4.234539  0  0  0.609772  0  4.228344  0  0  0.193078  0.553471  0  4.238084  0
C  C75  1  0.82635267  0.10032538  0.80138256  1  0  0.622903  0  3.944474  0  0  0.576195  0  4.234647  0  0  0.609691  0  4.228454  0  0  0.192976  0.55338  0  4.238185  0
C  C76  1  0.26393118  0.95104141  0.74270983  1  0  0.128259  0  3.710069  0  0  0.096274  0  3.960075  0  0  0.103665  0  3.9783  0  0  0.044792  0.091476  0  3.948087  0
C  C77  1  0.73606973  0.04895891  0.25729140  1  0  0.128336  0  3.710052  0  0  0.096356  0  3.960056  0  0  0.103748  0  3.97828  0  0  0.04481  0.091553  0  3.948071  0
C  C78  1  0.38487437  0.96766425  0.69829177  1  0  -0.148873  0  3.680422  0  0  -0.167576  0  3.92831  0  0  -0.176418  0  3.951111  0  0  -0.07782  -0.162111  0  3.913034  0
C  C79  1  0.61512693  0.03233797  0.30171012  1  0  -0.148946  0  3.680445  0  0  -0.167661  0  3.928345  0  0  -0.176505  0  3.951146  0  0  -0.077833  -0.1622  0  3.913075  0
C  C80  1  0.37107880  0.97014331  0.59190996  1  0  0.13899  0  3.792944  0  0  0.153181  0  4.024348  0  0  0.158991  0  4.047072  0  0  0.012545  0.149464  0  4.008791  0
C  C81  1  0.62892211  0.02985701  0.40809127  1  0  0.138992  0  3.792885  0  0  0.153196  0  4.024285  0  0  0.159007  0  4.047007  0  0  0.012561  0.149478  0  4.00873  0
C  C82  1  0.23157272  0.95161126  0.53338093  1  0  -0.161047  0  3.657393  0  0  -0.175657  0  3.895037  0  0  -0.184145  0  3.915524  0  0  -0.07818  -0.169973  0  3.881499  0
C  C83  1  0.76842838  0.04839000  0.46661987  1  0  -0.16097  0  3.657347  0  0  -0.175593  0  3.895004  0  0  -0.184081  0  3.91549  0  0  -0.078158  -0.169908  0  3.881469  0
C  C84  1  0.11608070  0.93348116  0.58272128  1  0  0.137313  0  3.692634  0  0  0.10537  0  3.939277  0  0  0.112863  0  3.957279  0  0  0.047233  0.100588  0  3.927026  0
C  C85  1  0.88391916  0.06651915  0.41727986  1  0  0.137255  0  3.692643  0  0  0.105314  0  3.939299  0  0  0.112806  0  3.957301  0  0  0.047183  0.100536  0  3.927056  0
C  C86  1  0.49897392  0.99013175  0.54721019  1  0  -0.088655  0  3.693937  0  0  -0.109185  0  3.946698  0  0  -0.112627  0  3.968101  0  0  -0.073671  -0.106897  0  3.932364  0
C  C87  1  0.50102633  0.00987046  0.45279161  1  0  -0.088691  0  3.693956  0  0  -0.109237  0  3.946723  0  0  -0.112679  0  3.968126  0  0  -0.073707  -0.106953  0  3.932392  0
C  C88  1  0.93779963  0.79226190  0.91546597  1  0  0.163931  0  3.682526  0  0  0.127248  0  3.93995  0  0  0.136587  0  3.955553  0  0  0.056449  0.120867  0  3.929852  0
C  C89  1  0.06220089  0.20773651  0.08453383  1  0  0.163911  0  3.682559  0  0  0.127231  0  3.939984  0  0  0.136569  0  3.955587  0  0  0.056422  0.120847  0  3.929884  0
C  C90  1  0.94326477  0.70299803  0.96086974  1  0  -0.144438  0  3.671694  0  0  -0.163373  0  3.918308  0  0  -0.171844  0  3.939159  0  0  -0.073529  -0.157927  0  3.904496  0
C  C91  1  0.05673575  0.29700038  0.03913007  1  0  -0.144377  0  3.671782  0  0  -0.163318  0  3.918377  0  0  -0.171789  0  3.939233  0  0  -0.073489  -0.157873  0  3.904563  0
C  C92  1  0.02808733  0.60972902  0.92267455  1  0  0.134327  0  3.808443  0  0  0.149254  0  4.041243  0  0  0.155103  0  4.064305  0  0  0.013032  0.14547  0  4.025568  0
C  C93  1  0.97191214  0.39026938  0.07732440  1  0  0.134255  0  3.8085  0  0  0.149199  0  4.041286  0  0  0.155045  0  4.064355  0  0  0.012986  0.145419  0  4.025605  0
C  C94  1  0.10757385  0.61549556  0.84139653  1  0  -0.138089  0  3.680266  0  0  -0.157193  0  3.928942  0  0  -0.165728  0  3.949564  0  0  -0.072847  -0.151891  0  3.915392  0
C  C95  1  0.89242666  0.38450284  0.15860175  1  0  -0.138046  0  3.680229  0  0  -0.157149  0  3.928903  0  0  -0.165683  0  3.949526  0  0  -0.072818  -0.151851  0  3.915357  0
C  C96  1  0.09691396  0.70813133  0.80019324  1  0  0.144824  0  3.705466  0  0  0.109733  0  3.963508  0  0  0.118446  0  3.980772  0  0  0.051189  0.104133  0  3.951845  0
C  C97  1  0.90308465  0.29186802  0.19980596  1  0  0.144813  0  3.705436  0  0  0.109714  0  3.963495  0  0  0.118429  0  3.980757  0  0  0.051151  0.104109  0  3.951838  0
C  C98  1  0.03716885  0.50982358  0.96277742  1  0  -0.085016  0  3.713373  0  0  -0.106487  0  3.963396  0  0  -0.109562  0  3.984254  0  0  -0.071981  -0.104436  0  3.949196  0
C  C99  1  0.96283147  0.49017387  0.03722129  1  0  -0.085085  0  3.713369  0  0  -0.106554  0  3.963381  0  0  -0.109629  0  3.984239  0  0  -0.072014  -0.104505  0  3.94918  0
N  N100  1  0.13127472  0.93402608  0.68621614  1  0  -0.347283  0  3.346005  0  0  -0.260205  0  3.628127  0  0  -0.279659  0  3.641262  0  0  -0.34188  -0.247382  0  3.619164  0
N  N101  1  0.86872533  0.06597518  0.31378458  1  0  -0.347269  0  3.346009  0  0  -0.260189  0  3.628129  0  0  -0.279642  0  3.641263  0  0  -0.341851  -0.247359  0  3.619168  0
N  N102  1  0.01179325  0.79415476  0.83504684  1  0  -0.343569  0  3.300129  0  0  -0.259042  0  3.583421  0  0  -0.278852  0  3.596103  0  0  -0.335606  -0.245815  0  3.574901  0
N  N103  1  0.98820766  0.20584555  0.16495363  1  0  -0.343542  0  3.30008  0  0  -0.259016  0  3.583384  0  0  -0.278824  0  3.596065  0  0  -0.335594  -0.245783  0  3.574854  0
O  O104  1  0.81511529  0.79921590  0.60521018  1  0  -0.637342  0  2.022289  0  0  -0.566992  0  2.288368  0  0  -0.595433  0  2.273904  0  0  -0.330099  -0.546945  0  2.297194  0
O  O105  1  0.18488666  0.20078441  0.39478962  1  0  -0.637345  0  2.022241  0  0  -0.566986  0  2.288304  0  0  -0.595425  0  2.273841  0  0  -0.330086  -0.546938  0  2.29713  0
O  O106  1  0.68915936  0.74215873  0.71665369  1  0  -0.635595  0  2.026927  0  0  -0.583392  0  2.259794  0  0  -0.608616  0  2.250382  0  0  -0.314246  -0.565698  0  2.265761  0
O  O107  1  0.31083984  0.25784347  0.28334727  1  0  -0.635598  0  2.02692  0  0  -0.583402  0  2.259777  0  0  -0.608625  0  2.250364  0  0  -0.31429  -0.565733  0  2.26576  0
O  O108  1  0.18080158  0.53967218  0.56917385  1  0  -0.541788  0  2.102325  0  0  -0.489742  0  2.316517  0  0  -0.512447  0  2.302464  0  0  -0.323039  -0.474171  0  2.325264  0
O  O109  1  0.81919875  0.46032527  0.43082486  1  0  -0.541891  0  2.102213  0  0  -0.489845  0  2.31642  0  0  -0.512549  0  2.302361  0  0  -0.323107  -0.474278  0  2.325187  0
O  O110  1  0.07393078  0.52921770  0.40266683  1  0  -0.570402  0  1.98844  0  0  -0.522085  0  2.198618  0  0  -0.544612  0  2.18988  0  0  -0.287239  -0.506918  0  2.204145  0
O  O111  1  0.92607012  0.47078260  0.59733288  1  0  -0.57036  0  1.988459  0  0  -0.522067  0  2.198614  0  0  -0.544594  0  2.189879  0  0  -0.287247  -0.506908  0  2.20414  0
O  O112  1  0.59643993  0.71369983  0.88332752  1  0  -0.574102  0  2.104635  0  0  -0.520339  0  2.318493  0  0  -0.542873  0  2.301177  0  0  -0.336021  -0.504336  0  2.329856  0
O  O113  1  0.40355887  0.28630047  0.11667277  1  0  -0.574169  0  2.10464  0  0  -0.520413  0  2.318458  0  0  -0.542949  0  2.30114  0  0  -0.336072  -0.504398  0  2.329811  0
O  O114  1  0.44258389  0.84329151  0.87259229  1  0  -0.551967  0  1.934003  0  0  -0.513766  0  2.153206  0  0  -0.534084  0  2.146118  0  0  -0.290921  -0.499651  0  2.157701  0
O  O115  1  0.55741491  0.15670878  0.12740495  1  0  -0.551911  0  1.934057  0  0  -0.513715  0  2.153253  0  0  -0.534033  0  2.146166  0  0  -0.290822  -0.499535  0  2.157718  0
O  O116  1  0.12629305  0.89033772  0.28015120  1  0  -0.616079  0  1.919717  0  0  -0.572519  0  2.137222  0  0  -0.594158  0  2.127994  0  0  -0.330045  -0.557201  0  2.143337  0
O  O117  1  0.87370556  0.10966163  0.71984800  1  0  -0.616028  0  1.91968  0  0  -0.572465  0  2.137188  0  0  -0.594104  0  2.127962  0  0  -0.330004  -0.557159  0  2.143306  0
O  O118  1  0.13551510  0.97419197  0.15176342  1  0  -0.650749  0  2.056803  0  0  -0.578435  0  2.328678  0  0  -0.607979  0  2.315117  0  0  -0.339768  -0.557591  0  2.337139  0
O  O119  1  0.86448266  0.02580833  0.84823677  1  0  -0.650772  0  2.056796  0  0  -0.578436  0  2.328649  0  0  -0.607981  0  2.315089  0  0  -0.339758  -0.557587  0  2.337104  0
