# generated using pymatgen
data_Zn4H4C58Cl24O13F4
_symmetry_space_group_name_H-M   'P 1'
_cell_length_a   21.54920205
_cell_length_b   21.54910618
_cell_length_c   34.44200205
_cell_angle_alpha   89.99979389
_cell_angle_beta   90.00072907
_cell_angle_gamma   90.00022548
_symmetry_Int_Tables_number   1
_chemical_formula_structural   Zn4H4C58Cl24O13F4
_chemical_formula_sum   'Zn8 H8 C116 Cl48 O26 F8'
_cell_volume   15993.69620131
_cell_formula_units_Z   2
loop_
 _symmetry_equiv_pos_site_id
 _symmetry_equiv_pos_as_xyz
  1  'x, y, z'
loop_
 _atom_site_type_symbol
 _atom_site_label
 _atom_site_symmetry_multiplicity
 _atom_site_fract_x
 _atom_site_fract_y
 _atom_site_fract_z
 _atom_site_occupancy
 _atom_site_pbe_bader_charge
 _atom_site_pbe_bader_spin_density
 _atom_site_pbe_cm5_charge
 _atom_site_pbe_ddec_charge
 _atom_site_pbe_ddec_spin_density
 _atom_site_pbe_ddec_sum_bond_order
 _atom_site_pbe_magmom
Zn  Zn0  1  0.55265344  0.55215382  0.03304815  1  1.32021  0  0.67738  0.980554  0  2.339547  0
Zn  Zn1  1  0.44734301  0.55215094  0.96695308  1  1.320443  0  0.677371  0.98054  0  2.339758  0
Zn  Zn2  1  0.44734400  0.44784813  0.03304582  1  1.320482  0  0.677361  0.98054  0  2.339768  0
Zn  Zn3  1  0.55264880  0.44785030  0.96695565  1  1.320483  0  0.677393  0.98067  0  2.339546  0
Zn  Zn4  1  0.44784680  0.44735035  0.46695497  1  1.320335  0  0.677382  0.980609  0  2.339613  0
Zn  Zn5  1  0.44784536  0.55265476  0.53304683  1  1.320376  0  0.677368  0.980582  0  2.339589  0
Zn  Zn6  1  0.55215203  0.55265469  0.46695295  1  1.320453  0  0.67736  0.980566  0  2.339869  0
Zn  Zn7  1  0.55215435  0.44734851  0.53304562  1  1.320408  0  0.677343  0.980525  0  2.339675  0
H  H8  1  0.56940983  0.57182301  0.15141965  1  0.120724  0  0.112799  0.126402  0  0.996258  0
H  H9  1  0.43059605  0.42817919  0.15141723  1  0.120607  0  0.112806  0.12648  0  0.996308  0
H  H10  1  0.42817430  0.43059682  0.34858084  1  0.121031  0  0.112838  0.126429  0  0.996273  0
H  H11  1  0.57181423  0.56941260  0.34858300  1  0.120666  0  0.112807  0.126409  0  0.996424  0
H  H12  1  0.43059274  0.57181981  0.84857776  1  0.120862  0  0.112739  0.126332  0  0.996411  0
H  H13  1  0.56940734  0.42817746  0.84858312  1  0.120773  0  0.112819  0.126424  0  0.996266  0
H  H14  1  0.57182632  0.43059206  0.65141689  1  0.120944  0  0.112865  0.126501  0  0.996214  0
H  H15  1  0.42818461  0.56940728  0.65141703  1  0.120736  0  0.112765  0.126397  0  0.996383  0
C  C16  1  0.50000683  0.66483738  0.00000037  1  1.560363  0  0.22451  0.623601  0  4.187282  0
C  C17  1  0.33445554  0.49999718  0.99999955  1  1.589361  0  0.227695  0.62754  0  4.193413  0
C  C18  1  0.50000246  0.50000379  0.10431128  1  1.586545  0  0.233037  0.614389  0  4.149849  0
C  C19  1  0.50000293  0.33516152  0.00000103  1  1.56033  0  0.224538  0.623688  0  4.187389  0
C  C20  1  0.66553653  0.49999977  0.00000703  1  1.589016  0  0.227863  0.627239  0  4.192878  0
C  C21  1  0.49999611  0.50000152  0.89568949  1  1.586442  0  0.233035  0.614451  0  4.149761  0
C  C22  1  0.33516186  0.49999954  0.50000278  1  1.560399  0  0.22465  0.623886  0  4.187242  0
C  C23  1  0.49999659  0.66554270  0.50000092  1  1.58935  0  0.22767  0.627504  0  4.192934  0
C  C24  1  0.49999475  0.50000713  0.39568807  1  1.586747  0  0.233085  0.614327  0  4.149775  0
C  C25  1  0.66483857  0.49999277  0.49999596  1  1.560468  0  0.224667  0.623924  0  4.186966  0
C  C26  1  0.49999919  0.33446122  0.50000101  1  1.589075  0  0.227654  0.627157  0  4.19339  0
C  C27  1  0.50000382  0.50000003  0.60431241  1  1.586925  0  0.232946  0.614168  0  4.149791  0
C  C28  1  0.26466554  0.49999806  0.00000020  1  0.074205  0  -0.017595  -0.113668  0  3.947468  0
C  C29  1  0.23235507  0.44439794  0.99420686  1  0.075497  0  0.012404  0.076742  0  4.029255  0
C  C30  1  0.16719999  0.44439827  0.99443365  1  0.264058  0  0.007451  0.045482  0  4.0405  0
C  C31  1  0.23235500  0.55559471  0.00579497  1  0.075833  0  0.012386  0.076681  0  4.029315  0
C  C32  1  0.16719992  0.55559273  0.00556969  1  0.264325  0  0.007476  0.045553  0  4.040792  0
C  C33  1  0.13436188  0.49999594  0.00000171  1  -0.090808  0  -0.019592  -0.024138  0  4.039794  0
C  C34  1  0.06546832  0.49999897  0.99999993  1  0.061664  0  -0.022623  -0.024259  0  4.03766  0
C  C35  1  0.03258136  0.50044311  0.96481020  1  0.075885  0  0.006812  0.050398  0  4.032683  0
C  C36  1  0.03258074  0.49955665  0.03519003  1  0.075913  0  0.006742  0.050269  0  4.032782  0
C  C37  1  0.73532752  0.49999852  0.00000411  1  0.074184  0  -0.017607  -0.113397  0  3.946627  0
C  C38  1  0.76763915  0.55559571  0.99420364  1  0.075845  0  0.012534  0.076801  0  4.029189  0
C  C39  1  0.83279330  0.55559352  0.99442659  1  0.264332  0  0.007396  0.04539  0  4.040868  0
C  C40  1  0.76763817  0.44439997  0.00579926  1  0.075455  0  0.012419  0.076697  0  4.029006  0
C  C41  1  0.83279557  0.44440103  0.00557131  1  0.264311  0  0.007379  0.045391  0  4.040691  0
C  C42  1  0.86563066  0.49999683  0.99999789  1  -0.090716  0  -0.019605  -0.024251  0  4.039542  0
C  C43  1  0.93452788  0.49999604  0.99999817  1  0.062967  0  -0.022494  -0.024066  0  4.037427  0
C  C44  1  0.96741535  0.50044066  0.03518998  1  0.250147  0  0.006743  0.050278  0  4.0327  0
C  C45  1  0.96741551  0.49955582  0.96480929  1  0.249926  0  0.006732  0.050337  0  4.032777  0
C  C46  1  0.53936102  0.54063460  0.16765817  1  0.060868  0  -0.076469  -0.120772  0  3.911178  0
C  C47  1  0.54016657  0.54068461  0.20830564  1  -0.046443  0  -0.009848  -0.004265  0  4.067948  0
C  C48  1  0.58014422  0.58050066  0.23016569  1  0.423285  0  0.092685  0.119473  0  4.088794  0
C  C49  1  0.46064472  0.45936565  0.16765650  1  0.060723  0  -0.07655  -0.121063  0  3.911596  0
C  C50  1  0.45983722  0.45931495  0.20830396  1  -0.046435  0  -0.009813  -0.003974  0  4.067698  0
C  C51  1  0.41985954  0.41949692  0.23016262  1  0.61073  0  0.092489  0.119004  0  4.08911  0
C  C52  1  0.45936097  0.46064504  0.33234349  1  0.060349  0  -0.076537  -0.120837  0  3.911116  0
C  C53  1  0.45931183  0.45983909  0.29169632  1  -0.046573  0  -0.009738  -0.004031  0  4.067752  0
C  C54  1  0.41949799  0.41985923  0.26983482  1  0.423371  0  0.092638  0.119298  0  4.08882  0
C  C55  1  0.54062817  0.53936355  0.33234460  1  0.060684  0  -0.076445  -0.120698  0  3.911251  0
C  C56  1  0.54068066  0.54016741  0.29169655  1  -0.04638  0  -0.009752  -0.004081  0  4.067696  0
C  C57  1  0.58050148  0.58014322  0.26983731  1  0.610937  0  0.092518  0.119103  0  4.089117  0
C  C58  1  0.50000197  0.49999995  0.14769116  1  -0.014346  0  -0.0141  -0.025394  0  3.989892  0
C  C59  1  0.50000095  0.50000065  0.22939489  1  -0.052381  0  0.004317  0.014723  0  3.949367  0
C  C60  1  0.49999245  0.50000725  0.35231022  1  -0.014105  0  -0.01409  -0.025456  0  3.989692  0
C  C61  1  0.49999672  0.50000192  0.27060591  1  0.118617  0  0.004248  0.014662  0  3.949396  0
C  C62  1  0.46064189  0.54063393  0.83234076  1  0.060874  0  -0.076365  -0.12065  0  3.911209  0
C  C63  1  0.45983680  0.54068324  0.79169301  1  -0.046575  0  -0.009915  -0.004236  0  4.067572  0
C  C64  1  0.41986070  0.58049787  0.76983228  1  0.423903  0  0.092695  0.119317  0  4.088624  0
C  C65  1  0.53935926  0.45936482  0.83234378  1  0.060811  0  -0.076424  -0.120777  0  3.911223  0
C  C66  1  0.54016862  0.45931343  0.79169487  1  -0.046266  0  -0.009873  -0.004118  0  4.067977  0
C  C67  1  0.58014381  0.41949847  0.76983659  1  0.61063  0  0.092526  0.119168  0  4.089122  0
C  C68  1  0.54063745  0.46063960  0.66765475  1  0.060483  0  -0.076569  -0.120962  0  3.911207  0
C  C69  1  0.54068798  0.45983434  0.70830280  1  -0.046346  0  -0.009719  -0.003991  0  4.067794  0
C  C70  1  0.58050213  0.41985683  0.73016497  1  0.42329  0  0.09261  0.119231  0  4.088944  0
C  C71  1  0.45937195  0.53935639  0.66765463  1  0.061031  0  -0.076508  -0.12105  0  3.91154  0
C  C72  1  0.45931993  0.54016002  0.70830151  1  -0.046673  0  -0.009742  -0.003631  0  4.067404  0
C  C73  1  0.41950066  0.58013648  0.73016008  1  0.61091  0  0.092493  0.118965  0  4.089253  0
C  C74  1  0.49999985  0.49999932  0.85230874  1  -0.014576  0  -0.014157  -0.025503  0  3.989912  0
C  C75  1  0.50000366  0.49999724  0.77060472  1  -0.052394  0  0.004383  0.014786  0  3.949027  0
C  C76  1  0.50000566  0.50000084  0.64768852  1  -0.014733  0  -0.014062  -0.025316  0  3.989995  0
C  C77  1  0.50000324  0.49999689  0.72939283  1  0.118584  0  0.004263  0.014525  0  3.949173  0
C  C78  1  0.50000279  0.26520363  0.00000053  1  0.049746  0  -0.016945  -0.114804  0  3.931483  0
C  C79  1  0.50225561  0.23262956  0.03523256  1  0.077069  0  0.012421  0.078431  0  4.02317  0
C  C80  1  0.50220583  0.16741711  0.03516585  1  0.256584  0  0.007084  0.043632  0  4.041141  0
C  C81  1  0.49775444  0.23263152  0.96476852  1  0.077447  0  0.012362  0.078286  0  4.023413  0
C  C82  1  0.49779886  0.16741815  0.96483450  1  0.256611  0  0.007059  0.043577  0  4.04097  0
C  C83  1  0.50000068  0.13451515  0.00000010  1  -0.072509  0  -0.020362  -0.022109  0  4.038001  0
C  C84  1  0.50000003  0.06550106  0.99999954  1  0.062093  0  -0.021301  -0.024937  0  4.036032  0
C  C85  1  0.55623406  0.03260190  0.99992721  1  0.254736  0  0.006784  0.050087  0  4.033052  0
C  C86  1  0.44376592  0.03260130  0.00007229  1  0.254689  0  0.006843  0.050113  0  4.033017  0
C  C87  1  0.50000227  0.73479425  0.99999965  1  0.049094  0  -0.01699  -0.115021  0  3.931448  0
C  C88  1  0.50225543  0.76736926  0.96476735  1  0.077622  0  0.012379  0.078368  0  4.023194  0
C  C89  1  0.50220683  0.83258078  0.96483551  1  0.256714  0  0.007165  0.043835  0  4.040828  0
C  C90  1  0.49775487  0.76736820  0.03523252  1  0.077498  0  0.012384  0.078379  0  4.023141  0
C  C91  1  0.49780001  0.83257880  0.03516596  1  0.256562  0  0.007184  0.043775  0  4.04071  0
C  C92  1  0.50000166  0.86548189  0.00000102  1  -0.072457  0  -0.020583  -0.022249  0  4.038015  0
C  C93  1  0.49999901  0.93449914  0.00000123  1  0.06209  0  -0.021229  -0.02506  0  4.036286  0
C  C94  1  0.44376584  0.96739868  0.99992832  1  0.071547  0  0.006809  0.050174  0  4.033081  0
C  C95  1  0.55623317  0.96739992  0.00007255  1  0.070327  0  0.006812  0.050201  0  4.032908  0
C  C96  1  0.49999812  0.73533353  0.50000113  1  0.074264  0  -0.017657  -0.113644  0  3.947167  0
C  C97  1  0.55559566  0.76764494  0.50579599  1  0.075898  0  0.012422  0.076687  0  4.029253  0
C  C98  1  0.55559393  0.83280031  0.50557090  1  0.264301  0  0.007399  0.045472  0  4.040908  0
C  C99  1  0.44439793  0.76764475  0.49420737  1  0.075575  0  0.012368  0.076666  0  4.029264  0
C  C100  1  0.44439713  0.83280151  0.49443318  1  0.26395  0  0.007452  0.045417  0  4.040858  0
C  C101  1  0.49999513  0.86563731  0.50000244  1  -0.090756  0  -0.019561  -0.024101  0  4.039873  0
C  C102  1  0.49999712  0.93453251  0.50000004  1  0.061683  0  -0.022594  -0.02427  0  4.037741  0
C  C103  1  0.49955623  0.96741962  0.53519046  1  0.076007  0  0.006733  0.050357  0  4.032791  0
C  C104  1  0.50044047  0.96741936  0.46481041  1  0.075896  0  0.006796  0.050376  0  4.032837  0
C  C105  1  0.49999952  0.26467456  0.50000021  1  0.074477  0  -0.017581  -0.113216  0  3.946682  0
C  C106  1  0.44440395  0.23236358  0.50579905  1  0.075422  0  0.012541  0.076774  0  4.028923  0
C  C107  1  0.44440336  0.16720682  0.50557382  1  0.264402  0  0.007333  0.045266  0  4.040753  0
C  C108  1  0.55559589  0.23236523  0.49420000  1  0.075359  0  0.012552  0.076761  0  4.028877  0
C  C109  1  0.55559344  0.16720754  0.49442567  1  0.264431  0  0.007324  0.045365  0  4.040691  0
C  C110  1  0.49999787  0.13436985  0.49999891  1  -0.090779  0  -0.019596  -0.024298  0  4.039829  0
C  C111  1  0.49999773  0.06547373  0.49999986  1  0.062999  0  -0.02242  -0.024084  0  4.037741  0
C  C112  1  0.49955507  0.03258522  0.46480972  1  0.250108  0  0.006638  0.05024  0  4.032923  0
C  C113  1  0.50044073  0.03258781  0.53519065  1  0.249827  0  0.006704  0.050205  0  4.032935  0
C  C114  1  0.73479754  0.49999615  0.49999508  1  0.049227  0  -0.017033  -0.114867  0  3.931469  0
C  C115  1  0.76737147  0.49774193  0.46476468  1  0.078064  0  0.012341  0.078294  0  4.023209  0
C  C116  1  0.83258456  0.49779172  0.46483172  1  0.256326  0  0.00705  0.043581  0  4.041094  0
C  C117  1  0.76736894  0.50224586  0.53522951  1  0.077116  0  0.012554  0.07852  0  4.023255  0
C  C118  1  0.83258203  0.50220051  0.53516299  1  0.256853  0  0.007125  0.043659  0  4.041012  0
C  C119  1  0.86548358  0.49999688  0.49999850  1  -0.072583  0  -0.020416  -0.022078  0  4.038101  0
C  C120  1  0.93449913  0.49999655  0.49999994  1  0.062122  0  -0.021245  -0.02505  0  4.036429  0
C  C121  1  0.96739862  0.44376226  0.50007243  1  0.07146  0  0.006762  0.050084  0  4.03307  0
C  C122  1  0.96739930  0.55623004  0.49992771  1  0.070281  0  0.006817  0.05014  0  4.033298  0
C  C123  1  0.26520335  0.49999941  0.50000104  1  0.049061  0  -0.016959  -0.114735  0  3.931343  0
C  C124  1  0.23262988  0.49774300  0.53523145  1  0.077598  0  0.012408  0.078363  0  4.02339  0
C  C125  1  0.16741725  0.49779021  0.53516383  1  0.256756  0  0.007173  0.043808  0  4.041071  0
C  C126  1  0.23263103  0.50224873  0.46476777  1  0.07761  0  0.012385  0.078314  0  4.023122  0
C  C127  1  0.16741887  0.50220173  0.46483313  1  0.256574  0  0.007104  0.043675  0  4.04097  0
C  C128  1  0.13451452  0.49999683  0.49999791  1  -0.072548  0  -0.020436  -0.022265  0  4.038295  0
C  C129  1  0.06550222  0.49999669  0.49999822  1  0.06206  0  -0.021272  -0.025067  0  4.03659  0
C  C130  1  0.03260135  0.55622912  0.50007206  1  0.254905  0  0.006775  0.050114  0  4.033317  0
C  C131  1  0.03260205  0.44376228  0.49992643  1  0.254684  0  0.006805  0.050138  0  4.033004  0
Cl  Cl132  1  0.27284952  0.62306950  0.01389940  1  -0.165797  0  0.007164  -0.035563  0  1.521447  0
Cl  Cl133  1  0.12710211  0.62364047  0.01201537  1  -0.173314  0  0.004737  -0.040987  0  1.550152  0
Cl  Cl134  1  0.27285241  0.37692424  0.98610246  1  -0.16577  0  0.007209  -0.035547  0  1.521401  0
Cl  Cl135  1  0.12709761  0.37635177  0.98798766  1  -0.173299  0  0.004748  -0.040941  0  1.550147  0
Cl  Cl136  1  0.07274436  0.50214269  0.92176350  1  -0.161687  0  0.004571  -0.038098  0  1.54593  0
Cl  Cl137  1  0.92725256  0.49785417  0.92176169  1  -0.161573  0  0.004594  -0.03808  0  1.545916  0
Cl  Cl138  1  0.07274461  0.49785537  0.07823734  1  -0.161682  0  0.004592  -0.038043  0  1.545931  0
Cl  Cl139  1  0.92724957  0.50214215  0.07823581  1  -0.161669  0  0.004553  -0.038085  0  1.545967  0
Cl  Cl140  1  0.87289119  0.37635604  0.01201804  1  -0.173424  0  0.00474  -0.040934  0  1.55039  0
Cl  Cl141  1  0.72714057  0.37692654  0.01390672  1  -0.165807  0  0.007122  -0.035602  0  1.521455  0
Cl  Cl142  1  0.87288859  0.62363820  0.98797438  1  -0.173274  0  0.004739  -0.040893  0  1.550319  0
Cl  Cl143  1  0.72714257  0.62306899  0.98609789  1  -0.16602  0  0.007197  -0.035551  0  1.521447  0
Cl  Cl144  1  0.49330334  0.27249733  0.92164930  1  -0.160509  0  0.007664  -0.036465  0  1.527855  0
Cl  Cl145  1  0.49529292  0.12708666  0.92189133  1  -0.159494  0  0.005971  -0.039153  0  1.5466  0
Cl  Cl146  1  0.50670362  0.27249421  0.07835227  1  -0.160585  0  0.007615  -0.036522  0  1.527794  0
Cl  Cl147  1  0.50470743  0.12708493  0.07810737  1  -0.159512  0  0.005995  -0.039136  0  1.546853  0
Cl  Cl148  1  0.62497172  0.07288073  0.99967223  1  -0.158916  0  0.005164  -0.036752  0  1.540782  0
Cl  Cl149  1  0.62496882  0.92711532  0.00032750  1  -0.158789  0  0.005134  -0.036788  0  1.540582  0
Cl  Cl150  1  0.37502935  0.07288357  0.00032544  1  -0.158838  0  0.005138  -0.03677  0  1.540708  0
Cl  Cl151  1  0.37502911  0.92711706  0.99967492  1  -0.158843  0  0.005117  -0.036799  0  1.540693  0
Cl  Cl152  1  0.49529370  0.87290888  0.07810969  1  -0.159459  0  0.006009  -0.039153  0  1.5465  0
Cl  Cl153  1  0.49330680  0.72749960  0.07835141  1  -0.160593  0  0.007672  -0.036473  0  1.527773  0
Cl  Cl154  1  0.50470912  0.87291437  0.92189227  1  -0.159537  0  0.005996  -0.039205  0  1.546568  0
Cl  Cl155  1  0.50670380  0.72750184  0.92164884  1  -0.160584  0  0.007598  -0.036527  0  1.527795  0
Cl  Cl156  1  0.37692752  0.72714319  0.48610280  1  -0.165774  0  0.007224  -0.035525  0  1.521477  0
Cl  Cl157  1  0.37635332  0.87289912  0.48798725  1  -0.173302  0  0.0048  -0.040853  0  1.550394  0
Cl  Cl158  1  0.62306870  0.72715056  0.51390007  1  -0.165897  0  0.007201  -0.035506  0  1.521573  0
Cl  Cl159  1  0.62363883  0.87289907  0.51201558  1  -0.173277  0  0.004767  -0.040949  0  1.550313  0
Cl  Cl160  1  0.49785444  0.92725634  0.57823823  1  -0.161704  0  0.004578  -0.038077  0  1.545891  0
Cl  Cl161  1  0.50214433  0.07275362  0.57823660  1  -0.161519  0  0.004617  -0.03798  0  1.545975  0
Cl  Cl162  1  0.50214210  0.92725401  0.42176448  1  -0.161656  0  0.004596  -0.038056  0  1.545929  0
Cl  Cl163  1  0.49785442  0.07274989  0.42176310  1  -0.161727  0  0.004581  -0.038063  0  1.545961  0
Cl  Cl164  1  0.62363711  0.12711090  0.48797427  1  -0.173257  0  0.004729  -0.040927  0  1.550323  0
Cl  Cl165  1  0.62306752  0.27286080  0.48609181  1  -0.16588  0  0.007195  -0.035532  0  1.521517  0
Cl  Cl166  1  0.37635906  0.12711220  0.51202502  1  -0.173389  0  0.004722  -0.040882  0  1.550408  0
Cl  Cl167  1  0.37693294  0.27286395  0.51390744  1  -0.165908  0  0.007133  -0.035606  0  1.521461  0
Cl  Cl168  1  0.72750063  0.50669875  0.57834705  1  -0.160374  0  0.007604  -0.036553  0  1.527861  0
Cl  Cl169  1  0.87291482  0.50470545  0.57810635  1  -0.159579  0  0.005964  -0.039166  0  1.546647  0
Cl  Cl170  1  0.72750412  0.49329168  0.42164450  1  -0.160808  0  0.007593  -0.03656  0  1.527653  0
Cl  Cl171  1  0.87291647  0.49529019  0.42189042  1  -0.159462  0  0.006062  -0.039053  0  1.546704  0
Cl  Cl172  1  0.92711950  0.37502615  0.50032436  1  -0.158923  0  0.005149  -0.036741  0  1.540971  0
Cl  Cl173  1  0.07287997  0.37502633  0.49967175  1  -0.158931  0  0.005162  -0.036725  0  1.540914  0
Cl  Cl174  1  0.92711998  0.62496784  0.49967516  1  -0.158718  0  0.00513  -0.036758  0  1.540693  0
Cl  Cl175  1  0.07288047  0.62496662  0.50032503  1  -0.158841  0  0.005136  -0.036754  0  1.540721  0
Cl  Cl176  1  0.12708562  0.50470675  0.42189005  1  -0.159595  0  0.006031  -0.039088  0  1.546569  0
Cl  Cl177  1  0.27250122  0.50670062  0.42164935  1  -0.160574  0  0.007635  -0.036525  0  1.527648  0
Cl  Cl178  1  0.12708255  0.49528549  0.57810542  1  -0.159529  0  0.005943  -0.039201  0  1.546726  0
Cl  Cl179  1  0.27249628  0.49329080  0.57835135  1  -0.160567  0  0.007539  -0.036624  0  1.527756  0
O  O180  1  0.49999630  0.50000270  0.00000143  1  -1.243838  0  -0.572796  -1.036083  0  2.527265  0
O  O181  1  0.54745926  0.63880479  0.01463214  1  -1.156808  0  -0.307509  -0.536789  0  2.334077  0
O  O182  1  0.36032122  0.52474915  0.97073042  1  -1.158876  0  -0.308893  -0.534521  0  2.318616  0
O  O183  1  0.47140068  0.45547618  0.08760719  1  -1.167653  0  -0.312914  -0.545049  0  2.336568  0
O  O184  1  0.45255053  0.63880275  0.98536976  1  -1.156316  0  -0.307635  -0.536952  0  2.333859  0
O  O185  1  0.52860065  0.54452593  0.08761022  1  -1.167549  0  -0.312838  -0.544899  0  2.336878  0
O  O186  1  0.36032269  0.47524771  0.02926749  1  -1.158868  0  -0.308877  -0.534549  0  2.319052  0
O  O187  1  0.45255172  0.36119541  0.01463266  1  -1.156417  0  -0.30767  -0.537005  0  2.333972  0
O  O188  1  0.63966510  0.47526088  0.97073652  1  -1.159041  0  -0.308919  -0.534391  0  2.319236  0
O  O189  1  0.54745419  0.36119745  0.98536755  1  -1.156595  0  -0.307508  -0.536881  0  2.33401  0
O  O190  1  0.63967560  0.52474545  0.02928278  1  -1.158349  0  -0.308966  -0.534507  0  2.318146  0
O  O191  1  0.47139716  0.54452252  0.91239103  1  -1.167687  0  -0.312829  -0.544907  0  2.336842  0
O  O192  1  0.52859818  0.45547485  0.91239368  1  -1.167586  0  -0.31293  -0.54517  0  2.336564  0
O  O193  1  0.50000091  0.50000312  0.50000024  1  -1.243834  0  -0.5728  -1.036147  0  2.527301  0
O  O194  1  0.36119506  0.45254570  0.48537196  1  -1.156418  0  -0.307651  -0.537049  0  2.333879  0
O  O195  1  0.47524975  0.63967746  0.52927296  1  -1.158845  0  -0.308873  -0.534558  0  2.318389  0
O  O196  1  0.54451773  0.52860557  0.41239195  1  -1.167972  0  -0.312894  -0.544958  0  2.336885  0
O  O197  1  0.36119276  0.54745210  0.51463409  1  -1.156623  0  -0.307616  -0.537001  0  2.334095  0
O  O198  1  0.45546978  0.47140442  0.41239340  1  -1.167643  0  -0.313011  -0.545094  0  2.336478  0
O  O199  1  0.52474612  0.63967586  0.47073185  1  -1.158875  0  -0.308864  -0.534495  0  2.318801  0
O  O200  1  0.63880460  0.54744856  0.48536251  1  -1.156515  0  -0.307743  -0.537187  0  2.333768  0
O  O201  1  0.52474338  0.36032815  0.52927522  1  -1.158778  0  -0.308882  -0.534467  0  2.31849  0
O  O202  1  0.63880703  0.45254106  0.51462833  1  -1.156552  0  -0.307533  -0.536887  0  2.334116  0
O  O203  1  0.47525882  0.36033286  0.47073080  1  -1.158707  0  -0.308867  -0.534393  0  2.318957  0
O  O204  1  0.45547631  0.52859422  0.58760731  1  -1.16802  0  -0.31286  -0.544939  0  2.336823  0
O  O205  1  0.54453007  0.47140362  0.58760627  1  -1.167787  0  -0.312886  -0.544912  0  2.336511  0
F  F206  1  0.61923451  0.61846502  0.28939552  1  -0.618456  0  -0.090567  -0.108864  0  1.3499  0
F  F207  1  0.61846848  0.61923418  0.21060683  1  -0.618408  0  -0.090702  -0.109034  0  1.349685  0
F  F208  1  0.38076442  0.38153546  0.28939367  1  -0.618375  0  -0.090626  -0.108918  0  1.34972  0
F  F209  1  0.38154091  0.38075979  0.21060383  1  -0.618239  0  -0.090572  -0.108819  0  1.349895  0
F  F210  1  0.38076731  0.61845870  0.71060063  1  -0.618294  0  -0.090506  -0.108758  0  1.349933  0
F  F211  1  0.38153844  0.61923623  0.78938902  1  -0.618695  0  -0.090727  -0.109055  0  1.349429  0
F  F212  1  0.61923554  0.38153380  0.71060591  1  -0.618437  0  -0.09065  -0.108927  0  1.349805  0
F  F213  1  0.61846600  0.38076231  0.78939488  1  -0.618303  0  -0.090574  -0.108871  0  1.349788  0
