# generated using pymatgen
data_TbH9C10NO7
_symmetry_space_group_name_H-M   'P 1'
_cell_length_a   9.23496086
_cell_length_b   9.54310729
_cell_length_c   14.24174070
_cell_angle_alpha   90.00007865
_cell_angle_beta   89.99991244
_cell_angle_gamma   96.98941193
_symmetry_Int_Tables_number   1
_chemical_formula_structural   TbH9C10NO7
_chemical_formula_sum   'Tb4 H36 C40 N4 O28'
_cell_volume   1245.80048714
_cell_formula_units_Z   4
loop_
 _symmetry_equiv_pos_site_id
 _symmetry_equiv_pos_as_xyz
  1  'x, y, z'
loop_
 _atom_site_type_symbol
 _atom_site_label
 _atom_site_symmetry_multiplicity
 _atom_site_fract_x
 _atom_site_fract_y
 _atom_site_fract_z
 _atom_site_occupancy
 _atom_site_pbe_bader_charge
 _atom_site_pbe_bader_spin_density
 _atom_site_pbe_cm5_charge
 _atom_site_pbe_ddec_charge
 _atom_site_pbe_ddec_spin_density
 _atom_site_pbe_ddec_sum_bond_order
 _atom_site_pbe_magmom
Tb  Tb0  1  0.61998025  0.01692945  0.88585349  1  2.176801  0  1.504349  2.031005  0  2.182858  0
Tb  Tb1  1  0.38001904  0.48307044  0.38585455  1  2.176723  0  1.504325  2.03099  0  2.18293  0
Tb  Tb2  1  0.38001663  0.98307103  0.11414432  1  2.176822  0  1.504338  2.031041  0  2.182844  0
Tb  Tb3  1  0.61998205  0.51692901  0.61414466  1  2.176795  0  1.504298  2.031014  0  2.182915  0
H  H4  1  0.74821238  0.41795094  0.08761201  1  0.079231  0  0.104525  0.123293  0  0.967111  0
H  H5  1  0.25178671  0.08205052  0.58761207  1  0.079214  0  0.104522  0.123274  0  0.967119  0
H  H6  1  0.25178870  0.58204851  0.91238791  1  0.079234  0  0.104526  0.123308  0  0.967097  0
H  H7  1  0.74821042  0.91795207  0.41238784  1  0.079245  0  0.104529  0.123311  0  0.967084  0
H  H8  1  0.56913209  0.37052671  0.13301874  1  0.060612  0  0.103205  0.120188  0  1.012357  0
H  H9  1  0.43086678  0.12947378  0.63301938  1  0.060608  0  0.103197  0.120179  0  1.012352  0
H  H10  1  0.43086849  0.62946851  0.86697977  1  0.060671  0  0.103253  0.120266  0  1.012276  0
H  H11  1  0.56913157  0.87052988  0.36697984  1  0.060672  0  0.103256  0.120276  0  1.012254  0
H  H12  1  0.64771076  0.53264837  0.94930031  1  0.051022  0  0.093103  0.093285  0  0.987366  0
H  H13  1  0.35228803  0.96735016  0.44930209  1  0.051045  0  0.093122  0.093269  0  0.987399  0
H  H14  1  0.35228644  0.46734578  0.05069750  1  0.051039  0  0.093102  0.093255  0  0.987411  0
H  H15  1  0.64771248  0.03265350  0.55069783  1  0.051042  0  0.093113  0.093265  0  0.987395  0
H  H16  1  0.60147527  0.61193857  0.05473065  1  0.02335  0  0.094538  0.089342  0  0.993811  0
H  H17  1  0.39852245  0.88806136  0.55473156  1  0.023326  0  0.094571  0.089388  0  0.993784  0
H  H18  1  0.39852097  0.38805664  0.94526716  1  0.023238  0  0.094573  0.089401  0  0.993758  0
H  H19  1  0.60147806  0.11194231  0.44526836  1  0.023274  0  0.094558  0.089368  0  0.993756  0
H  H20  1  0.97958181  0.00373195  0.93367611  1  0.143882  0  0.124047  0.090317  0  1.044116  0
H  H21  1  0.02041846  0.49626803  0.43367684  1  0.14388  0  0.124062  0.09034  0  1.044085  0
H  H22  1  0.02040928  0.99626533  0.06632170  1  0.143672  0  0.124078  0.090369  0  1.044094  0
H  H23  1  0.97959129  0.50373146  0.56632378  1  0.143779  0  0.124057  0.090328  0  1.044085  0
H  H24  1  0.03923812  0.31062198  0.65668530  1  0.112757  0  0.11374  0.12449  0  1.009808  0
H  H25  1  0.96076287  0.18937856  0.15668551  1  0.112759  0  0.113736  0.124466  0  1.009859  0
H  H26  1  0.96076252  0.68938274  0.34331532  1  0.112799  0  0.113764  0.12454  0  1.00978  0
H  H27  1  0.03923484  0.81061981  0.84331510  1  0.112777  0  0.11375  0.124525  0  1.00979  0
H  H28  1  0.26561845  0.25516228  0.74247594  1  0.131754  0  0.114002  0.125  0  1.019483  0
H  H29  1  0.73438236  0.24483842  0.24247573  1  0.131765  0  0.114004  0.12499  0  1.019453  0
H  H30  1  0.73438207  0.74484138  0.25752749  1  0.131724  0  0.114  0.125027  0  1.019429  0
H  H31  1  0.26561873  0.75516103  0.75752981  1  0.131709  0  0.114013  0.125025  0  1.019417  0
H  H32  1  0.52861856  0.78759157  0.74759832  1  0.668875  0  0.306311  0.399112  0  0.941328  0
H  H33  1  0.47138200  0.71240871  0.24759834  1  0.668876  0  0.306366  0.399268  0  0.941138  0
H  H34  1  0.47138577  0.21240789  0.25240089  1  0.668765  0  0.306341  0.399138  0  0.941294  0
H  H35  1  0.52861718  0.28759284  0.75240087  1  0.668781  0  0.306333  0.399175  0  0.94126  0
H  H36  1  0.50787449  0.93168209  0.69768736  1  0.616874  0  0.324183  0.409385  0  0.893066  0
H  H37  1  0.49212618  0.56831811  0.19768793  1  0.616882  0  0.32418  0.409394  0  0.893051  0
H  H38  1  0.49212660  0.06831736  0.30231185  1  0.616882  0  0.324181  0.409393  0  0.893129  0
H  H39  1  0.50787408  0.43168345  0.80231269  1  0.616876  0  0.324177  0.409423  0  0.893068  0
C  C40  1  0.61982016  0.25939020  0.00934839  1  1.543232  0  0.217856  0.691572  0  4.097783  0
C  C41  1  0.38018006  0.24061007  0.50934847  1  1.543388  0  0.217859  0.691586  0  4.097747  0
C  C42  1  0.38017876  0.74060923  0.99064942  1  1.543336  0  0.217896  0.691665  0  4.097709  0
C  C43  1  0.61982237  0.75939150  0.49064934  1  1.543344  0  0.217913  0.691667  0  4.09766  0
C  C44  1  0.63267383  0.39174209  0.06839881  1  -0.070419  0  -0.160886  -0.29607  0  3.893454  0
C  C45  1  0.36732505  0.10825723  0.56839949  1  -0.070396  0  -0.160884  -0.296043  0  3.893438  0
C  C46  1  0.36732700  0.60825525  0.93160040  1  -0.07045  0  -0.160939  -0.296213  0  3.893401  0
C  C47  1  0.63267208  0.89174536  0.43160043  1  -0.070459  0  -0.16095  -0.296233  0  3.893408  0
C  C48  1  0.58085544  0.51416034  0.01310579  1  -0.035965  0  -0.163438  -0.129641  0  3.925532  0
C  C49  1  0.41914333  0.98583846  0.51310677  1  -0.035968  0  -0.163453  -0.129632  0  3.925559  0
C  C50  1  0.41914176  0.48583382  0.98689202  1  -0.009825  0  -0.163442  -0.129634  0  3.925546  0
C  C51  1  0.58085706  0.01416415  0.48689315  1  -0.009869  0  -0.163464  -0.129631  0  3.925479  0
C  C52  1  0.26866728  0.08453922  0.90005280  1  1.607316  0  0.232502  0.63438  0  4.169329  0
C  C53  1  0.73133306  0.41546070  0.40005345  1  1.607325  0  0.232517  0.634365  0  4.169273  0
C  C54  1  0.73132960  0.91546126  0.09994571  1  1.607005  0  0.232502  0.63434  0  4.169341  0
C  C55  1  0.26867019  0.58453876  0.59994716  1  1.60705  0  0.232505  0.634293  0  4.169341  0
C  C56  1  0.14034745  0.12547149  0.84547388  1  0.021209  0  -0.003783  -0.071168  0  3.908172  0
C  C57  1  0.85965409  0.37452834  0.34547437  1  0.021209  0  -0.003768  -0.071072  0  3.907936  0
C  C58  1  0.85964848  0.87453004  0.15452814  1  0.02124  0  -0.003744  -0.070992  0  3.90801  0
C  C59  1  0.14035024  0.62547112  0.65452835  1  0.021262  0  -0.003769  -0.071068  0  3.908065  0
C  C60  1  0.99871384  0.07333614  0.87335837  1  0.468256  0  0.067414  0.104543  0  3.925239  0
C  C61  1  0.00128764  0.42666374  0.37335975  1  0.46825  0  0.06735  0.1044  0  3.925286  0
C  C62  1  0.00128495  0.92666224  0.12663874  1  0.468259  0  0.067378  0.104407  0  3.925253  0
C  C63  1  0.99871453  0.57333572  0.62664016  1  0.468502  0  0.067403  0.10451  0  3.925196  0
C  C64  1  0.89552496  0.18844910  0.75268713  1  0.489664  0  0.123336  0.120289  0  3.958713  0
C  C65  1  0.10447557  0.31154951  0.25268830  1  0.489669  0  0.123319  0.120378  0  3.958475  0
C  C66  1  0.10447000  0.81155349  0.24731279  1  0.489701  0  0.1233  0.120236  0  3.9586  0
C  C67  1  0.89552935  0.68844574  0.74731302  1  0.489245  0  0.123304  0.120317  0  3.958658  0
C  C68  1  0.03246499  0.24370377  0.71877038  1  -0.04352  0  -0.0719  -0.125392  0  3.917479  0
C  C69  1  0.96753561  0.25629477  0.21877065  1  -0.043545  0  -0.071931  -0.125456  0  3.917458  0
C  C70  1  0.96752928  0.75630197  0.28123094  1  -0.043562  0  -0.071884  -0.125394  0  3.917525  0
C  C71  1  0.03246796  0.74369836  0.78123208  1  -0.04309  0  -0.071914  -0.125472  0  3.91761  0
C  C72  1  0.15682936  0.21195485  0.76582916  1  0.003797  0  -0.056617  -0.037535  0  3.896988  0
C  C73  1  0.84317127  0.28804483  0.26582958  1  0.003836  0  -0.056614  -0.037527  0  3.896883  0
C  C74  1  0.84316778  0.78804774  0.23417287  1  0.003724  0  -0.056662  -0.037638  0  3.897005  0
C  C75  1  0.15683185  0.71195358  0.73417385  1  0.003727  0  -0.056643  -0.037589  0  3.897008  0
C  C76  1  0.75479569  0.22382636  0.71079135  1  1.598927  0  0.233895  0.593776  0  4.174461  0
C  C77  1  0.24520602  0.27617218  0.21079306  1  1.598973  0  0.233907  0.593688  0  4.174592  0
C  C78  1  0.24520164  0.77616885  0.28921137  1  1.598987  0  0.233988  0.593919  0  4.174404  0
C  C79  1  0.75479775  0.72383150  0.78921107  1  1.598993  0  0.233964  0.593821  0  4.174405  0
N  N80  1  0.87948104  0.10333419  0.82833867  1  -1.250057  0  -0.371371  -0.338535  0  3.516637  0
N  N81  1  0.12051945  0.39666560  0.32833990  1  -1.250077  0  -0.371326  -0.33848  0  3.516696  0
N  N82  1  0.12051571  0.89666523  0.17165914  1  -1.250064  0  -0.371361  -0.338491  0  3.516611  0
N  N83  1  0.87948380  0.60333386  0.67166001  1  -1.250436  0  -0.371337  -0.338509  0  3.516652  0
O  O84  1  0.63754495  0.15404133  0.74319823  1  -1.200817  0  -0.37282  -0.655053  0  2.367019  0
O  O85  1  0.36245573  0.34595831  0.24319848  1  -1.200836  0  -0.372814  -0.655034  0  2.367168  0
O  O86  1  0.36245276  0.84595704  0.25679958  1  -1.200735  0  -0.372818  -0.655131  0  2.366926  0
O  O87  1  0.63754669  0.65404326  0.75680073  1  -1.20075  0  -0.372825  -0.655087  0  2.366986  0
O  O88  1  0.49445936  0.88189068  0.75725380  1  -1.262492  0  -0.620446  -0.819794  0  2.104967  0
O  O89  1  0.50553901  0.61810962  0.25725440  1  -1.26252  0  -0.620493  -0.819975  0  2.104876  0
O  O90  1  0.50554135  0.11810560  0.24274541  1  -1.262382  0  -0.620466  -0.819842  0  2.104932  0
O  O91  1  0.49446258  0.38189405  0.74274551  1  -1.262387  0  -0.620456  -0.819929  0  2.104875  0
O  O92  1  0.39320146  0.10807578  0.86152305  1  -1.18395  0  -0.377811  -0.634033  0  2.304136  0
O  O93  1  0.60679909  0.39192513  0.36152310  1  -1.18393  0  -0.377793  -0.633997  0  2.304124  0
O  O94  1  0.60679032  0.89191835  0.13847756  1  -1.183804  0  -0.37782  -0.634089  0  2.303912  0
O  O95  1  0.39320926  0.60808068  0.63847962  1  -1.183805  0  -0.377834  -0.634098  0  2.303937  0
O  O96  1  0.53988138  0.14725089  0.03666456  1  -1.211037  0  -0.443629  -0.753079  0  2.437196  0
O  O97  1  0.46011878  0.35274943  0.53666537  1  -1.211025  0  -0.443643  -0.753101  0  2.437232  0
O  O98  1  0.46011658  0.85274960  0.96333395  1  -1.211017  0  -0.44363  -0.753107  0  2.437208  0
O  O99  1  0.53988218  0.64724896  0.46333314  1  -1.211115  0  -0.443668  -0.753138  0  2.437199  0
O  O100  1  0.68697696  0.26036199  0.93171173  1  -1.18448  0  -0.379902  -0.632621  0  2.183267  0
O  O101  1  0.31302211  0.23963693  0.43171193  1  -1.184542  0  -0.379886  -0.632619  0  2.183229  0
O  O102  1  0.31302317  0.73963851  0.06828678  1  -1.184541  0  -0.379932  -0.632658  0  2.183277  0
O  O103  1  0.68697790  0.76036251  0.56828658  1  -1.184455  0  -0.379903  -0.632623  0  2.183231  0
O  O104  1  0.24072754  0.02848093  0.98013851  1  -1.187134  0  -0.380344  -0.644998  0  2.309766  0
O  O105  1  0.75927264  0.47151914  0.48013918  1  -1.187206  0  -0.380355  -0.645025  0  2.309782  0
O  O106  1  0.75926463  0.97151636  0.01986281  1  -1.187133  0  -0.380341  -0.64497  0  2.309981  0
O  O107  1  0.24073642  0.52848351  0.51986424  1  -1.187086  0  -0.380312  -0.644879  0  2.310006  0
O  O108  1  0.75807960  0.32037893  0.65043080  1  -1.180628  0  -0.354078  -0.612063  0  2.300027  0
O  O109  1  0.24192114  0.17961949  0.15043242  1  -1.180646  0  -0.354091  -0.612027  0  2.300045  0
O  O110  1  0.24191728  0.67962155  0.34956842  1  -1.180635  0  -0.354127  -0.612116  0  2.300213  0
O  O111  1  0.75808249  0.82038313  0.84956680  1  -1.180667  0  -0.35412  -0.612075  0  2.300159  0
