# generated using pymatgen
data_CoH14C17(NO2)2
_symmetry_space_group_name_H-M   'P 1'
_cell_length_a   6.83464762
_cell_length_b   9.42044156
_cell_length_c   11.10747778
_cell_angle_alpha   86.60994084
_cell_angle_beta   88.72695778
_cell_angle_gamma   90.05341190
_symmetry_Int_Tables_number   1
_chemical_formula_structural   CoH14C17(NO2)2
_chemical_formula_sum   'Co2 H28 C34 N4 O8'
_cell_volume   713.72990839
_cell_formula_units_Z   2
loop_
 _symmetry_equiv_pos_site_id
 _symmetry_equiv_pos_as_xyz
  1  'x, y, z'
loop_
 _atom_site_type_symbol
 _atom_site_label
 _atom_site_symmetry_multiplicity
 _atom_site_fract_x
 _atom_site_fract_y
 _atom_site_fract_z
 _atom_site_occupancy
 _atom_site_hle17_ddec_charge
 _atom_site_hle17_ddec_spin_density
 _atom_site_hle17_ddec_sum_bond_order
 _atom_site_hle17_magmom
 _atom_site_hse06_10hf_ddec_charge
 _atom_site_hse06_10hf_ddec_spin_density
 _atom_site_hse06_10hf_ddec_sum_bond_order
 _atom_site_hse06_10hf_magmom
 _atom_site_hse06_ddec_charge
 _atom_site_hse06_ddec_spin_density
 _atom_site_hse06_ddec_sum_bond_order
 _atom_site_hse06_magmom
 _atom_site_pbe_cm5_charge
 _atom_site_pbe_ddec_charge
 _atom_site_pbe_ddec_spin_density
 _atom_site_pbe_ddec_sum_bond_order
 _atom_site_pbe_magmom
Co  Co0  1  0.22014473  0.27734145  0.73782781  1  0.908559  2.855925  1.904449  2.555  0.862055  2.854019  2.314365  2.629  0.96008  2.892606  2.225364  2.711  0.656626  0.790258  2.821148  2.376932  2.554
Co  Co1  1  0.77985778  0.72265364  0.26217332  1  0.908638  2.855951  1.904483  2.555  0.862028  2.853996  2.314394  2.629  0.960125  2.892605  2.225397  2.711  0.656641  0.790336  2.821163  2.376922  2.554
H  H2  1  0.26599737  0.84670135  0.45811638  1  0.122813  0.00033  0.957411  0.0  0.131046  0.000391  1.01793  0.001  0.135537  0.000218  1.01593  0.0  0.106939  0.127338  0.000563  1.01994  0.001
H  H3  1  0.73399634  0.15329690  0.54188468  1  0.122695  0.000331  0.957555  0.0  0.131033  0.000392  1.017949  0.001  0.135523  0.000218  1.015953  0.0  0.106928  0.127321  0.000563  1.019955  0.001
H  H4  1  0.29526588  0.66656531  0.63015524  1  0.114282  8.2e-05  0.935008  0.001  0.12638  -0.000279  0.99122  0.0  0.13013  -0.000233  0.987604  0.0  0.112285  0.12263  -0.000286  0.995396  0.0
H  H5  1  0.70475120  0.33343833  0.36984804  1  0.114337  8.2e-05  0.935039  0.001  0.12644  -0.00028  0.991245  0.0  0.130192  -0.000232  0.987627  0.0  0.112289  0.122686  -0.000286  0.995422  0.0
H  H6  1  0.31557723  0.61676481  0.85655839  1  0.113795  3.2e-05  0.969646  0.0  0.122683  -5.1e-05  1.033203  0.0  0.126133  -9e-05  1.031929  0.0  0.106878  0.119015  1.8e-05  1.035704  0.0
H  H7  1  0.68442827  0.38323881  0.14343329  1  0.113785  3.2e-05  0.969622  0.0  0.122614  -5.1e-05  1.033258  0.0  0.126053  -9e-05  1.032002  0.0  0.106833  0.118958  1.8e-05  1.035721  0.0
H  H8  1  0.30295847  0.70819014  0.06266656  1  0.11415  8.6e-05  0.955708  0.0  0.125647  9.3e-05  1.013433  0.0  0.129243  2.1e-05  1.012462  0.0  0.106524  0.122835  0.000164  1.014064  0.0
H  H9  1  0.69703377  0.29181235  0.93733340  1  0.114223  8.6e-05  0.955746  0.0  0.125703  9.3e-05  1.013482  0.0  0.129298  2e-05  1.012512  0.0  0.106541  0.122909  0.000164  1.014097  0.0
H  H10  1  0.25215143  0.91580213  0.19454701  1  0.117547  -0.00014  0.933736  0.0  0.128875  -0.000356  0.992616  0.0  0.132696  -0.000301  0.989087  0.0  0.112579  0.125349  -0.00041  0.996244  0.0
H  H11  1  0.74783512  0.08418867  0.80544367  1  0.117542  -0.000139  0.933701  0.0  0.128862  -0.000356  0.992587  0.0  0.132736  -0.000301  0.988988  0.0  0.112605  0.125341  -0.00041  0.996206  0.0
H  H12  1  0.21343777  0.18009832  0.20509937  1  0.102809  0.000473  0.955982  0.0  0.116372  0.000473  1.012724  0.0  0.119143  0.000329  1.012591  0.0  0.105281  0.11411  0.000622  1.013535  0.001
H  H13  1  0.78655152  0.81989778  0.79490454  1  0.10279  0.000472  0.956062  0.0  0.116371  0.000473  1.012767  0.0  0.11914  0.000329  1.012636  0.0  0.105281  0.114111  0.000622  1.013578  0.001
H  H14  1  0.10042414  0.20315417  0.48819937  1  0.125493  -0.000752  0.957996  -0.001  0.145022  -0.000265  1.022278  0.0  0.146618  -0.000265  1.022522  0.0  0.097369  0.143037  -0.000267  1.023268  0.0
H  H15  1  0.89957830  0.79685049  0.51180399  1  0.125537  -0.000751  0.957817  -0.001  0.145015  -0.000265  1.022174  0.0  0.146613  -0.000265  1.022415  0.0  0.097366  0.143028  -0.000266  1.023163  0.0
H  H16  1  0.19835641  0.08087019  0.38578770  1  0.115465  -4.3e-05  0.952547  0.0  0.139816  8.3e-05  1.007719  0.0  0.141256  5.8e-05  1.007746  0.0  0.093369  0.13903  0.000118  1.007428  0.0
H  H17  1  0.80164020  0.91912913  0.61421508  1  0.115447  -4.1e-05  0.952577  0.0  0.139788  8.3e-05  1.007764  0.0  0.141229  5.8e-05  1.007793  0.0  0.093365  0.139002  0.000118  1.007472  0.0
H  H18  1  0.35490392  0.20132127  0.45739245  1  0.130784  -0.001187  0.981303  -0.001  0.150715  -0.000619  1.046819  0.0  0.152789  -0.000505  1.04681  0.0  0.097104  0.148453  -0.00082  1.047613  -0.001
H  H19  1  0.64509852  0.79866954  0.54261609  1  0.130784  -0.001188  0.9814  -0.001  0.150727  -0.000619  1.046892  0.0  0.152803  -0.000505  1.046881  0.0  0.097111  0.148464  -0.00082  1.047684  -0.001
H  H20  1  0.34119281  0.42598997  0.03733595  1  0.140427  -0.000569  0.930607  -0.001  0.163328  -0.000181  0.988692  0.0  0.166246  -0.000151  0.987006  0.0  0.102666  0.15996  -0.000247  0.991079  0.0
H  H21  1  0.65880527  0.57400616  0.96266787  1  0.140426  -0.00057  0.93065  -0.001  0.163361  -0.000182  0.988703  0.0  0.16628  -0.000151  0.987015  0.0  0.102671  0.159989  -0.000248  0.991095  0.0
H  H22  1  0.09993428  0.40154447  0.09682233  1  0.123953  -0.00029  0.964891  0.0  0.14436  -0.000116  1.026312  0.0  0.146422  -0.0001  1.026232  0.0  0.094171  0.142201  -0.000139  1.026933  0.0
H  H23  1  0.90005795  0.59845163  0.90318155  1  0.123958  -0.000292  0.96485  0.0  0.144343  -0.000116  1.026308  0.0  0.146399  -0.0001  1.026234  0.0  0.094166  0.142186  -0.000139  1.026926  0.0
H  H24  1  0.14201444  0.42830811  0.93724587  1  0.123216  -0.00069  0.979186  0.0  0.138586  -0.00017  1.048092  0.0  0.140485  -0.000172  1.047366  0.0  0.096639  0.136608  -0.000147  1.049567  0.0
H  H25  1  0.85798517  0.57168378  0.06275365  1  0.123202  -0.00069  0.979184  0.0  0.138569  -0.00017  1.048086  0.0  0.14047  -0.000172  1.047361  0.0  0.096641  0.136592  -0.000148  1.049558  0.0
H  H26  1  0.72979766  0.51112076  0.55464894  1  0.155143  0.000539  0.915662  0.001  0.166195  0.000646  0.972859  0.001  0.169472  0.000377  0.971058  0.001  0.115713  0.164154  0.000948  0.973914  0.002
H  H27  1  0.27021819  0.48887334  0.44533680  1  0.155137  0.000539  0.915858  0.001  0.166216  0.000646  0.973019  0.001  0.169491  0.000377  0.971219  0.001  0.115703  0.164171  0.000949  0.974081  0.002
H  H28  1  0.72400581  0.59235762  0.69505932  1  0.135105  0.000642  0.920539  0.001  0.149499  0.000697  0.974859  0.001  0.151432  0.00045  0.974157  0.001  0.110583  0.149102  0.000965  0.974687  0.002
H  H29  1  0.27600102  0.40765343  0.30494099  1  0.1351  0.000642  0.92069  0.001  0.149515  0.000697  0.974978  0.001  0.151447  0.00045  0.974276  0.001  0.110602  0.149127  0.000965  0.974798  0.002
C  C30  1  0.25007494  0.02556097  0.57144241  1  0.340259  -0.023915  3.676676  -0.016  0.351152  -0.008398  3.920131  -0.005  0.364564  -0.006963  3.937545  -0.004  0.133732  0.341286  -0.010462  3.90959  -0.006
C  C31  1  0.74991719  0.97444576  0.42856545  1  0.340099  -0.023873  3.67692  -0.016  0.351014  -0.008398  3.92034  -0.005  0.364425  -0.006961  3.937759  -0.004  0.133634  0.341142  -0.010462  3.909798  -0.006
C  C32  1  0.26815571  0.87967433  0.55047408  1  -0.166486  0.009251  3.686605  0.014  -0.182669  0.003263  3.931091  0.005  -0.190756  0.003007  3.947707  0.005  -0.083583  -0.177957  0.00314  3.922444  0.006
C  C33  1  0.73184684  0.12031864  0.44952355  1  -0.166537  0.009228  3.686858  0.014  -0.182793  0.003261  3.931315  0.005  -0.190886  0.003007  3.947937  0.005  -0.083613  -0.178077  0.003137  3.922666  0.006
C  C34  1  0.28464552  0.77950380  0.64562054  1  -0.033241  -0.026907  3.673843  -0.017  -0.057192  -0.010493  3.922873  -0.006  -0.049408  -0.007895  3.933092  -0.004  -0.063509  -0.064833  -0.014978  3.920277  -0.008
C  C35  1  0.71536430  0.22050302  0.35437544  1  -0.033108  -0.026881  3.673664  -0.017  -0.05707  -0.010502  3.922725  -0.006  -0.049283  -0.007903  3.932939  -0.004  -0.063452  -0.064715  -0.014993  3.920134  -0.008
C  C36  1  0.28160854  0.82426652  0.76466356  1  0.02191  0.004897  3.806903  0.008  0.034998  0.001573  4.04271  0.003  0.031969  0.001423  4.065681  0.002  -0.005669  0.037061  0.001656  4.028223  0.003
C  C37  1  0.71839536  0.17574239  0.23533868  1  0.021804  0.004878  3.807033  0.008  0.034883  0.001573  4.042859  0.003  0.031856  0.001424  4.065818  0.002  -0.005691  0.036944  0.001656  4.028375  0.003
C  C38  1  0.29601135  0.72965035  0.86961453  1  -0.101434  -0.001804  3.716948  -0.001  -0.123529  -0.000343  3.971295  0.0  -0.126375  -0.000784  3.992638  0.0  -0.084655  -0.121221  -4.2e-05  3.958278  0.0
C  C39  1  0.70399400  0.27035857  0.13038769  1  -0.101508  -0.001741  3.716657  -0.001  -0.123554  -0.000343  3.971041  0.0  -0.126395  -0.000784  3.992374  0.0  -0.084559  -0.121244  -4.2e-05  3.95804  0.0
C  C40  1  0.28752224  0.77991012  0.98270035  1  -0.087486  0.002355  3.699533  0.003  -0.110063  0.000692  3.952312  0.001  -0.1132  0.000682  3.974114  0.001  -0.083574  -0.107962  0.000715  3.938285  0.001
C  C41  1  0.71247595  0.22009241  0.01729055  1  -0.087535  0.002325  3.699214  0.003  -0.110046  0.000692  3.951941  0.001  -0.113189  0.000683  3.973752  0.001  -0.083628  -0.107958  0.000715  3.937906  0.001
C  C42  1  0.26325092  0.92840570  0.99901856  1  0.024659  0.001794  3.79114  0.003  0.039697  0.000492  4.026825  0.001  0.036579  0.000133  4.050128  0.0  -0.003407  0.041586  0.000754  4.011902  0.002
C  C43  1  0.73673980  0.07159252  0.00098792  1  0.024921  0.001821  3.790993  0.003  0.039972  0.000491  4.026802  0.001  0.036855  0.000132  4.050118  0.0  -0.003339  0.041858  0.000752  4.011889  0.002
C  C44  1  0.24880288  0.98671483  0.11322939  1  -0.02924  -0.013044  3.666264  -0.008  -0.06086  -0.004377  3.928607  -0.002  -0.054414  -0.002328  3.941233  -0.001  -0.064371  -0.066382  -0.008158  3.922404  -0.004
C  C45  1  0.75118206  0.01328870  0.88676879  1  -0.029248  -0.013136  3.665681  -0.008  -0.060815  -0.004384  3.928013  -0.002  -0.054409  -0.002334  3.940622  -0.001  -0.064299  -0.066346  -0.008172  3.921825  -0.004
C  C46  1  0.22657068  0.13167310  0.11869922  1  -0.170646  0.005041  3.702659  0.008  -0.190316  0.001796  3.959147  0.003  -0.198894  0.001415  3.978806  0.002  -0.085973  -0.185221  0.001844  3.947557  0.004
C  C47  1  0.77342598  0.86832409  0.88130006  1  -0.170805  0.005077  3.70255  0.008  -0.190447  0.001796  3.959075  0.003  -0.199027  0.001415  3.978746  0.002  -0.086076  -0.185355  0.001842  3.947491  0.004
C  C48  1  0.21846454  0.22180127  0.01257454  1  0.342222  -0.012373  3.701958  -0.008  0.347191  -0.00256  3.953278  -0.001  0.361569  -0.001644  3.970724  -0.001  0.135004  0.336424  -0.004045  3.942346  -0.002
C  C49  1  0.78153358  0.77820019  0.98742272  1  0.342241  -0.012444  3.701865  -0.008  0.34712  -0.002564  3.953325  -0.001  0.361501  -0.001647  3.970767  -0.001  0.134953  0.336352  -0.00405  3.942399  -0.002
C  C50  1  0.25287015  0.02459106  0.89652040  1  0.128001  -0.006602  3.787828  -0.004  0.121127  -0.002654  4.032097  -0.001  0.126943  -0.001323  4.054758  0.0  0.110683  0.117112  -0.004758  4.017261  -0.002
C  C51  1  0.74710738  0.97541881  0.10348384  1  0.127929  -0.006654  3.787624  -0.004  0.120809  -0.002657  4.032321  -0.001  0.126619  -0.001322  4.054983  0.0  0.110582  0.116795  -0.004765  4.017489  -0.002
C  C52  1  0.26348852  0.97238151  0.77846943  1  0.128487  -0.013516  3.788415  -0.009  0.124281  -0.005689  4.030425  -0.003  0.129435  -0.004574  4.053213  -0.003  0.111462  0.120271  -0.007775  4.015725  -0.004
C  C53  1  0.73650373  0.02762524  0.22152852  1  0.128501  -0.013489  3.788328  -0.009  0.124357  -0.005695  4.030425  -0.003  0.129518  -0.004578  4.053207  -0.003  0.111394  0.120336  -0.007785  4.015729  -0.004
C  C54  1  0.22456513  0.13360149  0.46915908  1  -0.390697  0.000419  3.705767  0.003  -0.48092  0.000245  3.945121  0.002  -0.485519  9.1e-05  3.952113  0.001  -0.244227  -0.477336  0.000369  3.94172  0.002
C  C55  1  0.77543000  0.86639994  0.53084451  1  -0.390668  0.000417  3.705737  0.003  -0.48087  0.000245  3.945092  0.002  -0.485476  9.2e-05  3.952082  0.001  -0.244221  -0.477282  0.000369  3.941689  0.002
C  C56  1  0.19785665  0.37832068  0.02097755  1  -0.3877  0.000452  3.679958  0.002  -0.47111  0.000525  3.914914  0.002  -0.475732  0.000298  3.92039  0.001  -0.240823  -0.466877  0.000805  3.912449  0.002
C  C57  1  0.80213701  0.62168075  0.97902605  1  -0.387704  0.000453  3.679963  0.002  -0.471092  0.000525  3.914963  0.002  -0.475713  0.000296  3.92044  0.001  -0.240805  -0.466857  0.000804  3.912497  0.002
C  C58  1  0.53907723  0.40853965  0.68979467  1  0.698718  -0.013942  3.844612  -0.011  0.654043  -0.003843  4.154398  -0.003  0.691327  -0.002804  4.150604  -0.002  0.200575  0.627556  -0.003736  4.153611  -0.004
C  C59  1  0.46091063  0.59145112  0.31020861  1  0.699004  -0.01395  3.844536  -0.011  0.654362  -0.003846  4.154252  -0.003  0.691651  -0.002806  4.150439  -0.002  0.200533  0.627873  -0.00374  4.153475  -0.004
C  C60  1  0.72445428  0.48979880  0.65315717  1  -0.408685  0.00103  3.635197  0.001  -0.439188  0.001018  3.865054  0.0  -0.447897  9e-05  3.8648  0.0  -0.160069  -0.433041  0.002195  3.86387  0.001
C  C61  1  0.27555118  0.51019949  0.34684018  1  -0.408757  0.001032  3.635597  0.001  -0.439306  0.001019  3.865461  0.0  -0.448016  8.9e-05  3.865201  0.0  -0.160046  -0.433148  0.002197  3.864261  0.001
C  C62  1  0.90775286  0.40932299  0.69061435  1  0.69982  0.002466  3.832522  0.001  0.660246  0.006349  4.12945  0.005  0.695115  0.004886  4.128068  0.004  0.20567  0.635676  0.007891  4.128377  0.006
C  C63  1  0.09226868  0.59067642  0.30938369  1  0.700152  0.002468  3.83283  0.001  0.66046  0.006352  4.129886  0.005  0.695332  0.00489  4.128491  0.004  0.205752  0.635889  0.007894  4.128829  0.006
N  N64  1  0.25149487  0.07043173  0.68389483  1  -0.390262  0.04085  3.254644  0.078  -0.351897  0.027819  3.531128  0.051  -0.379737  0.022516  3.544963  0.043  -0.325271  -0.333325  0.031836  3.522561  0.056
N  N65  1  0.74850177  0.92957079  0.31610419  1  -0.390139  0.04083  3.254143  0.078  -0.351735  0.027818  3.530565  0.051  -0.379591  0.022514  3.544417  0.043  -0.325176  -0.333168  0.031832  3.522001  0.056
N  N66  1  0.23074001  0.16785366  0.90354732  1  -0.395956  0.041199  3.262979  0.07  -0.357637  0.028298  3.551612  0.044  -0.387754  0.021942  3.566643  0.035  -0.325642  -0.336721  0.034173  3.542221  0.053
N  N67  1  0.76924932  0.83214244  0.09645389  1  -0.395891  0.041223  3.262462  0.07  -0.357457  0.028299  3.551192  0.044  -0.387589  0.021942  3.566236  0.035  -0.325557  -0.336566  0.034172  3.541826  0.053
O  O68  1  0.48075923  0.40160486  0.79940309  1  -0.614824  0.037576  1.953321  0.07  -0.579642  0.028424  2.20674  0.052  -0.619071  0.019617  2.201663  0.037  -0.304075  -0.546671  0.038171  2.206218  0.066
O  O69  1  0.51926947  0.59838924  0.20061044  1  -0.614979  0.037599  1.953328  0.07  -0.57986  0.028438  2.206815  0.052  -0.619309  0.019624  2.20174  0.037  -0.304086  -0.546897  0.038191  2.20629  0.066
O  O70  1  0.44145692  0.34680538  0.61079487  1  -0.608173  0.049243  1.976385  0.086  -0.576822  0.034439  2.242974  0.058  -0.619613  0.024046  2.237184  0.042  -0.309966  -0.541458  0.045366  2.242685  0.074
O  O71  1  0.55854582  0.65319188  0.38918454  1  -0.608318  0.049247  1.976494  0.086  -0.576944  0.034444  2.243099  0.058  -0.619757  0.024047  2.237307  0.042  -0.309987  -0.541588  0.045373  2.242807  0.074
O  O72  1  0.91242147  0.27345843  0.68924815  1  -0.620946  0.034734  1.936469  0.057  -0.580049  0.027958  2.183695  0.043  -0.618488  0.020321  2.176639  0.031  -0.311913  -0.549474  0.036167  2.186369  0.055
O  O73  1  0.08757521  0.72652387  0.31075545  1  -0.621167  0.03472  1.936978  0.057  -0.580086  0.027952  2.184092  0.043  -0.61853  0.020316  2.177037  0.031  -0.311924  -0.549529  0.03616  2.186781  0.055
O  O74  1  0.05820946  0.47799187  0.72082905  1  -0.6218  0.026365  1.947601  0.043  -0.581408  0.02112  2.194027  0.031  -0.618304  0.015613  2.187464  0.023  -0.315105  -0.552575  0.026648  2.19774  0.039
O  O75  1  0.94180023  0.52202876  0.27917347  1  -0.621926  0.026381  1.947837  0.043  -0.581499  0.02113  2.194334  0.031  -0.618411  0.015619  2.18777  0.023  -0.315152  -0.552678  0.026661  2.198057  0.039
