# generated using pymatgen
data_RbH6C7NO6
_symmetry_space_group_name_H-M   'P 1'
_cell_length_a   6.85901213
_cell_length_b   11.82918011
_cell_length_c   11.78674795
_cell_angle_alpha   90.00050656
_cell_angle_beta   89.99945047
_cell_angle_gamma   107.65737949
_symmetry_Int_Tables_number   1
_chemical_formula_structural   RbH6C7NO6
_chemical_formula_sum   'Rb4 H24 C28 N4 O24'
_cell_volume   911.27988950
_cell_formula_units_Z   4
loop_
 _symmetry_equiv_pos_site_id
 _symmetry_equiv_pos_as_xyz
  1  'x, y, z'
loop_
 _atom_site_type_symbol
 _atom_site_label
 _atom_site_symmetry_multiplicity
 _atom_site_fract_x
 _atom_site_fract_y
 _atom_site_fract_z
 _atom_site_occupancy
 _atom_site_hle17_bader_spin_density
 _atom_site_hle17_ddec_charge
 _atom_site_hle17_ddec_spin_density
 _atom_site_hle17_ddec_sum_bond_order
 _atom_site_hle17_magmom
 _atom_site_hse06_10hf_bader_spin_density
 _atom_site_hse06_10hf_ddec_charge
 _atom_site_hse06_10hf_ddec_spin_density
 _atom_site_hse06_10hf_ddec_sum_bond_order
 _atom_site_hse06_10hf_magmom
 _atom_site_hse06_bader_spin_density
 _atom_site_hse06_ddec_charge
 _atom_site_hse06_ddec_spin_density
 _atom_site_hse06_ddec_sum_bond_order
 _atom_site_hse06_magmom
 _atom_site_pbe_bader_spin_density
 _atom_site_pbe_cm5_charge
 _atom_site_pbe_ddec_charge
 _atom_site_pbe_ddec_spin_density
 _atom_site_pbe_ddec_sum_bond_order
 _atom_site_pbe_magmom
Rb  Rb0  1  0.23699105  0.10928263  0.88745579  1  0  0.942373  0  0.426178  0  0  0.889317  0  0.622713  0  0  0.905385  0  0.598521  0  0  0.739674  0.877362  0  0.640008  0
Rb  Rb1  1  0.26301555  0.89071554  0.38745026  1  0  0.942405  0  0.426161  0  0  0.889335  0  0.62274  0  0  0.905421  0  0.598515  0  0  0.739708  0.877382  0  0.640037  0
Rb  Rb2  1  0.76301057  0.89071508  0.11254515  1  0  0.942378  0  0.42616  0  0  0.889312  0  0.622729  0  0  0.905393  0  0.598517  0  0  0.739678  0.877358  0  0.640027  0
Rb  Rb3  1  0.73697917  0.10928296  0.61255153  1  0  0.942371  0  0.426243  0  0  0.889316  0  0.622814  0  0  0.905405  0  0.598583  0  0  0.739706  0.877357  0  0.640111  0
H  H4  1  0.60183933  0.11526136  0.30579728  1  0  0.373226  0  0.926473  0  0  0.343454  0  1.00478  0  0  0.3563  0  0.992597  0  0  0.29612  0.334498  0  1.013082  0
H  H5  1  0.89817188  0.88474793  0.80578090  1  0  0.373385  0  0.926443  0  0  0.343576  0  1.004816  0  0  0.356426  0  0.99263  0  0  0.296149  0.334619  0  1.013118  0
H  H6  1  0.39818381  0.88474455  0.69421045  1  0  0.373312  0  0.926326  0  0  0.343495  0  1.004704  0  0  0.356343  0  0.992521  0  0  0.29611  0.334539  0  1.013005  0
H  H7  1  0.10182888  0.11524801  0.19422004  1  0  0.373337  0  0.926471  0  0  0.343547  0  1.00482  0  0  0.356396  0  0.992634  0  0  0.296117  0.33459  0  1.013122  0
H  H8  1  0.59922154  0.34939501  0.50158942  1  0  0.127429  0  0.949258  0  0  0.134981  0  1.01004  0  0  0.139183  0  1.007727  0  0  0.115737  0.131954  0  1.011974  0
H  H9  1  0.90079351  0.65061849  0.00157667  1  0  0.127343  0  0.949324  0  0  0.135021  0  1.009997  0  0  0.139208  0  1.007709  0  0  0.115789  0.131987  0  1.011954  0
H  H10  1  0.40077534  0.65060793  0.49841576  1  0  0.127472  0  0.949242  0  0  0.135037  0  1.010007  0  0  0.139241  0  1.007685  0  0  0.115762  0.132013  0  1.01194  0
H  H11  1  0.09921388  0.34937313  0.99842258  1  0  0.12741  0  0.949333  0  0  0.135043  0  1.010052  0  0  0.139216  0  1.00778  0  0  0.115807  0.132011  0  1.012009  0
H  H12  1  0.59851070  0.54599062  0.42218418  1  0  0.117044  0  0.952515  0  0  0.125533  0  1.01561  0  0  0.128631  0  1.012882  0  0  0.117038  0.123272  0  1.017603  0
H  H13  1  0.90150917  0.45402219  0.92217152  1  0  0.117118  0  0.952502  0  0  0.125595  0  1.015573  0  0  0.128704  0  1.012819  0  0  0.117071  0.123329  0  1.017575  0
H  H14  1  0.40147988  0.45401136  0.57782184  1  0  0.117102  0  0.952466  0  0  0.12559  0  1.01555  0  0  0.128693  0  1.012808  0  0  0.117074  0.123324  0  1.017548  0
H  H15  1  0.09850246  0.54597212  0.07781839  1  0  0.117114  0  0.952502  0  0  0.125579  0  1.015593  0  0  0.128681  0  1.012862  0  0  0.117089  0.123315  0  1.017591  0
H  H16  1  0.58862277  0.40836802  0.08251823  1  0  0.134829  0  0.93868  0  0  0.140087  0  1.004783  0  0  0.14408  0  1.000455  0  0  0.120448  0.13715  0  1.007913  0
H  H17  1  0.91138521  0.59163358  0.58250336  1  0  0.134822  0  0.938842  0  0  0.140094  0  1.004904  0  0  0.144079  0  1.000586  0  0  0.120457  0.13717  0  1.008016  0
H  H18  1  0.41137575  0.59163230  0.91748865  1  0  0.134736  0  0.938779  0  0  0.140005  0  1.004856  0  0  0.143992  0  1.000541  0  0  0.120448  0.137084  0  1.007968  0
H  H19  1  0.08861668  0.40836765  0.41749164  1  0  0.134838  0  0.938702  0  0  0.140084  0  1.004795  0  0  0.144079  0  1.000466  0  0  0.120464  0.137143  0  1.007923  0
H  H20  1  0.73546193  0.12079191  0.94960893  1  0  0.414072  0  0.89211  0  0  0.386575  0  0.951784  0  0  0.39743  0  0.935711  0  0  0.286521  0.378904  0  0.963127  0
H  H21  1  0.76452952  0.87920838  0.44960244  1  0  0.41413  0  0.89203  0  0  0.38659  0  0.951761  0  0  0.397445  0  0.935691  0  0  0.286556  0.378914  0  0.963111  0
H  H22  1  0.26454186  0.87921024  0.05039286  1  0  0.414092  0  0.892094  0  0  0.386595  0  0.951762  0  0  0.397454  0  0.935683  0  0  0.28656  0.37892  0  0.963111  0
H  H23  1  0.23546003  0.12079447  0.55039680  1  0  0.414248  0  0.891924  0  0  0.386783  0  0.951532  0  0  0.397634  0  0.935471  0  0  0.286628  0.37911  0  0.962878  0
H  H24  1  0.65514742  0.01091218  0.87138183  1  0  0.392707  0  0.923882  0  0  0.363986  0  0.987257  0  0  0.373862  0  0.97258  0  0  0.283808  0.357016  0  0.997608  0
H  H25  1  0.84484527  0.98909114  0.37138181  1  0  0.392723  0  0.923858  0  0  0.363997  0  0.987241  0  0  0.373874  0  0.972564  0  0  0.283835  0.35703  0  0.997584  0
H  H26  1  0.34485387  0.98909082  0.12861826  1  0  0.39282  0  0.923733  0  0  0.364083  0  0.987131  0  0  0.373962  0  0.972454  0  0  0.283859  0.357117  0  0.997468  0
H  H27  1  0.15514532  0.01091084  0.62861743  1  0  0.392752  0  0.923809  0  0  0.364032  0  0.987183  0  0  0.37391  0  0.972502  0  0  0.283812  0.357063  0  0.99753  0
C  C28  1  0.59708185  0.28682802  0.21670564  1  0  -0.215364  0  3.738698  0  0  -0.196186  0  3.980301  0  0  -0.212444  0  4.003635  0  0  -0.032721  -0.185747  0  3.964691  0
C  C29  1  0.90291785  0.71317877  0.71668598  1  0  -0.215364  0  3.739306  0  0  -0.196121  0  3.980637  0  0  -0.212373  0  4.003956  0  0  -0.032685  -0.185693  0  3.965033  0
C  C30  1  0.40291651  0.71317494  0.78329954  1  0  -0.215519  0  3.739101  0  0  -0.196264  0  3.980692  0  0  -0.21251  0  4.003979  0  0  -0.032744  -0.185821  0  3.965087  0
C  C31  1  0.09707877  0.28682064  0.28331156  1  0  -0.215491  0  3.739331  0  0  -0.196309  0  3.980843  0  0  -0.212565  0  4.004165  0  0  -0.032708  -0.185879  0  3.965238  0
C  C32  1  0.59794333  0.27039783  0.33655202  1  0  0.370912  0  3.760121  0  0  0.352904  0  4.021608  0  0  0.371667  0  4.034278  0  0  0.108796  0.340318  0  4.012739  0
C  C33  1  0.90206222  0.72960983  0.83653167  1  0  0.370545  0  3.760431  0  0  0.352765  0  4.021646  0  0  0.371522  0  4.034326  0  0  0.108772  0.340204  0  4.012739  0
C  C34  1  0.40206486  0.72960437  0.66345655  1  0  0.37093  0  3.760289  0  0  0.352826  0  4.021872  0  0  0.371596  0  4.034537  0  0  0.108759  0.340238  0  4.013007  0
C  C35  1  0.09793300  0.27038075  0.16346588  1  0  0.370823  0  3.760105  0  0  0.352893  0  4.021575  0  0  0.371653  0  4.034245  0  0  0.108841  0.340331  0  4.01267  0
C  C36  1  0.59575116  0.36365749  0.41056523  1  0  -0.16276  0  3.673511  0  0  -0.183141  0  3.932992  0  0  -0.19332  0  3.951617  0  0  -0.090889  -0.176611  0  3.920568  0
C  C37  1  0.90425919  0.63635336  0.91054826  1  0  -0.162659  0  3.673195  0  0  -0.183245  0  3.932648  0  0  -0.193413  0  3.951283  0  0  -0.090968  -0.176725  0  3.92021  0
C  C38  1  0.40425410  0.63634467  0.58943740  1  0  -0.162768  0  3.673297  0  0  -0.183153  0  3.932825  0  0  -0.193334  0  3.951452  0  0  -0.090886  -0.176626  0  3.920406  0
C  C39  1  0.09574407  0.36364173  0.08944504  1  0  -0.162641  0  3.673184  0  0  -0.183142  0  3.932709  0  0  -0.193295  0  3.951344  0  0  -0.090897  -0.176625  0  3.920276  0
C  C40  1  0.59391229  0.47144792  0.36723147  1  0  -0.053717  0  3.716931  0  0  -0.084134  0  3.9816  0  0  -0.0788  0  3.999985  0  0  -0.073468  -0.087162  0  3.968861  0
C  C41  1  0.90609202  0.52855816  0.86721181  1  0  -0.053677  0  3.716684  0  0  -0.084005  0  3.98141  0  0  -0.078659  0  3.999774  0  0  -0.07343  -0.087028  0  3.968663  0
C  C42  1  0.40609047  0.52855509  0.63277541  1  0  -0.053754  0  3.717012  0  0  -0.084174  0  3.981657  0  0  -0.07884  0  4.000045  0  0  -0.073512  -0.087202  0  3.96892  0
C  C43  1  0.09390803  0.47143336  0.13277725  1  0  -0.053909  0  3.717108  0  0  -0.084264  0  3.981862  0  0  -0.078921  0  4.000218  0  0  -0.073647  -0.087279  0  3.969088  0
C  C44  1  0.58993459  0.48658107  0.24905646  1  0  0.033741  0  3.749508  0  0  0.015832  0  4.009163  0  0  0.005734  0  4.035647  0  0  0.062782  0.022158  0  3.991225  0
C  C45  1  0.91007015  0.51342512  0.74904173  1  0  0.033912  0  3.749205  0  0  0.015887  0  4.009062  0  0  0.005786  0  4.035545  0  0  0.062808  0.022214  0  3.991123  0
C  C46  1  0.41006774  0.51342106  0.75094787  1  0  0.033695  0  3.749531  0  0  0.015839  0  4.009181  0  0  0.005738  0  4.035666  0  0  0.062805  0.022166  0  3.991244  0
C  C47  1  0.08993148  0.48657259  0.25094903  1  0  0.033869  0  3.74955  0  0  0.015901  0  4.009227  0  0  0.005801  0  4.035714  0  0  0.06288  0.02223  0  3.991285  0
C  C48  1  0.59235391  0.39564972  0.17391317  1  0  -0.053666  0  3.695495  0  0  -0.089877  0  3.954346  0  0  -0.082248  0  3.971528  0  0  -0.063684  -0.094233  0  3.942229  0
C  C49  1  0.90764061  0.60435408  0.67389080  1  0  -0.053862  0  3.695354  0  0  -0.090058  0  3.954256  0  0  -0.082435  0  3.97146  0  0  -0.063854  -0.09442  0  3.942133  0
C  C50  1  0.40764738  0.60435327  0.82609710  1  0  -0.053581  0  3.695228  0  0  -0.089804  0  3.954044  0  0  -0.082169  0  3.971223  0  0  -0.063735  -0.094174  0  3.941921  0
C  C51  1  0.09235031  0.39564262  0.32609656  1  0  -0.05366  0  3.695373  0  0  -0.089797  0  3.954186  0  0  -0.082176  0  3.971378  0  0  -0.063757  -0.094148  0  3.942066  0
C  C52  1  0.60165092  0.18799164  0.13843083  1  0  0.666311  0  3.890138  0  0  0.613653  0  4.190719  0  0  0.648359  0  4.182417  0  0  0.208176  0.590153  0  4.195755  0
C  C53  1  0.89835578  0.81201207  0.63840616  1  0  0.666204  0  3.890962  0  0  0.613463  0  4.191602  0  0  0.648171  0  4.183303  0  0  0.208159  0.589962  0  4.196638  0
C  C54  1  0.39835141  0.81201048  0.86157774  1  0  0.666324  0  3.8904  0  0  0.613619  0  4.191001  0  0  0.648325  0  4.182705  0  0  0.208215  0.590117  0  4.196036  0
C  C55  1  0.10163410  0.18798549  0.36157951  1  0  0.666382  0  3.890106  0  0  0.613703  0  4.190702  0  0  0.648415  0  4.182397  0  0  0.208238  0.5902  0  4.19574  0
N  N56  1  0.58254339  0.59880731  0.20578297  1  0  0.46215  0  3.987358  0  0  0.521234  0  4.241846  0  0  0.542961  0  4.251859  0  0  0.023759  0.506783  0  4.235015  0
N  N57  1  0.91746378  0.40119950  0.70577227  1  0  0.462248  0  3.987555  0  0  0.521291  0  4.242169  0  0  0.543021  0  4.252189  0  0  0.023832  0.506841  0  4.235331  0
N  N58  1  0.41745643  0.40119567  0.79422222  1  0  0.462258  0  3.987436  0  0  0.52121  0  4.242098  0  0  0.54294  0  4.252113  0  0  0.023786  0.50676  0  4.23526  0
N  N59  1  0.08253768  0.59880085  0.29421510  1  0  0.462385  0  3.987427  0  0  0.521484  0  4.241902  0  0  0.543214  0  4.251918  0  0  0.023974  0.507034  0  4.235069  0
O  O60  1  0.78340004  0.06590466  0.90085633  1  0  -0.904902  0  1.77651  0  0  -0.862995  0  1.934831  0  0  -0.8805  0  1.904875  0  0  -0.680919  -0.850486  0  1.955775  0
O  O61  1  0.71659055  0.93409529  0.40085402  1  0  -0.904965  0  1.776403  0  0  -0.862993  0  1.934809  0  0  -0.880509  0  1.904847  0  0  -0.680955  -0.850478  0  1.955757  0
O  O62  1  0.21660462  0.93409926  0.09914291  1  0  -0.905028  0  1.776357  0  0  -0.863098  0  1.934715  0  0  -0.880609  0  1.904745  0  0  -0.680999  -0.850583  0  1.955672  0
O  O63  1  0.28339753  0.06590754  0.59914268  1  0  -0.905134  0  1.776357  0  0  -0.863235  0  1.934706  0  0  -0.880749  0  1.904732  0  0  -0.68105  -0.850725  0  1.955657  0
O  O64  1  0.60422451  0.16735288  0.37977975  1  0  -0.531198  0  2.117353  0  0  -0.485492  0  2.345858  0  0  -0.509196  0  2.339626  0  0  -0.375504  -0.468605  0  2.349459  0
O  O65  1  0.89578285  0.83265684  0.87976291  1  0  -0.531139  0  2.117453  0  0  -0.485493  0  2.345934  0  0  -0.509195  0  2.339697  0  0  -0.37551  -0.468611  0  2.349524  0
O  O66  1  0.39580009  0.83265305  0.62022459  1  0  -0.531244  0  2.117305  0  0  -0.485487  0  2.345883  0  0  -0.509197  0  2.33965  0  0  -0.3755  -0.468597  0  2.349484  0
O  O67  1  0.10421574  0.16733466  0.12023633  1  0  -0.53127  0  2.117531  0  0  -0.485587  0  2.346057  0  0  -0.509287  0  2.33982  0  0  -0.375557  -0.468706  0  2.34965  0
O  O68  1  0.61442988  0.20434449  0.03331875  1  0  -0.625977  0  1.962637  0  0  -0.57708  0  2.190099  0  0  -0.601081  0  2.180296  0  0  -0.344004  -0.56035  0  2.196398  0
O  O69  1  0.88558762  0.79566308  0.53329995  1  0  -0.625809  0  1.96305  0  0  -0.576879  0  2.190543  0  0  -0.600879  0  2.180737  0  0  -0.344027  -0.560148  0  2.196848  0
O  O70  1  0.38556571  0.79565579  0.96668812  1  0  -0.625928  0  1.962706  0  0  -0.577014  0  2.190194  0  0  -0.601017  0  2.180394  0  0  -0.344015  -0.560284  0  2.196495  0
O  O71  1  0.11439840  0.20434149  0.46671033  1  0  -0.626069  0  1.961994  0  0  -0.577191  0  2.189472  0  0  -0.601199  0  2.179665  0  0  -0.344173  -0.560456  0  2.195773  0
O  O72  1  0.58983772  0.08664577  0.18715716  1  0  -0.687619  0  1.996502  0  0  -0.625006  0  2.221217  0  0  -0.650088  0  2.209798  0  0  -0.369305  -0.607565  0  2.228654  0
O  O73  1  0.91017408  0.91336098  0.68713588  1  0  -0.687619  0  1.996662  0  0  -0.624976  0  2.221399  0  0  -0.650063  0  2.209987  0  0  -0.36925  -0.60753  0  2.228829  0
O  O74  1  0.41017427  0.91335824  0.81285141  1  0  -0.687618  0  1.996599  0  0  -0.624955  0  2.221274  0  0  -0.650038  0  2.209858  0  0  -0.369261  -0.607511  0  2.228708  0
O  O75  1  0.08982765  0.08664290  0.31286505  1  0  -0.687554  0  1.996789  0  0  -0.624922  0  2.221507  0  0  -0.650005  0  2.210089  0  0  -0.36921  -0.607482  0  2.228945  0
O  O76  1  0.56459666  0.67599113  0.27445710  1  0  -0.404654  0  1.76515  0  0  -0.400723  0  1.969059  0  0  -0.411254  0  1.96422  0  0  -0.167417  -0.393703  0  1.972412  0
O  O77  1  0.93538799  0.32401057  0.77444730  1  0  -0.404866  0  1.765269  0  0  -0.400823  0  1.969111  0  0  -0.411373  0  1.964295  0  0  -0.167528  -0.3938  0  1.972461  0
O  O78  1  0.43539513  0.32400734  0.72554384  1  0  -0.404743  0  1.76507  0  0  -0.400755  0  1.969003  0  0  -0.411285  0  1.964162  0  0  -0.167427  -0.393731  0  1.972349  0
O  O79  1  0.06460750  0.67598354  0.22554092  1  0  -0.404796  0  1.765363  0  0  -0.40083  0  1.969248  0  0  -0.411364  0  1.964409  0  0  -0.167501  -0.393808  0  1.972597  0
O  O80  1  0.59497955  0.61596509  0.10104759  1  0  -0.394952  0  1.815871  0  0  -0.38296  0  2.028698  0  0  -0.394724  0  2.024622  0  0  -0.164962  -0.37515  0  2.031594  0
O  O81  1  0.90504401  0.38404211  0.60103681  1  0  -0.394814  0  1.815988  0  0  -0.382928  0  2.028871  0  0  -0.394662  0  2.024732  0  0  -0.164903  -0.375119  0  2.031762  0
O  O82  1  0.40502321  0.38403792  0.89895590  1  0  -0.394918  0  1.815962  0  0  -0.38292  0  2.028856  0  0  -0.394678  0  2.024775  0  0  -0.164968  -0.375114  0  2.031756  0
O  O83  1  0.09496228  0.61595918  0.39895395  1  0  -0.395065  0  1.815692  0  0  -0.383129  0  2.028525  0  0  -0.394876  0  2.024404  0  0  -0.16508  -0.375325  0  2.031429  0
