# generated using pymatgen
data_CuH13C19SNO4
_symmetry_space_group_name_H-M   'P 1'
_cell_length_a   8.04728651
_cell_length_b   10.63680388
_cell_length_c   10.95603231
_cell_angle_alpha   68.88522647
_cell_angle_beta   80.89536528
_cell_angle_gamma   73.97540328
_symmetry_Int_Tables_number   1
_chemical_formula_structural   CuH13C19SNO4
_chemical_formula_sum   'Cu2 H26 C38 S2 N2 O8'
_cell_volume   839.04085349
_cell_formula_units_Z   2
loop_
 _symmetry_equiv_pos_site_id
 _symmetry_equiv_pos_as_xyz
  1  'x, y, z'
loop_
 _atom_site_type_symbol
 _atom_site_label
 _atom_site_symmetry_multiplicity
 _atom_site_fract_x
 _atom_site_fract_y
 _atom_site_fract_z
 _atom_site_occupancy
 _atom_site_hle17_ddec_charge
 _atom_site_hle17_ddec_spin_density
 _atom_site_hle17_ddec_sum_bond_order
 _atom_site_hle17_magmom
 _atom_site_hse06_10hf_ddec_charge
 _atom_site_hse06_10hf_ddec_spin_density
 _atom_site_hse06_10hf_ddec_sum_bond_order
 _atom_site_hse06_10hf_magmom
 _atom_site_hse06_ddec_charge
 _atom_site_hse06_ddec_spin_density
 _atom_site_hse06_ddec_sum_bond_order
 _atom_site_hse06_magmom
 _atom_site_pbe_cm5_charge
 _atom_site_pbe_ddec_charge
 _atom_site_pbe_ddec_spin_density
 _atom_site_pbe_ddec_sum_bond_order
 _atom_site_pbe_magmom
Cu  Cu0  1  0.62948506  0.92575413  0.44842272  1  0.843908  -0.68091  1.906142  -0.491  0.834947  -0.803906  2.314758  -0.64  0.938644  -0.893789  2.232072  -0.742  0.685535  0.768031  -0.704613  2.37349  -0.547
Cu  Cu1  1  0.37051552  0.07424764  0.55156446  1  0.843919  0.680919  1.906207  0.491  0.834901  0.803907  2.314816  0.64  0.938456  0.893788  2.232343  0.742  0.685523  0.768041  0.70461  2.373497  0.547
H  H2  1  0.64547804  0.56618063  0.78051549  1  0.099745  6.3e-05  0.943124  0.0  0.109361  6e-06  1.004673  0.0  0.112025  1.2e-05  1.003592  0.0  0.106009  0.107552  3e-06  1.005444  0.0
H  H3  1  0.35451375  0.43382534  0.21947761  1  0.099874  -6.2e-05  0.943173  0.0  0.109455  -6e-06  1.004738  0.0  0.112115  -1.2e-05  1.003665  0.0  0.106078  0.107649  -3e-06  1.005505  0.0
H  H4  1  0.61328693  0.33654324  0.93971875  1  0.092682  8.6e-05  0.943304  0.0  0.107721  6.2e-05  0.995954  0.0  0.109813  3.8e-05  0.995943  0.0  0.103972  0.106237  9e-05  0.996076  0.0
H  H5  1  0.38671306  0.66346484  0.06027629  1  0.092638  -8.5e-05  0.943271  0.0  0.107684  -6.2e-05  0.995916  0.0  0.10977  -3.8e-05  0.995922  0.0  0.103967  0.106202  -9e-05  0.996041  0.0
H  H6  1  0.32007541  0.28583624  0.99610219  1  0.088826  5.3e-05  0.987362  0.0  0.097432  1.5e-05  1.051271  0.0  0.098676  9e-06  1.053227  0.0  0.097526  0.096466  8e-06  1.050138  0.0
H  H7  1  0.67992643  0.71416569  0.00390395  1  0.088831  -5.1e-05  0.987392  0.0  0.097461  -1.5e-05  1.05127  0.0  0.098706  -9e-06  1.053226  0.0  0.097559  0.096497  -8e-06  1.050135  0.0
H  H8  1  0.06331193  0.46613409  0.89783833  1  0.092514  -4.5e-05  0.967819  0.0  0.099449  -5.8e-05  1.037709  0.0  0.101785  -3.6e-05  1.037744  0.0  0.097814  0.097695  -7.8e-05  1.037929  0.0
H  H9  1  0.93668674  0.53386579  0.10217256  1  0.092438  4.8e-05  0.96789  0.0  0.099391  5.8e-05  1.037768  0.0  0.101728  3.6e-05  1.037802  0.0  0.097764  0.097638  7.8e-05  1.037986  0.0
H  H10  1  0.14289127  0.71705737  0.95464653  1  0.088389  0.000104  0.986456  0.0  0.098516  0.0001  1.049054  0.0  0.101337  6.1e-05  1.048494  0.0  0.095717  0.096431  0.000128  1.049716  0.0
H  H11  1  0.85709295  0.28294449  0.04535440  1  0.088336  -0.000101  0.986515  0.0  0.098504  -0.0001  1.04905  0.0  0.101327  -6.1e-05  1.048493  0.0  0.095718  0.096419  -0.000128  1.049712  0.0
H  H12  1  0.01780002  0.82712611  0.12124867  1  0.083981  4e-06  0.972766  0.0  0.093369  4e-06  1.034877  0.0  0.094543  3e-06  1.036375  0.0  0.098304  0.093113  3e-06  1.032934  0.0
H  H13  1  0.98217131  0.17287677  0.87875159  1  0.083829  -4e-06  0.972826  0.0  0.093256  -4e-06  1.034916  0.0  0.094403  -3e-06  1.036442  0.0  0.098258  0.093009  -3e-06  1.032943  0.0
H  H14  1  0.72852085  0.99536483  0.09652950  1  0.111561  -9.7e-05  0.93743  0.0  0.120449  -6e-05  0.996615  0.0  0.123885  -2.7e-05  0.995197  0.0  0.104601  0.117978  -0.000119  0.997873  0.0
H  H15  1  0.27145428  0.00464213  0.90345973  1  0.111501  0.000101  0.937322  0.0  0.120412  6e-05  0.9965  0.0  0.123846  2.7e-05  0.995088  0.0  0.104573  0.117942  0.000118  0.997762  0.0
H  H16  1  0.57670775  0.05943154  0.89155048  1  0.100299  0.000362  0.960239  0.0  0.110494  0.000299  1.022198  0.0  0.113546  0.000193  1.020342  0.0  0.104255  0.108379  0.000358  1.02345  0.0
H  H17  1  0.42327842  0.94058059  0.10843378  1  0.100309  -0.000359  0.960349  0.0  0.11045  -0.000299  1.022359  0.0  0.113502  -0.000193  1.020503  0.0  0.104254  0.108339  -0.000358  1.023601  0.0
H  H18  1  0.00543570  0.93279749  0.40243569  1  0.08547  6.7e-05  0.940782  0.0  0.090561  7.6e-05  1.009831  0.0  0.093868  5.9e-05  1.006793  0.0  0.112937  0.087964  8.3e-05  1.012343  0.0
H  H19  1  0.99457929  0.06719409  0.59757534  1  0.08552  -6.8e-05  0.94076  0.0  0.090605  -7.6e-05  1.009822  0.0  0.093922  -5.9e-05  1.006772  0.0  0.112956  0.088006  -8.4e-05  1.012336  0.0
H  H20  1  0.29513943  0.76762724  0.39399349  1  0.112424  7.4e-05  0.953021  0.0  0.124803  2.8e-05  1.006404  0.0  0.128447  3.8e-05  1.005327  0.0  0.10576  0.122  2e-05  1.007511  0.0
H  H21  1  0.70487524  0.23236544  0.60602448  1  0.112392  -7.2e-05  0.953275  0.0  0.12484  -2.8e-05  1.006556  0.0  0.128467  -3.8e-05  1.005508  0.0  0.105785  0.12205  -2e-05  1.007654  0.0
H  H22  1  0.30393591  0.54008113  0.37001462  1  0.09424  2.9e-05  0.962375  0.0  0.107931  4.9e-05  1.016782  0.0  0.111089  2.4e-05  1.014466  0.0  0.105328  0.105515  7.3e-05  1.018761  0.0
H  H23  1  0.69609007  0.45990741  0.63000441  1  0.094181  -2.8e-05  0.962325  0.0  0.107942  -4.9e-05  1.016675  0.0  0.111028  -2.4e-05  1.014443  0.0  0.105307  0.105524  -7.3e-05  1.018662  0.0
H  H24  1  0.02600501  0.49341738  0.34017508  1  0.091544  3e-06  0.982538  0.0  0.097079  2e-05  1.053403  0.0  0.100356  1.3e-05  1.053363  0.0  0.096946  0.095089  1.9e-05  1.053061  0.0
H  H25  1  0.97402411  0.50656908  0.65984250  1  0.091545  -5e-06  0.98267  0.0  0.097088  -2e-05  1.053521  0.0  0.100368  -1.3e-05  1.053475  0.0  0.096944  0.095095  -2e-05  1.053185  0.0
H  H26  1  0.74830413  0.66952175  0.35178819  1  0.080031  4.5e-05  0.916976  0.0  0.092902  5.5e-05  0.971697  0.0  0.095729  5.1e-05  0.969729  0.0  0.117289  0.090764  5.5e-05  0.97324  0.0
H  H27  1  0.25172216  0.33046561  0.64821389  1  0.080126  -4.3e-05  0.917097  0.0  0.092989  -5.4e-05  0.971835  0.0  0.095815  -5.1e-05  0.969869  0.0  0.117309  0.090852  -5.6e-05  0.97338  0.0
C  C28  1  0.40838262  0.77769785  0.65021944  1  0.643487  -0.000295  3.871753  -0.001  0.605086  -6.5e-05  4.171667  0.0  0.647158  -9.8e-05  4.163894  0.0  0.212616  0.576297  -3.1e-05  4.176836  0.0
C  C29  1  0.59161293  0.22230394  0.34977196  1  0.64332  0.000294  3.871838  0.001  0.604933  6.6e-05  4.171766  0.0  0.647007  9.7e-05  4.163995  0.0  0.212522  0.576146  2.8e-05  4.176928  0.0
C  C30  1  0.37415902  0.64472174  0.74878433  1  -0.070883  0.000196  3.706591  0.0  -0.055421  0.000199  3.934497  0.0  -0.062885  0.000277  3.954771  0.0  -0.008991  -0.049557  0.00019  3.92072  0.0
C  C31  1  0.62583716  0.35528216  0.25120899  1  -0.070667  -0.000225  3.706472  0.0  -0.055244  -0.000201  3.934398  0.0  -0.062709  -0.000276  3.954676  0.0  -0.00892  -0.049381  -0.00019  3.92062  0.0
C  C32  1  0.51840529  0.54260752  0.80641564  1  -0.076182  -0.000503  3.747427  0.0  -0.099116  0.000101  3.997891  0.0  -0.100073  5e-06  4.018802  0.0  -0.084058  -0.098846  6.4e-05  3.984066  0.0
C  C33  1  0.48158995  0.45739537  0.19358089  1  -0.076478  0.000523  3.747562  0.0  -0.099374  -0.000101  3.998037  0.0  -0.10034  -6e-06  4.018963  0.0  -0.084209  -0.099108  -6.4e-05  3.984221  0.0
C  C34  1  0.49977490  0.41464390  0.89578414  1  -0.060666  0.000939  3.761064  0.001  -0.076494  0.000389  4.013803  0.0  -0.078929  0.000345  4.036155  0.0  -0.086719  -0.07472  0.000377  3.99878  0.0
C  C35  1  0.50022632  0.58536002  0.10421223  1  -0.060491  -0.000963  3.760892  -0.001  -0.076307  -0.00039  4.01362  0.0  -0.078745  -0.000345  4.035974  0.0  -0.08668  -0.074538  -0.000376  3.998602  0.0
C  C36  1  0.33599685  0.38638554  0.92807707  1  -0.050511  -0.001005  3.746831  -0.001  -0.064829  -0.000537  3.996284  -0.001  -0.066399  -0.000424  4.01905  0.0  -0.086519  -0.064002  -0.00049  3.981048  0.0
C  C37  1  0.66400373  0.61361635  0.07192467  1  -0.050654  0.00103  3.746842  0.001  -0.065005  0.000538  3.996317  0.001  -0.066575  0.000424  4.019082  0.0  -0.086574  -0.064178  0.00049  3.981077  0.0
C  C38  1  0.19132165  0.48798721  0.87294981  1  -0.109294  -0.000534  3.761102  0.0  -0.131863  -0.00032  4.014184  0.0  -0.135386  -0.000121  4.037269  0.0  -0.090314  -0.129231  -0.000562  3.998639  -0.001
C  C39  1  0.80867672  0.51201367  0.12705529  1  -0.109093  0.00049  3.761085  0.0  -0.131682  0.000318  4.014144  0.0  -0.135202  0.000122  4.037219  0.0  -0.090259  -0.129054  0.000562  3.998614  0.001
C  C40  1  0.20767709  0.61841000  0.78506277  1  0.00275  -0.002369  3.754501  -0.003  0.020507  -0.00137  4.003461  -0.002  0.020818  -0.000923  4.027533  -0.001  -0.011393  0.019675  -0.001701  3.987352  -0.002
C  C41  1  0.79231972  0.38159188  0.21493759  1  0.00265  0.002414  3.754557  0.003  0.020438  0.001372  4.003496  0.002  0.020745  0.000921  4.027572  0.001  -0.011397  0.019605  0.001701  3.987385  0.002
C  C42  1  0.93156717  0.82234402  0.82796119  1  0.053111  0.000266  3.721335  0.0  0.065883  0.00063  3.977488  0.001  0.072407  0.000422  3.996455  0.001  0.003384  0.060913  0.000867  3.964639  0.001
C  C43  1  0.06841956  0.17765780  0.17203398  1  0.053346  -0.000247  3.721208  0.0  0.066032  -0.000632  3.977406  -0.001  0.072551  -0.000424  3.996374  -0.001  0.003462  0.061062  -0.000867  3.96456  -0.001
C  C44  1  0.01773475  0.79129749  0.94111111  1  -0.131116  0.001568  3.756663  0.001  -0.150105  0.000382  4.0068  0.0  -0.155363  0.000261  4.026651  0.0  -0.099065  -0.146038  0.000489  3.993316  0.0
C  C45  1  0.98224729  0.20870745  0.05888533  1  -0.1312  -0.001597  3.756565  -0.001  -0.150199  -0.000386  4.006702  0.0  -0.155457  -0.000256  4.02655  0.0  -0.099131  -0.146133  -0.000489  3.993219  0.0
C  C46  1  0.94601447  0.85306944  0.03569763  1  -0.029429  -0.000799  3.764287  -0.001  -0.044359  -0.000155  4.015431  0.0  -0.042321  -0.000141  4.036323  0.0  -0.081885  -0.045788  -4.3e-05  4.001037  0.0
C  C47  1  0.05396159  0.14693446  0.96429988  1  -0.029235  0.000825  3.763825  0.001  -0.044181  0.000158  4.01497  0.0  -0.042123  0.000137  4.035869  0.0  -0.08181  -0.045603  4.3e-05  4.000579  0.0
C  C48  1  0.78528645  0.94891710  0.02099403  1  -0.09045  0.000339  3.758189  0.0  -0.107555  -0.000338  4.018637  0.0  -0.112117  -0.000168  4.03884  0.0  -0.096907  -0.105093  -0.000362  4.005389  0.0
C  C49  1  0.21469151  0.05108882  0.97899615  1  -0.090276  -0.00037  3.757596  0.0  -0.107438  0.000338  4.01811  0.0  -0.111996  0.00017  4.038301  0.0  -0.096837  -0.104979  0.000362  4.004869  0.0
C  C50  1  0.70078104  0.98374042  0.90809700  1  -0.064252  -0.001316  3.748223  -0.002  -0.087748  -0.000423  3.997629  -0.001  -0.084778  -0.00032  4.016158  -0.001  -0.085921  -0.089293  -0.000637  3.98511  -0.001
C  C51  1  0.29920446  0.01626552  0.09189320  1  -0.064368  0.001327  3.74813  0.002  -0.087836  0.000419  3.997508  0.001  -0.084868  0.000319  4.016033  0.001  -0.085981  -0.089371  0.000637  3.984983  0.001
C  C52  1  0.77050494  0.92243120  0.81101589  1  -0.129615  0.000981  3.746133  0.001  -0.112324  0.000306  3.977691  0.0  -0.124623  0.00025  3.999273  0.0  -0.027361  -0.104229  0.000253  3.963591  0.0
C  C53  1  0.22948496  0.07757266  0.18897362  1  -0.129848  -0.000984  3.746659  -0.001  -0.112433  -0.000303  3.978039  0.0  -0.124725  -0.000249  3.999616  0.0  -0.027376  -0.104339  -0.000253  3.963936  0.0
C  C54  1  0.66962476  0.96401070  0.69451217  1  0.629135  -0.001178  3.878397  -0.002  0.590198  -0.000593  4.171145  -0.001  0.632239  -0.000597  4.164575  -0.001  0.206141  0.561528  -0.000569  4.175325  -0.001
C  C55  1  0.33037207  0.03599521  0.30547396  1  0.629066  0.001166  3.878419  0.002  0.590068  0.000594  4.171159  0.001  0.632105  0.000597  4.164597  0.001  0.206067  0.561402  0.000566  4.175332  0.001
C  C56  1  0.01653374  0.83425693  0.38848849  1  0.126439  0.000577  3.704939  0.001  0.09881  0.0004  3.967132  0.0  0.10699  0.000353  3.984404  0.0  0.042217  0.094316  0.000428  3.953964  0.0
C  C57  1  0.98348282  0.16573362  0.61152363  1  0.12635  -0.000574  3.705022  -0.001  0.098677  -0.000401  3.967196  0.0  0.106848  -0.000352  3.984456  0.0  0.042165  0.094183  -0.000428  3.954037  0.0
C  C58  1  0.17691585  0.74217481  0.38391880  1  -0.130971  -0.000136  3.739594  0.0  -0.139028  -5.9e-05  3.982233  0.0  -0.145924  -7.8e-05  4.001948  0.0  -0.088354  -0.134495  -2.4e-05  3.968261  0.0
C  C59  1  0.82310636  0.25781371  0.61609886  1  -0.131014  0.000134  3.739657  0.0  -0.139137  6.1e-05  3.98232  0.0  -0.146022  7.7e-05  4.002022  0.0  -0.088388  -0.134616  2.5e-05  3.968347  0.0
C  C60  1  0.18170739  0.61659468  0.36892789  1  -0.022442  0.000326  3.746862  0.0  -0.036272  0.000295  3.982637  0.0  -0.03197  0.000247  3.999542  0.0  -0.074535  -0.039167  0.00034  3.971575  0.0
C  C61  1  0.81831294  0.38339592  0.63109016  1  -0.022249  -0.000333  3.7463  0.0  -0.036124  -0.000296  3.982069  0.0  -0.031762  -0.000246  3.998987  0.0  -0.07447  -0.039017  -0.00034  3.971003  0.0
C  C62  1  0.02733592  0.58981932  0.35363835  1  -0.133889  -1.3e-05  3.775791  0.0  -0.140455  -1.5e-05  4.01678  0.0  -0.147887  -7.2e-05  4.038267  0.0  -0.089916  -0.136182  -2.4e-05  4.002993  0.0
C  C63  1  0.97269067  0.41016712  0.64637862  1  -0.133913  2.4e-05  3.775519  0.0  -0.140499  1.8e-05  4.016567  0.0  -0.147929  7e-05  4.038031  0.0  -0.089872  -0.136223  2.4e-05  4.002776  0.0
C  C64  1  0.87277185  0.68707625  0.36025441  1  0.123429  0.000519  3.713126  0.0  0.098132  0.000376  3.966685  0.0  0.10566  0.000341  3.984176  0.0  0.044993  0.093619  0.000423  3.95477  0.0
C  C65  1  0.12725349  0.31291012  0.63975452  1  0.123418  -0.000529  3.713034  0.0  0.098058  -0.000379  3.966589  0.0  0.105584  -0.000338  3.984075  0.0  0.044953  0.093544  -0.000423  3.954682  0.0
S  S66  1  0.01889970  0.73904773  0.71067682  1  0.044272  0.005076  2.552162  0.006  0.022788  -0.000363  2.90418  0.0  0.020505  -0.000306  2.906265  0.0  0.039608  0.026343  -0.000103  2.901279  0.001
S  S67  1  0.98109235  0.26094894  0.28932413  1  0.044277  -0.005082  2.55216  -0.006  0.022769  0.000364  2.90422  0.0  0.020485  0.000306  2.90631  0.0  0.03962  0.026327  0.000103  2.901321  -0.001
N  N68  1  0.86663019  0.80621914  0.37966491  1  -0.31388  0.001306  3.231761  0.001  -0.266246  0.000756  3.51803  0.0  -0.287627  0.000739  3.533207  0.0  -0.340943  -0.252538  0.000696  3.507506  0.0
N  N69  1  0.13338670  0.19377449  0.62034152  1  -0.313982  -0.001303  3.231953  -0.001  -0.266214  -0.000755  3.518115  0.0  -0.28757  -0.00074  3.533298  0.0  -0.34096  -0.252517  -0.000695  3.507604  0.0
O  O70  1  0.53429377  0.76269171  0.56562774  1  -0.569646  -0.075314  2.055834  -0.099  -0.54925  -0.051079  2.33035  -0.074  -0.593803  -0.04007  2.322879  -0.062  -0.311071  -0.519957  -0.053693  2.335949  -0.075
O  O71  1  0.46569769  0.23731110  0.43436105  1  -0.569544  0.07532  2.055838  0.099  -0.549172  0.051082  2.33039  0.074  -0.593681  0.040074  2.322899  0.062  -0.31104  -0.519888  0.053699  2.335986  0.075
O  O72  1  0.31542811  0.89106805  0.66184214  1  -0.560647  0.078507  2.105522  0.104  -0.540538  0.051107  2.382623  0.074  -0.585836  0.039683  2.377923  0.061  -0.302184  -0.510595  0.05456  2.38613  0.076
O  O73  1  0.68457216  0.10893480  0.33815016  1  -0.560606  -0.078511  2.105646  -0.104  -0.5405  -0.051111  2.382755  -0.074  -0.585824  -0.039685  2.378026  -0.061  -0.302125  -0.510557  -0.054563  2.386275  -0.076
O  O74  1  0.51918868  0.04525189  0.69291195  1  -0.566133  0.078434  2.08582  0.103  -0.541303  0.053624  2.361576  0.078  -0.585151  0.041756  2.354393  0.064  -0.313268  -0.512365  0.057383  2.366851  0.08
O  O75  1  0.48081290  0.95475921  0.30707087  1  -0.56603  -0.078428  2.085705  -0.103  -0.541209  -0.053623  2.361473  -0.078  -0.585085  -0.041755  2.354288  -0.064  -0.313249  -0.512259  -0.05738  2.366739  -0.08
O  O76  1  0.74221708  0.91417179  0.60364414  1  -0.578227  -0.065777  2.185712  -0.087  -0.543516  -0.044928  2.471969  -0.065  -0.588378  -0.03542  2.467235  -0.054  -0.301551  -0.513842  -0.048331  2.475419  -0.067
O  O77  1  0.25777721  0.08582999  0.39634468  1  -0.578225  0.065779  2.185491  0.087  -0.543397  0.044925  2.471656  0.065  -0.588234  0.03542  2.466949  0.054  -0.301508  -0.513735  0.048332  2.475109  0.067
