# generated using pymatgen
data_KH24C12(IO2)3
_symmetry_space_group_name_H-M   'P 1'
_cell_length_a   8.38481394
_cell_length_b   8.48907573
_cell_length_c   17.25280992
_cell_angle_alpha   85.77140522
_cell_angle_beta   81.41340632
_cell_angle_gamma   60.40556591
_symmetry_Int_Tables_number   1
_chemical_formula_structural   KH24C12(IO2)3
_chemical_formula_sum   'K2 H48 C24 I6 O12'
_cell_volume   1055.86732021
_cell_formula_units_Z   2
loop_
 _symmetry_equiv_pos_site_id
 _symmetry_equiv_pos_as_xyz
  1  'x, y, z'
loop_
 _atom_site_type_symbol
 _atom_site_label
 _atom_site_symmetry_multiplicity
 _atom_site_fract_x
 _atom_site_fract_y
 _atom_site_fract_z
 _atom_site_occupancy
 _atom_site_hle17_bader_spin_density
 _atom_site_hle17_ddec_charge
 _atom_site_hle17_ddec_spin_density
 _atom_site_hle17_ddec_sum_bond_order
 _atom_site_hle17_magmom
 _atom_site_hse06_10hf_bader_spin_density
 _atom_site_hse06_10hf_ddec_charge
 _atom_site_hse06_10hf_ddec_spin_density
 _atom_site_hse06_10hf_ddec_sum_bond_order
 _atom_site_hse06_10hf_magmom
 _atom_site_hse06_bader_spin_density
 _atom_site_hse06_ddec_charge
 _atom_site_hse06_ddec_spin_density
 _atom_site_hse06_ddec_sum_bond_order
 _atom_site_hse06_magmom
 _atom_site_pbe_bader_spin_density
 _atom_site_pbe_cm5_charge
 _atom_site_pbe_ddec_charge
 _atom_site_pbe_ddec_spin_density
 _atom_site_pbe_ddec_sum_bond_order
 _atom_site_pbe_magmom
K  K0  1  0.01121905  0.17034157  0.31494263  1  0  0.868628  0  0.527655  0  0  0.782389  0  0.742069  0  0  0.80061  0  0.719509  0  0  0.679233  0.769025  0  0.757985  0
K  K1  1  0.18156166  0.82964803  0.81494428  1  0  0.868632  0  0.527653  0  0  0.782392  0  0.742078  0  0  0.800613  0  0.719518  0  0  0.67923  0.769026  0  0.757996  0
H  H2  1  0.51477807  0.21558804  0.49718517  1  0  0.044384  0  0.91784  0  0  0.060005  0  0.981558  0  0  0.060582  0  0.980447  0  0  0.093674  0.059387  0  0.982582  0
H  H3  1  0.73036689  0.78441160  0.99718473  1  0  0.044392  0  0.917891  0  0  0.059986  0  0.981597  0  0  0.060564  0  0.980484  0  0  0.093664  0.059374  0  0.982616  0
H  H4  1  0.65629523  0.31872288  0.50023850  1  0  0.046465  0  0.944194  0  0  0.054566  0  1.022943  0  0  0.055835  0  1.021419  0  0  0.091237  0.053538  0  1.024165  0
H  H5  1  0.97501716  0.68127391  0.00023768  1  0  0.04646  0  0.94428  0  0  0.054558  0  1.02299  0  0  0.055827  0  1.021465  0  0  0.091238  0.053529  0  1.024213  0
H  H6  1  0.79367441  0.00705113  0.55489090  1  0  0.038151  0  0.96019  0  0  0.049455  0  1.035228  0  0  0.050223  0  1.03385  0  0  0.084348  0.048786  0  1.036381  0
H  H7  1  0.80072708  0.99294402  0.05489227  1  0  0.038123  0  0.960186  0  0  0.049407  0  1.035252  0  0  0.050175  0  1.03388  0  0  0.084333  0.048739  0  1.036404  0
H  H8  1  0.80428402  0.91809637  0.46180893  1  0  0.043503  0  0.965002  0  0  0.051918  0  1.04099  0  0  0.052597  0  1.040447  0  0  0.082519  0.051362  0  1.041446  0
H  H9  1  0.72237958  0.08190241  0.96181120  1  0  0.043485  0  0.965056  0  0  0.051904  0  1.041072  0  0  0.052585  0  1.040531  0  0  0.082512  0.051343  0  1.041531  0
H  H10  1  0.15256150  0.75276850  0.46104963  1  0  0.043037  0  0.960191  0  0  0.051634  0  1.037502  0  0  0.052195  0  1.036984  0  0  0.084072  0.051108  0  1.037995  0
H  H11  1  0.90532385  0.24723376  0.96104960  1  0  0.042986  0  0.960219  0  0  0.051619  0  1.037513  0  0  0.052183  0  1.036993  0  0  0.084054  0.051088  0  1.038012  0
H  H12  1  0.11986130  0.86214548  0.55192267  1  0  0.053734  0  0.95711  0  0  0.06664  0  1.027941  0  0  0.067268  0  1.027336  0  0  0.091412  0.066055  0  1.028527  0
H  H13  1  0.98200571  0.13785720  0.05192224  1  0  0.053738  0  0.957163  0  0  0.066625  0  1.028019  0  0  0.067253  0  1.027414  0  0  0.09141  0.066056  0  1.028587  0
H  H14  1  0.27858170  0.02730095  0.48720509  1  0  0.045358  0  0.93194  0  0  0.055352  0  1.006209  0  0  0.056885  0  1.00412  0  0  0.091422  0.054145  0  1.007863  0
H  H15  1  0.30587762  0.97270603  0.98720538  1  0  0.045431  0  0.931905  0  0  0.055411  0  1.00616  0  0  0.056946  0  1.00407  0  0  0.091438  0.054199  0  1.007811  0
H  H16  1  0.42347764  0.78602712  0.48230309  1  0  0.042229  0  0.945972  0  0  0.05773  0  1.014666  0  0  0.057857  0  1.014223  0  0  0.09413  0.057477  0  1.015233  0
H  H17  1  0.20949826  0.21397859  0.98230087  1  0  0.042303  0  0.94601  0  0  0.057804  0  1.014671  0  0  0.057924  0  1.014238  0  0  0.094124  0.057543  0  1.015241  0
H  H18  1  0.61329999  0.80089427  0.36883978  1  0  0.042172  0  0.971791  0  0  0.049077  0  1.052184  0  0  0.049518  0  1.051492  0  0  0.083677  0.048671  0  1.052757  0
H  H19  1  0.41419495  0.19910428  0.86883963  1  0  0.042138  0  0.971778  0  0  0.04907  0  1.052157  0  0  0.049515  0  1.051461  0  0  0.083678  0.048665  0  1.052731  0
H  H20  1  0.48259100  0.04240248  0.37637661  1  0  0.061263  0  0.923246  0  0  0.075826  0  0.985698  0  0  0.076769  0  0.984817  0  0  0.101646  0.075056  0  0.986436  0
H  H21  1  0.52498958  0.95759737  0.87637766  1  0  0.061283  0  0.923231  0  0  0.07584  0  0.985699  0  0  0.076783  0  0.984819  0  0  0.101645  0.075069  0  0.986437  0
H  H22  1  0.64816018  0.92516420  0.24141743  1  0  0.043678  0  0.95498  0  0  0.051191  0  1.033385  0  0  0.051689  0  1.032604  0  0  0.087102  0.050767  0  1.034001  0
H  H23  1  0.57332381  0.07483648  0.74141729  1  0  0.043683  0  0.954955  0  0  0.051185  0  1.033359  0  0  0.051682  0  1.032577  0  0  0.08711  0.05076  0  1.033975  0
H  H24  1  0.50701569  0.82287742  0.23698412  1  0  0.056725  0  0.926677  0  0  0.07061  0  0.992416  0  0  0.071321  0  0.991678  0  0  0.099118  0.069977  0  0.993108  0
H  H25  1  0.32989240  0.17712145  0.73698463  1  0  0.056706  0  0.926645  0  0  0.070578  0  0.992398  0  0  0.071288  0  0.991658  0  0  0.099085  0.069944  0  0.993089  0
H  H26  1  0.37695459  0.01663884  0.12918759  1  0  0.046937  0  0.927962  0  0  0.058857  0  0.998269  0  0  0.060085  0  0.996687  0  0  0.093996  0.057836  0  0.999588  0
H  H27  1  0.39359350  0.98336039  0.62918780  1  0  0.046952  0  0.927972  0  0  0.058876  0  0.998275  0  0  0.060106  0  0.996689  0  0  0.094009  0.057855  0  0.999593  0
H  H28  1  0.50648730  0.13163151  0.13393636  1  0  0.04699  0  0.926884  0  0  0.063015  0  0.992048  0  0  0.063351  0  0.991411  0  0  0.095511  0.062644  0  0.992657  0
H  H29  1  0.63811848  0.86836817  0.63393774  1  0  0.046964  0  0.92698  0  0  0.062972  0  0.992156  0  0  0.0633  0  0.991529  0  0  0.09549  0.062604  0  0.992753  0
H  H30  1  0.20779151  0.41848172  0.17182746  1  0  0.048441  0  0.971103  0  0  0.055869  0  1.048398  0  0  0.056712  0  1.047723  0  0  0.083709  0.055206  0  1.048923  0
H  H31  1  0.62627154  0.58151742  0.67182838  1  0  0.048462  0  0.971139  0  0  0.055893  0  1.04841  0  0  0.056736  0  1.047736  0  0  0.083719  0.05523  0  1.048933  0
H  H32  1  0.23414965  0.33855767  0.07573783  1  0  0.038121  0  0.968547  0  0  0.049236  0  1.044062  0  0  0.049925  0  1.042819  0  0  0.083162  0.048576  0  1.045165  0
H  H33  1  0.57270865  0.66144049  0.57573857  1  0  0.038141  0  0.968506  0  0  0.04925  0  1.04401  0  0  0.04994  0  1.042767  0  0  0.083166  0.048589  0  1.045113  0
H  H34  1  0.89750616  0.48026198  0.07542444  1  0  0.045852  0  0.932864  0  0  0.063102  0  0.996736  0  0  0.062766  0  0.997328  0  0  0.095709  0.063195  0  0.996488  0
H  H35  1  0.37776664  0.51973947  0.57542433  1  0  0.045841  0  0.93288  0  0  0.06309  0  0.996759  0  0  0.062754  0  0.997351  0  0  0.09571  0.063183  0  0.99651  0
H  H36  1  0.87849888  0.57828643  0.16705274  1  0  0.049125  0  0.949942  0  0  0.05815  0  1.024013  0  0  0.058853  0  1.02344  0  0  0.089588  0.057568  0  1.0245  0
H  H37  1  0.45678330  0.42171335  0.66705332  1  0  0.049113  0  0.949975  0  0  0.058164  0  1.024019  0  0  0.058867  0  1.023444  0  0  0.089594  0.057581  0  1.024502  0
H  H38  1  0.59615852  0.56112320  0.14762987  1  0  0.045761  0  0.938  0  0  0.055539  0  1.01255  0  0  0.056287  0  1.011433  0  0  0.089808  0.054833  0  1.013542  0
H  H39  1  0.15727870  0.43887864  0.64762987  1  0  0.04575  0  0.937984  0  0  0.055527  0  1.012544  0  0  0.056282  0  1.011421  0  0  0.089804  0.054823  0  1.013535  0
H  H40  1  0.73073492  0.32017598  0.14248525  1  0  0.045712  0  0.933303  0  0  0.055816  0  1.007524  0  0  0.057069  0  1.005847  0  0  0.093426  0.054786  0  1.008873  0
H  H41  1  0.05090887  0.67982457  0.64248521  1  0  0.045696  0  0.933291  0  0  0.055809  0  1.007512  0  0  0.057062  0  1.005836  0  0  0.093428  0.054779  0  1.00886  0
H  H42  1  0.52740745  0.31459540  0.25605226  1  0  0.06222  0  0.918716  0  0  0.077325  0  0.980083  0  0  0.078197  0  0.979309  0  0  0.101559  0.076554  0  0.980851  0
H  H43  1  0.84200222  0.68540676  0.75605183  1  0  0.062223  0  0.918748  0  0  0.07733  0  0.98011  0  0  0.078206  0  0.979338  0  0  0.101556  0.076559  0  0.980878  0
H  H44  1  0.40956338  0.55565237  0.26553737  1  0  0.044374  0  0.979528  0  0  0.0517  0  1.058518  0  0  0.052223  0  1.058055  0  0  0.082659  0.051278  0  1.058899  0
H  H45  1  0.96521358  0.44434975  0.76553706  1  0  0.04436  0  0.979526  0  0  0.051693  0  1.058518  0  0  0.052217  0  1.058054  0  0  0.082652  0.051273  0  1.058899  0
H  H46  1  0.53568956  0.51680166  0.39451517  1  0  0.054671  0  0.924989  0  0  0.068493  0  0.992453  0  0  0.069227  0  0.991484  0  0  0.098597  0.067819  0  0.993352  0
H  H47  1  0.05248956  0.48319759  0.89451458  1  0  0.054647  0  0.925043  0  0  0.068479  0  0.992503  0  0  0.069215  0  0.991535  0  0  0.098603  0.067812  0  0.993394  0
H  H48  1  0.37769683  0.43281574  0.39304717  1  0  0.042127  0  0.966741  0  0  0.050444  0  1.045464  0  0  0.05077  0  1.044839  0  0  0.084701  0.050145  0  1.045963  0
H  H49  1  0.81051096  0.56718562  0.89304568  1  0  0.042132  0  0.96668  0  0  0.050459  0  1.045406  0  0  0.050786  0  1.04478  0  0  0.084697  0.050159  0  1.045908  0
C  C50  1  0.64738697  0.21013823  0.47274492  1  0  0.060745  0  3.686485  0  0  0.002608  0  3.956377  0  0  0.008839  0  3.962346  0  0  -0.078414  -0.001502  0  3.95225  0
C  C51  1  0.85752712  0.78985913  0.97274448  1  0  0.060645  0  3.68668  0  0  0.002614  0  3.95643  0  0  0.008847  0  3.962401  0  0  -0.078397  -0.001504  0  3.952304  0
C  C52  1  0.80632142  0.02871187  0.49077778  1  0  0.056503  0  3.689331  0  0  -0.001169  0  3.955963  0  0  0.004735  0  3.962446  0  0  -0.084201  -0.005052  0  3.951319  0
C  C53  1  0.83503355  0.97128694  0.99077741  1  0  0.056645  0  3.689292  0  0  -0.001108  0  3.955897  0  0  0.004784  0  3.962396  0  0  -0.084178  -0.004987  0  3.951253  0
C  C54  1  0.13413866  0.87629702  0.48745907  1  0  0.055273  0  3.669309  0  0  -0.001812  0  3.934799  0  0  0.00402  0  3.941396  0  0  -0.083868  -0.005621  0  3.930239  0
C  C55  1  0.01043005  0.12370671  0.98745802  1  0  0.055381  0  3.669312  0  0  -0.001773  0  3.93478  0  0  0.00406  0  3.941375  0  0  -0.083833  -0.00559  0  3.930201  0
C  C56  1  0.29970916  0.90164947  0.46147021  1  0  0.065942  0  3.675373  0  0  0.006958  0  3.945478  0  0  0.013089  0  3.951726  0  0  -0.07849  0.002819  0  3.941207  0
C  C57  1  0.20135185  0.09835888  0.96146908  1  0  0.065733  0  3.675632  0  0  0.006796  0  3.945653  0  0  0.012928  0  3.951913  0  0  -0.078499  0.00268  0  3.941354  0
C  C58  1  0.49079375  0.92256813  0.35078179  1  0  0.054874  0  3.672195  0  0  -0.002362  0  3.941738  0  0  0.003783  0  3.947352  0  0  -0.080828  -0.006462  0  3.937856  0
C  C59  1  0.41335934  0.07743169  0.85078182  1  0  0.054846  0  3.672253  0  0  -0.00245  0  3.941855  0  0  0.003697  0  3.947465  0  0  -0.080871  -0.006551  0  3.937974  0
C  C60  1  0.51213633  0.93553300  0.26270213  1  0  0.059322  0  3.669793  0  0  0.002289  0  3.939756  0  0  0.008627  0  3.945181  0  0  -0.077663  -0.001931  0  3.935951  0
C  C61  1  0.44766775  0.06446727  0.76270266  1  0  0.059335  0  3.669775  0  0  0.002371  0  3.939673  0  0  0.008704  0  3.945114  0  0  -0.077647  -0.001855  0  3.935887  0
C  C62  1  0.37704827  0.12977804  0.15724254  1  0  0.066659  0  3.675153  0  0  0.008384  0  3.944429  0  0  0.014368  0  3.95095  0  0  -0.07571  0.004358  0  3.939946  0
C  C63  1  0.50682620  0.87022121  0.65724276  1  0  0.066721  0  3.675293  0  0  0.008438  0  3.94456  0  0  0.014429  0  3.951069  0  0  -0.075683  0.004415  0  3.94007  0
C  C64  1  0.21485234  0.30832834  0.13875881  1  0  0.04901  0  3.683499  0  0  -0.007545  0  3.950869  0  0  -0.001837  0  3.957522  0  0  -0.085481  -0.011277  0  3.946191  0
C  C65  1  0.52318036  0.69167082  0.63875963  1  0  0.048948  0  3.683504  0  0  -0.007597  0  3.95085  0  0  -0.00189  0  3.957501  0  0  -0.085482  -0.011318  0  3.946165  0
C  C66  1  0.88843806  0.45963354  0.13964979  1  0  0.057778  0  3.676497  0  0  0.00186  0  3.941462  0  0  0.007822  0  3.948316  0  0  -0.077633  -0.002101  0  3.936716  0
C  C67  1  0.34806909  0.54036758  0.63964977  1  0  0.057758  0  3.676584  0  0  0.001816  0  3.941576  0  0  0.007781  0  3.948427  0  0  -0.077669  -0.002138  0  3.93683  0
C  C68  1  0.71868275  0.44226173  0.16773128  1  0  0.057856  0  3.690593  0  0  -0.001574  0  3.964074  0  0  0.004737  0  3.969738  0  0  -0.078987  -0.00571  0  3.960089  0
C  C69  1  0.16094347  0.55773884  0.66773117  1  0  0.057931  0  3.690587  0  0  -0.001514  0  3.964103  0  0  0.004788  0  3.96977  0  0  -0.078961  -0.005653  0  3.960119  0
C  C70  1  0.52996925  0.42905140  0.28147752  1  0  0.054778  0  3.669687  0  0  -0.000864  0  3.937494  0  0  0.005167  0  3.943031  0  0  -0.082207  -0.004914  0  3.933692  0
C  C71  1  0.95901930  0.57094945  0.78147662  1  0  0.054785  0  3.669655  0  0  -0.000865  0  3.937483  0  0  0.005161  0  3.943029  0  0  -0.082173  -0.004919  0  3.933685  0
C  C72  1  0.51670230  0.41197769  0.36934283  1  0  0.058706  0  3.67317  0  0  -0.00066  0  3.945481  0  0  0.005876  0  3.951012  0  0  -0.079988  -0.005015  0  3.941652  0
C  C73  1  0.92867887  0.58802274  0.86934250  1  0  0.058718  0  3.67312  0  0  -0.000682  0  3.945455  0  0  0.005849  0  3.950995  0  0  -0.080005  -0.005044  0  3.941629  0
I  I74  1  0.96355649  0.48090743  0.47001376  1  0  -0.312497  0  0.980489  0  0  -0.293  0  1.286406  0  0  -0.302294  0  1.268541  0  0  -0.129972  -0.286552  0  1.298999  0
I  I75  1  0.44446076  0.51909252  0.97001441  1  0  -0.312493  0  0.980511  0  0  -0.292999  0  1.286465  0  0  -0.302292  0  1.268602  0  0  -0.129965  -0.286538  0  1.299033  0
I  I76  1  0.01620282  0.65510702  0.32242144  1  0  -0.050115  0  1.562047  0  0  -0.018517  0  1.953395  0  0  -0.009927  0  1.933296  0  0  0.058267  -0.024382  0  1.968033  0
I  I77  1  0.67131356  0.34487098  0.82242853  1  0  -0.0501  0  1.562053  0  0  -0.018504  0  1.953426  0  0  -0.009917  0  1.933334  0  0  0.058264  -0.02437  0  1.968058  0
I  I78  1  0.08273555  0.82780277  0.17600576  1  0  -0.300259  0  1.013977  0  0  -0.280576  0  1.33003  0  0  -0.291118  0  1.311528  0  0  -0.117107  -0.273183  0  1.343055  0
I  I79  1  0.91053489  0.17219384  0.67600806  1  0  -0.300279  0  1.013938  0  0  -0.280604  0  1.330001  0  0  -0.291143  0  1.311494  0  0  -0.117119  -0.273208  0  1.343022  0
O  O80  1  0.65596959  0.23552582  0.38979250  1  0  -0.335306  0  2.271582  0  0  -0.262013  0  2.521624  0  0  -0.278007  0  2.523243  0  0  -0.277683  -0.250687  0  2.520058  0
O  O81  1  0.89149454  0.76447464  0.88979273  1  0  -0.335232  0  2.271612  0  0  -0.261966  0  2.521634  0  0  -0.277957  0  2.523255  0  0  -0.27767  -0.250634  0  2.52007  0
O  O82  1  0.97419899  0.03198648  0.46427227  1  0  -0.342377  0  2.32419  0  0  -0.268039  0  2.578202  0  0  -0.284594  0  2.581379  0  0  -0.290387  -0.256276  0  2.575579  0
O  O83  1  0.00618443  0.96801296  0.96427336  1  0  -0.342494  0  2.324195  0  0  -0.268076  0  2.578217  0  0  -0.284627  0  2.581398  0  0  -0.290437  -0.256319  0  2.575598  0
O  O84  1  0.32702361  0.91099723  0.37796609  1  0  -0.336979  0  2.275836  0  0  -0.263852  0  2.526761  0  0  -0.279891  0  2.528889  0  0  -0.287832  -0.252425  0  2.524865  0
O  O85  1  0.23801654  0.08900613  0.87796496  1  0  -0.336914  0  2.275919  0  0  -0.263782  0  2.526832  0  0  -0.279827  0  2.528962  0  0  -0.287785  -0.252362  0  2.52493  0
O  O86  1  0.36566690  0.10542138  0.24024958  1  0  -0.338943  0  2.283091  0  0  -0.267604  0  2.536935  0  0  -0.283419  0  2.538537  0  0  -0.278136  -0.256363  0  2.535402  0
O  O87  1  0.47108773  0.89457882  0.74025037  1  0  -0.338973  0  2.283092  0  0  -0.267644  0  2.53692  0  0  -0.28346  0  2.538518  0  0  -0.278141  -0.256404  0  2.535385  0
O  O88  1  0.04841509  0.29797262  0.15908695  1  0  -0.340102  0  2.296527  0  0  -0.268297  0  2.550939  0  0  -0.284676  0  2.553961  0  0  -0.279277  -0.256673  0  2.548437  0
O  O89  1  0.34638578  0.70202737  0.65908727  1  0  -0.340095  0  2.296454  0  0  -0.26828  0  2.550857  0  0  -0.284661  0  2.553879  0  0  -0.279269  -0.256667  0  2.548352  0
O  O90  1  0.69745067  0.43152539  0.25130354  1  0  -0.340529  0  2.276753  0  0  -0.268142  0  2.527866  0  0  -0.284096  0  2.529559  0  0  -0.290421  -0.25684  0  2.526267  0
O  O91  1  0.12897460  0.56847612  0.75130285  1  0  -0.340509  0  2.27678  0  0  -0.268127  0  2.527912  0  0  -0.284079  0  2.529612  0  0  -0.290424  -0.25682  0  2.526313  0
