# generated using pymatgen
data_FeH28C26S(NO)4
_symmetry_space_group_name_H-M   'P 1'
_cell_length_a   10.50311137
_cell_length_b   11.55519770
_cell_length_c   12.08660000
_cell_angle_alpha   108.56361280
_cell_angle_beta   116.20284450
_cell_angle_gamma   89.84083277
_symmetry_Int_Tables_number   1
_chemical_formula_structural   FeH28C26S(NO)4
_chemical_formula_sum   'Fe2 H56 C52 S2 N8 O8'
_cell_volume   1231.19309835
_cell_formula_units_Z   2
loop_
 _symmetry_equiv_pos_site_id
 _symmetry_equiv_pos_as_xyz
  1  'x, y, z'
loop_
 _atom_site_type_symbol
 _atom_site_label
 _atom_site_symmetry_multiplicity
 _atom_site_fract_x
 _atom_site_fract_y
 _atom_site_fract_z
 _atom_site_occupancy
 _atom_site_hle17_ddec_charge
 _atom_site_hle17_ddec_spin_density
 _atom_site_hle17_ddec_sum_bond_order
 _atom_site_hle17_magmom
 _atom_site_hse06_10hf_ddec_charge
 _atom_site_hse06_10hf_ddec_spin_density
 _atom_site_hse06_10hf_ddec_sum_bond_order
 _atom_site_hse06_10hf_magmom
 _atom_site_hse06_ddec_charge
 _atom_site_hse06_ddec_spin_density
 _atom_site_hse06_ddec_sum_bond_order
 _atom_site_hse06_magmom
 _atom_site_pbe_bader_charge
 _atom_site_pbe_bader_spin_density
 _atom_site_pbe_cm5_charge
 _atom_site_pbe_ddec_charge
 _atom_site_pbe_ddec_spin_density
 _atom_site_pbe_ddec_sum_bond_order
 _atom_site_pbe_magmom
Fe  Fe0  1  0.49999948  0.49999957  0.99999946  1  0.958866  3.984358  2.256037  3.664  0.830428  3.927413  2.742561  3.667  0.880417  3.931042  2.680187  3.708  1.417735  3.64496  0.716192  0.790949  3.918751  2.784636  3.624
Fe  Fe1  1  0.49999954  0.99999821  0.99999998  1  0.958522  3.985665  2.265736  3.665  0.831194  3.928894  2.75132  3.668  0.880316  3.932202  2.689592  3.708  1.422525  3.651587  0.723583  0.797052  3.928373  2.791422  3.63
H  H2  1  0.96959878  0.87232746  0.65212616  1  0.081708  -0.000976  0.949887  -0.001  0.099127  -0.000876  1.009574  -0.001  0.100041  -0.000564  1.01069  0.0  0.04366  -0.001464  0.093163  0.098373  -0.001203  1.008943  -0.001
H  H3  1  0.68110414  0.37292738  0.65079641  1  0.081277  -0.000946  0.950353  -0.001  0.098307  -0.000852  1.010534  -0.001  0.099278  -0.000551  1.011591  0.0  0.040119  -0.001092  0.092934  0.097719  -0.000892  1.009889  -0.001
H  H4  1  0.03040141  0.12767259  0.34787269  1  0.081714  -0.000976  0.949888  -0.001  0.099126  -0.000876  1.009576  -0.001  0.10004  -0.000564  1.010694  0.0  0.043671  -0.001464  0.093171  0.098378  -0.001203  1.008942  -0.001
H  H5  1  0.31889393  0.62707267  0.34920328  1  0.08129  -0.000947  0.950327  -0.001  0.098324  -0.000851  1.010491  -0.001  0.099295  -0.000551  1.011548  0.0  0.040118  -0.001092  0.092935  0.097736  -0.000892  1.009846  -0.001
H  H6  1  0.03649457  0.73343674  0.65855739  1  0.090614  5e-06  0.943839  0.0  0.107416  2.1e-05  1.004194  0.0  0.108968  2.2e-05  1.003666  0.0  0.053007  -2e-06  0.095841  0.106038  2.3e-05  1.004933  0.0
H  H7  1  0.62030926  0.23380353  0.65628199  1  0.089175  4e-06  0.941329  0.0  0.106139  1.7e-05  1.002066  0.0  0.107681  2.1e-05  1.001541  0.0  0.047884  -9e-06  0.095747  0.104716  2.1e-05  1.003055  0.0
H  H8  1  0.96350579  0.26656424  0.34144264  1  0.090627  5e-06  0.943816  0.0  0.107434  2.2e-05  1.004158  0.0  0.108987  2.3e-05  1.00363  0.0  0.053003  -2e-06  0.095853  0.106068  2.3e-05  1.004884  0.0
H  H9  1  0.37968881  0.76619653  0.34371770  1  0.089196  4e-06  0.941324  0.0  0.106155  1.7e-05  1.00206  0.0  0.107697  2.1e-05  1.001536  0.0  0.047882  -9e-06  0.095753  0.104732  2.1e-05  1.003049  0.0
H  H10  1  0.95372125  0.56317578  0.92448603  1  0.105191  0.00016  0.954523  0.0  0.116014  0.00035  1.016573  0.0  0.119031  0.000257  1.015741  0.0  0.082989  0.000808  0.10711  0.113847  0.000364  1.017368  0.0
H  H11  1  0.97161637  0.06348151  0.92360034  1  0.105818  0.000157  0.952335  0.0  0.116873  0.000362  1.013534  0.0  0.119932  0.000266  1.012674  0.0  0.08843  0.000842  0.107242  0.114672  0.000386  1.014302  0.0
H  H12  1  0.04627911  0.43682520  0.07551482  1  0.105196  0.000159  0.954542  0.0  0.116022  0.000349  1.016589  0.0  0.119039  0.000257  1.015757  0.0  0.082952  0.000808  0.10712  0.113855  0.000364  1.017383  0.0
H  H13  1  0.02838630  0.93652040  0.07640251  1  0.105848  0.000156  0.952288  0.0  0.116887  0.000362  1.013502  0.0  0.119947  0.000266  1.012642  0.0  0.088445  0.000842  0.107278  0.114686  0.000386  1.01427  0.0
H  H14  1  0.80203444  0.47591473  0.21015558  1  0.086772  0.000158  0.995057  0.001  0.089574  5.7e-05  1.067131  0.001  0.093733  -3e-06  1.06253  0.001  0.156092  0.001275  0.111973  0.086218  0.000114  1.070758  0.001
H  H15  1  0.40777531  0.97497806  0.20895575  1  0.085938  0.000154  0.99628  0.001  0.088901  6.1e-05  1.068201  0.001  0.093023  0.0  1.063634  0.001  0.14047  0.001295  0.111317  0.085522  0.000125  1.071961  0.001
H  H16  1  0.19796468  0.52408533  0.78984369  1  0.086786  0.000159  0.995043  0.001  0.089582  5.7e-05  1.067123  0.001  0.093741  -3e-06  1.062521  0.001  0.156086  0.001275  0.111978  0.086227  0.000114  1.070749  0.001
H  H17  1  0.59222365  0.02502107  0.79104482  1  0.08595  0.000155  0.996255  0.001  0.088913  6.1e-05  1.068179  0.001  0.09303  0.0  1.063617  0.001  0.140499  0.001295  0.111314  0.085533  0.000125  1.07194  0.001
H  H18  1  0.97066694  0.57427827  0.44835384  1  0.093024  9.4e-05  0.969156  0.0  0.103854  0.000397  1.033011  0.0  0.106983  0.000288  1.032085  0.0  0.078015  0.00092  0.099284  0.101683  0.000448  1.033841  0.0
H  H19  1  0.47691923  0.07420839  0.44629217  1  0.09311  0.000102  0.969315  0.0  0.103979  0.000396  1.033059  0.0  0.107083  0.000287  1.032162  0.0  0.038206  0.001101  0.099395  0.101777  0.000504  1.033921  0.0
H  H20  1  0.02933237  0.42572271  0.55164577  1  0.093058  9.4e-05  0.969127  0.0  0.103849  0.000397  1.033022  0.0  0.106978  0.000288  1.032096  0.0  0.077996  0.00092  0.09929  0.10168  0.000448  1.033847  0.0
H  H21  1  0.52307902  0.92579259  0.55370869  1  0.09309  0.000101  0.969375  0.0  0.103984  0.000396  1.033082  0.0  0.107087  0.000287  1.032185  0.0  0.038281  0.001101  0.0994  0.101783  0.000504  1.033943  0.0
H  H22  1  0.82274177  0.52056243  0.04090021  1  0.072502  0.00011  0.946261  0.001  0.079615  0.000108  1.015869  0.001  0.08218  3.6e-05  1.012616  0.0  0.057638  0.001103  0.114575  0.077512  0.00012  1.018579  0.001
H  H23  1  0.22068315  0.02065168  0.04100184  1  0.072718  0.00012  0.948129  0.001  0.079662  9.7e-05  1.017978  0.001  0.082358  3.4e-05  1.014509  0.001  0.088163  0.001129  0.114777  0.077447  0.000103  1.020915  0.001
H  H24  1  0.17725753  0.47943855  0.95909940  1  0.072499  0.00011  0.946242  0.001  0.079613  0.000108  1.015853  0.001  0.082177  3.6e-05  1.012599  0.0  0.057617  0.001103  0.114576  0.077508  0.00012  1.018564  0.001
H  H25  1  0.77931810  0.97934838  0.95899907  1  0.072724  0.00012  0.948139  0.001  0.07967  9.7e-05  1.017988  0.001  0.082366  3.4e-05  1.014519  0.001  0.088176  0.00113  0.11478  0.077456  0.000103  1.020924  0.001
H  H26  1  0.45531764  0.62671557  0.80398396  1  0.075245  -0.000146  0.959741  0.001  0.081371  -0.00013  1.029043  0.001  0.083427  -0.000162  1.027208  0.0  0.077962  0.000971  0.113406  0.079618  -0.000121  1.03076  0.001
H  H27  1  0.34927946  0.12662720  0.80524781  1  0.075899  -0.000127  0.959743  0.001  0.082039  -0.000122  1.028652  0.001  0.084117  -0.000154  1.026771  0.001  0.082535  0.001034  0.113898  0.080297  -8.9e-05  1.030409  0.001
H  H28  1  0.54468114  0.37328263  0.19601461  1  0.075237  -0.000145  0.959705  0.001  0.081344  -0.00013  1.02904  0.001  0.083402  -0.000162  1.027203  0.0  0.077963  0.000971  0.113396  0.079592  -0.000121  1.030756  0.001
H  H29  1  0.65072055  0.87337194  0.19475152  1  0.075882  -0.000127  0.959729  0.001  0.08201  -0.000121  1.028644  0.001  0.084087  -0.000154  1.026765  0.001  0.082554  0.001034  0.113901  0.080269  -8.9e-05  1.030402  0.001
H  H30  1  0.56557578  0.66437947  0.67146055  1  0.096723  4.5e-05  0.969994  0.0  0.107648  0.000178  1.030585  0.0  0.10966  0.000138  1.032054  0.0  0.066973  0.000641  0.098982  0.10627  0.000202  1.029784  0.0
H  H31  1  0.10453878  0.16424669  0.67165505  1  0.097635  4.6e-05  0.967288  0.0  0.108313  0.000192  1.028107  0.0  0.110384  0.00015  1.0295  0.0  0.070823  0.000699  0.099308  0.106919  0.000238  1.027313  0.0
H  H32  1  0.43442458  0.33562151  0.32854113  1  0.096748  4.4e-05  0.969975  0.0  0.107676  0.000178  1.030562  0.0  0.109688  0.000138  1.032029  0.0  0.066972  0.000641  0.098986  0.106298  0.000202  1.029761  0.0
H  H33  1  0.89546124  0.83575244  0.32834511  1  0.097642  4.6e-05  0.967305  0.0  0.108318  0.000192  1.028127  0.0  0.110388  0.000149  1.02952  0.0  0.07095  0.000699  0.099318  0.106923  0.000238  1.027334  0.0
H  H34  1  0.76513510  0.57251127  0.59802161  1  0.068985  -0.000381  0.934163  0.0  0.086918  -0.000268  0.994518  0.0  0.087756  -0.000178  0.994915  0.0  0.024575  -0.000439  0.088505  0.086517  -0.000363  0.993997  0.0
H  H35  1  0.83066990  0.07303995  0.59726884  1  0.069545  -0.000418  0.934954  0.0  0.087483  -0.000298  0.995197  0.0  0.088269  -0.000196  0.995612  0.0  0.054755  -0.000618  0.089097  0.087037  -0.000489  0.994773  0.0
H  H36  1  0.23486403  0.42748879  0.40197849  1  0.068973  -0.000382  0.934161  0.0  0.086909  -0.000268  0.994523  0.0  0.087746  -0.000178  0.994919  0.0  0.024574  -0.000439  0.088509  0.086507  -0.000363  0.994002  0.0
H  H37  1  0.16933047  0.92696103  0.40273119  1  0.069538  -0.000419  0.934962  0.0  0.087473  -0.000298  0.995204  0.0  0.088259  -0.000197  0.995617  0.0  0.054738  -0.000618  0.089097  0.087025  -0.000489  0.994784  0.0
H  H38  1  0.93942196  0.59160873  0.73151453  1  0.091491  3e-05  0.938938  0.0  0.109755  6.4e-05  0.997363  0.0  0.111292  4.5e-05  0.996939  0.0  0.064196  9.7e-05  0.095894  0.108465  9.1e-05  0.9977  0.0
H  H39  1  0.79088251  0.09173313  0.73023974  1  0.091141  2.7e-05  0.937314  0.0  0.109812  6.3e-05  0.995257  0.0  0.111254  4.4e-05  0.9949  0.0  0.046367  3.8e-05  0.096273  0.108537  6.5e-05  0.995686  0.0
H  H40  1  0.06057840  0.40839225  0.26848633  1  0.091474  3e-05  0.938911  0.0  0.109754  6.4e-05  0.997334  0.0  0.111289  4.5e-05  0.996911  0.0  0.064194  9.7e-05  0.095903  0.108464  9.1e-05  0.997671  0.0
H  H41  1  0.20911874  0.90826692  0.26976199  1  0.091151  2.7e-05  0.937289  0.0  0.109821  6.3e-05  0.995228  0.0  0.111263  4.4e-05  0.994872  0.0  0.046423  3.8e-05  0.096265  0.108545  6.5e-05  0.995658  0.0
H  H42  1  0.51985940  0.72307436  0.23434697  1  0.087244  0.000132  0.97097  0.001  0.091267  3e-05  1.041245  0.001  0.095111  -2.2e-05  1.0371  0.001  0.153587  0.00124  0.115087  0.088099  9.6e-05  1.044757  0.001
H  H43  1  0.71430693  0.22306462  0.23597550  1  0.086935  0.000127  0.967848  0.001  0.091223  3.8e-05  1.037673  0.001  0.094985  -1.8e-05  1.033693  0.001  0.118543  0.001248  0.115432  0.08795  0.000115  1.041362  0.001
H  H44  1  0.48013990  0.27692662  0.76565182  1  0.087221  0.000132  0.971003  0.001  0.091224  3e-05  1.041298  0.001  0.095065  -2.2e-05  1.037157  0.001  0.1536  0.00124  0.11508  0.088057  9.6e-05  1.044811  0.001
H  H45  1  0.28569557  0.77693081  0.76402531  1  0.086925  0.000127  0.967818  0.001  0.091194  3.8e-05  1.037676  0.001  0.094957  -1.8e-05  1.033694  0.001  0.118912  0.001248  0.115424  0.087921  0.000115  1.041367  0.001
H  H46  1  0.94421005  0.81592690  0.81854568  1  0.076351  3.6e-05  0.945798  0.0  0.092441  -1e-06  1.010361  0.0  0.093571  8e-06  1.01101  0.0  0.050702  -2e-06  0.091974  0.091374  -2.9e-05  1.010123  0.0
H  H47  1  0.87438538  0.31591623  0.81858185  1  0.07577  3.6e-05  0.945756  0.0  0.091861  -1e-06  1.010486  0.0  0.092974  7e-06  1.0112  0.0  0.0524  -8.7e-05  0.091607  0.090706  -8e-05  1.010409  0.0
H  H48  1  0.05579048  0.18407501  0.18145469  1  0.076357  3.6e-05  0.945793  0.0  0.09245  -1e-06  1.010353  0.0  0.09358  8e-06  1.011002  0.0  0.05072  -2e-06  0.09196  0.091382  -2.9e-05  1.010115  0.0
H  H49  1  0.12561269  0.68408382  0.18141950  1  0.075801  3.6e-05  0.945733  0.0  0.091872  -1e-06  1.010491  0.0  0.092985  7e-06  1.011206  0.0  0.052419  -8.6e-05  0.091612  0.090731  -8e-05  1.010399  0.0
H  H50  1  0.76911326  0.80335346  0.69006605  1  0.050205  5e-05  0.951346  0.0  0.068141  -1.2e-05  1.017281  0.0  0.068228  1.6e-05  1.01874  0.0  0.027886  1.1e-05  0.081872  0.067826  -3.7e-05  1.016838  0.0
H  H51  1  0.92103602  0.30361200  0.69125622  1  0.050775  4.8e-05  0.948185  0.0  0.068686  -1.4e-05  1.01448  0.0  0.068805  1.5e-05  1.015871  0.0  -0.010665  1.8e-05  0.082303  0.068376  -1.7e-05  1.014004  0.0
H  H52  1  0.23088710  0.19664752  0.30993397  1  0.050161  5e-05  0.9514  0.0  0.068122  -1.2e-05  1.017312  0.0  0.06821  1.6e-05  1.018771  0.0  0.027889  1.1e-05  0.081862  0.067806  -3.7e-05  1.016869  0.0
H  H53  1  0.07896452  0.69638990  0.30874580  1  0.050762  4.8e-05  0.948197  0.0  0.068676  -1.5e-05  1.014487  0.0  0.068794  1.5e-05  1.015878  0.0  -0.010621  1.8e-05  0.082304  0.068365  -1.7e-05  1.014012  0.0
H  H54  1  0.67785362  0.83136547  0.47455770  1  0.095462  6e-05  0.962972  0.0  0.106409  0.000332  1.025538  0.0  0.10932  0.000251  1.025176  0.0  0.062092  0.000853  0.100884  0.104322  0.000402  1.026075  0.0
H  H55  1  0.79665285  0.33188398  0.47569334  1  0.096125  6.8e-05  0.962862  0.0  0.10705  0.000329  1.02537  0.0  0.1099  0.000249  1.025093  0.0  0.067036  0.00085  0.101211  0.104926  0.000391  1.026022  0.0
H  H56  1  0.32214533  0.16863366  0.52544122  1  0.095449  6.1e-05  0.962985  0.0  0.106397  0.000332  1.025549  0.0  0.109307  0.00025  1.025187  0.0  0.062085  0.000853  0.10088  0.10431  0.000402  1.026085  0.0
H  H57  1  0.20334912  0.66811422  0.52430728  1  0.096158  6.7e-05  0.962831  0.0  0.107083  0.000329  1.02534  0.0  0.109933  0.000249  1.025064  0.0  0.06703  0.00085  0.101229  0.10496  0.000391  1.02599  0.0
C  C58  1  0.93724938  0.77367713  0.62949543  1  -0.168999  -5e-06  3.693626  0.001  -0.210176  -0.000573  3.940506  0.0  -0.21225  -0.000332  3.951636  0.0  -0.016156  -0.000192  -0.162591  -0.208449  -0.00083  3.932917  0.0
C  C59  1  0.69093587  0.27425762  0.62839569  1  -0.166124  -1e-05  3.692104  0.001  -0.206648  -0.00056  3.938741  0.0  -0.20876  -0.000326  3.949915  0.0  -0.00315  -0.000213  -0.161144  -0.205189  -0.000804  3.931738  0.001
C  C60  1  0.06275099  0.22632385  0.37050459  1  -0.168994  -7e-06  3.693604  0.001  -0.210166  -0.000574  3.940503  0.0  -0.212242  -0.000332  3.951636  0.0  -0.016161  -0.000192  -0.162606  -0.208455  -0.00083  3.93291  0.0
C  C61  1  0.30906202  0.72574151  0.37160199  1  -0.166187  -9e-06  3.69201  0.001  -0.206719  -0.000559  3.9387  0.0  -0.208831  -0.000325  3.949874  0.0  -0.003134  -0.000213  -0.161163  -0.20526  -0.000804  3.931701  0.001
C  C62  1  0.76941210  0.61335207  0.78439458  1  0.150078  -0.014366  3.734726  -0.01  0.167778  -0.008704  3.968465  -0.006  0.17422  -0.006101  3.989438  -0.004  -0.055335  -0.011265  0.00976  0.163181  -0.011515  3.954422  -0.007
C  C63  1  0.01466617  0.11309717  0.78392229  1  0.151281  -0.01592  3.736067  -0.011  0.167803  -0.009722  3.970962  -0.006  0.174568  -0.006784  3.991524  -0.004  -0.024504  -0.013333  0.008745  0.162657  -0.013566  3.957686  -0.009
C  C64  1  0.23058720  0.38664891  0.21560586  1  0.150013  -0.014397  3.734704  -0.01  0.167725  -0.008706  3.968439  -0.006  0.174166  -0.006101  3.989412  -0.004  -0.05534  -0.011266  0.009745  0.163128  -0.011516  3.954397  -0.007
C  C65  1  0.98533543  0.88690474  0.21608015  1  0.151172  -0.015939  3.736025  -0.011  0.167681  -0.009723  3.970938  -0.006  0.174446  -0.006787  3.991501  -0.004  -0.024364  -0.013334  0.008677  0.162537  -0.013567  3.95766  -0.009
C  C66  1  0.84196614  0.57652819  0.89318341  1  -0.176011  0.004822  3.709934  0.008  -0.192879  0.001766  3.955179  0.003  -0.201573  0.001627  3.976177  0.003  -0.000111  0.004704  -0.085601  -0.187342  0.001772  3.941667  0.004
C  C67  1  0.05203151  0.07659430  0.89278789  1  -0.175833  0.005233  3.709084  0.009  -0.192147  0.001874  3.954353  0.004  -0.200916  0.001737  3.975081  0.003  -0.032955  0.004974  -0.084164  -0.186527  0.001817  3.941239  0.004
C  C68  1  0.15803317  0.42347280  0.10681621  1  -0.176055  0.004838  3.709893  0.008  -0.192931  0.001767  3.955142  0.003  -0.201625  0.001627  3.976135  0.003  -0.00019  0.004704  -0.085635  -0.187394  0.001772  3.941631  0.004
C  C69  1  0.94796868  0.92340575  0.10721261  1  -0.175837  0.005239  3.709021  0.009  -0.19213  0.001874  3.954298  0.004  -0.200899  0.001737  3.975026  0.003  -0.033109  0.004974  -0.084181  -0.186511  0.001817  3.941184  0.004
C  C70  1  0.77907990  0.55695983  0.27097615  1  0.115253  -0.021301  3.706283  -0.014  0.08719  -0.011532  3.962163  -0.007  0.09611  -0.009394  3.976425  -0.006  0.482334  -0.012953  0.035804  0.080744  -0.013339  3.953806  -0.008
C  C71  1  0.49141394  0.05647180  0.27005602  1  0.117549  -0.02057  3.706108  -0.014  0.089324  -0.011115  3.961844  -0.007  0.098137  -0.00914  3.9762  -0.006  0.407638  -0.012927  0.037012  0.082924  -0.013289  3.953449  -0.008
C  C72  1  0.22092029  0.44304022  0.72902353  1  0.115254  -0.0213  3.706264  -0.014  0.087197  -0.011532  3.962137  -0.007  0.096118  -0.009397  3.976398  -0.006  0.482351  -0.012954  0.035818  0.080749  -0.01334  3.953786  -0.008
C  C73  1  0.50858502  0.94352733  0.72994373  1  0.117517  -0.020609  3.706176  -0.014  0.089284  -0.011113  3.961922  -0.007  0.098099  -0.00914  3.976282  -0.006  0.407641  -0.012926  0.036994  0.082884  -0.013287  3.953526  -0.008
C  C74  1  0.84028181  0.71293031  0.48409059  1  0.151583  -0.024399  3.741508  -0.017  0.166985  -0.016001  3.976836  -0.01  0.175069  -0.011299  3.997071  -0.007  0.035365  -0.020144  0.005598  0.161103  -0.020589  3.962987  -0.013
C  C75  1  0.64303245  0.21328507  0.48344607  1  0.150594  -0.023609  3.742141  -0.016  0.165663  -0.015455  3.977982  -0.01  0.17362  -0.011026  3.998295  -0.007  0.033947  -0.019514  0.005089  0.159803  -0.01991  3.96458  -0.013
C  C76  1  0.15971838  0.28706975  0.51590908  1  0.151543  -0.024393  3.741559  -0.017  0.16694  -0.016001  3.976871  -0.01  0.175024  -0.011297  3.997107  -0.007  0.035351  -0.020144  0.005578  0.161057  -0.02059  3.963029  -0.013
C  C77  1  0.35696579  0.78671592  0.51655397  1  0.15058  -0.023635  3.742067  -0.016  0.16563  -0.015455  3.97795  -0.01  0.173586  -0.011026  3.998264  -0.007  0.033946  -0.019513  0.005075  0.15977  -0.01991  3.964547  -0.013
C  C78  1  0.87234835  0.61175622  0.40525007  1  -0.197779  0.006909  3.747028  0.012  -0.214867  0.002403  3.996725  0.005  -0.224006  0.002441  4.016604  0.004  -0.149338  0.006133  -0.096928  -0.209024  0.002067  3.984372  0.005
C  C79  1  0.53208509  0.11170485  0.40386317  1  -0.197937  0.006713  3.751499  0.011  -0.215093  0.002366  4.001167  0.005  -0.224242  0.002402  4.021168  0.004  -0.072535  0.005772  -0.096553  -0.20926  0.00191  3.988893  0.005
C  C80  1  0.12765184  0.38824384  0.59474795  1  -0.197793  0.006908  3.747004  0.012  -0.21485  0.002403  3.996706  0.005  -0.22399  0.00244  4.016585  0.004  -0.149349  0.006133  -0.096921  -0.209008  0.002067  3.984354  0.005
C  C81  1  0.46791510  0.88829521  0.59613650  1  -0.197919  0.006728  3.751526  0.011  -0.215079  0.002366  4.001195  0.005  -0.224227  0.002402  4.021197  0.004  -0.072544  0.005772  -0.096565  -0.209246  0.001911  3.988921  0.005
C  C82  1  0.77022611  0.55446568  0.95954978  1  0.139567  -0.014267  3.699395  -0.01  0.109176  -0.007604  3.958301  -0.005  0.118058  -0.005831  3.974909  -0.004  0.500098  -0.008326  0.047678  0.102939  -0.008992  3.947426  -0.005
C  C83  1  0.19105445  0.05443189  0.95963148  1  0.139593  -0.015762  3.697617  -0.011  0.108868  -0.008472  3.957552  -0.005  0.117987  -0.006442  3.973815  -0.004  0.495505  -0.009441  0.046435  0.10231  -0.01003  3.947313  -0.006
C  C84  1  0.22977302  0.44553438  0.04044949  1  0.139605  -0.014303  3.699332  -0.01  0.109212  -0.007605  3.958243  -0.005  0.118096  -0.005829  3.974847  -0.004  0.500217  -0.008327  0.047684  0.102975  -0.008993  3.94737  -0.005
C  C85  1  0.80894715  0.94557002  0.04037095  1  0.139588  -0.015775  3.697625  -0.011  0.108864  -0.008474  3.957552  -0.005  0.117985  -0.006441  3.973807  -0.004  0.495514  -0.009441  0.046446  0.102304  -0.01003  3.947313  -0.006
C  C86  1  0.56512645  0.61206059  0.82638845  1  0.14255  -0.012491  3.705242  -0.008  0.111865  -0.005678  3.961594  -0.003  0.119909  -0.005164  3.97891  -0.003  0.500427  -0.005212  0.044395  0.106095  -0.006001  3.950335  -0.003
C  C87  1  0.26178044  0.11195278  0.82697248  1  0.141375  -0.013609  3.705128  -0.009  0.110764  -0.006178  3.961911  -0.004  0.119032  -0.005577  3.978931  -0.003  0.533318  -0.006498  0.042996  0.104479  -0.007285  3.951674  -0.004
C  C88  1  0.43487268  0.38793947  0.17361165  1  0.142604  -0.012528  3.705186  -0.008  0.111923  -0.00568  3.96155  -0.003  0.119967  -0.005165  3.978866  -0.003  0.500464  -0.005213  0.044424  0.106152  -0.006002  3.950289  -0.003
C  C89  1  0.73821834  0.88804543  0.17302527  1  0.141378  -0.013627  3.705088  -0.009  0.110802  -0.006179  3.961844  -0.004  0.11907  -0.005577  3.978863  -0.003  0.533303  -0.006499  0.042979  0.104516  -0.007286  3.951608  -0.004
C  C90  1  0.62796253  0.63358282  0.75354128  1  -0.186783  0.004535  3.721934  0.007  -0.201978  0.001533  3.96552  0.003  -0.210831  0.001496  3.987428  0.003  -0.034928  0.003859  -0.09312  -0.196187  0.001333  3.951089  0.003
C  C91  1  0.12506176  0.13337972  0.75359775  1  -0.186695  0.004905  3.721823  0.008  -0.201447  0.001617  3.965653  0.003  -0.210361  0.001599  3.987307  0.003  -0.114591  0.003733  -0.092813  -0.195911  0.00117  3.952045  0.003
C  C92  1  0.37203660  0.36641724  0.24645964  1  -0.186812  0.004551  3.721922  0.007  -0.202006  0.001533  3.965491  0.003  -0.21086  0.001496  3.987399  0.003  -0.034925  0.00386  -0.093133  -0.196215  0.001333  3.95106  0.003
C  C93  1  0.87493895  0.86662311  0.24640462  1  -0.186623  0.004914  3.721702  0.008  -0.201384  0.001618  3.965521  0.003  -0.210298  0.0016  3.987175  0.003  -0.114711  0.003734  -0.09278  -0.195848  0.00117  3.951913  0.003
C  C94  1  0.83743746  0.62797838  0.70224605  1  -0.161305  4.3e-05  3.696452  0.001  -0.204504  -0.000196  3.946284  0.0  -0.206229  -0.000132  3.957792  0.0  -0.036895  0.000148  -0.160835  -0.203101  -0.000219  3.938092  0.0
C  C95  1  0.86357790  0.12802044  0.70154561  1  -0.163574  4.3e-05  3.700653  0.001  -0.206573  -0.000225  3.950601  0.0  -0.20815  -0.000149  3.961804  0.0  -0.038175  3.6e-05  -0.162486  -0.205477  -0.00045  3.943368  0.001
C  C96  1  0.16256273  0.37202168  0.29775363  1  -0.161222  4.4e-05  3.696354  0.001  -0.204455  -0.000196  3.94623  0.0  -0.206178  -0.000132  3.957734  0.0  -0.036911  0.000148  -0.160836  -0.203054  -0.000219  3.938037  0.0
C  C97  1  0.13642140  0.87198054  0.29845567  1  -0.163559  4.5e-05  3.700616  0.001  -0.206535  -0.000225  3.95054  0.0  -0.208113  -0.000148  3.961743  0.0  -0.038251  3.6e-05  -0.162471  -0.205441  -0.00045  3.943311  0.001
C  C98  1  0.62190202  0.69377549  0.28542726  1  0.124427  -0.020417  3.699817  -0.014  0.095561  -0.010728  3.956169  -0.006  0.104126  -0.009067  3.970878  -0.006  0.450311  -0.011171  0.0419  0.08938  -0.011642  3.947426  -0.007
C  C99  1  0.66334956  0.19373336  0.28635336  1  0.125305  -0.019694  3.698884  -0.013  0.096747  -0.01028  3.955225  -0.006  0.105157  -0.008822  3.97008  -0.005  0.418741  -0.010408  0.043265  0.090875  -0.010888  3.946641  -0.006
C  C100  1  0.37809694  0.30622365  0.71457166  1  0.124428  -0.02041  3.6998  -0.014  0.09557  -0.010728  3.956173  -0.006  0.104141  -0.009067  3.970878  -0.006  0.45035  -0.011172  0.041868  0.089389  -0.011643  3.94743  -0.007
C  C101  1  0.33665011  0.80626392  0.71364610  1  0.125294  -0.019724  3.69884  -0.013  0.096745  -0.010282  3.955181  -0.006  0.105157  -0.008822  3.970037  -0.005  0.418314  -0.01041  0.043232  0.090872  -0.01089  3.946599  -0.006
C  C102  1  0.86859096  0.76266531  0.71535226  1  -0.082447  -0.001969  3.661329  -0.002  -0.121811  -0.001483  3.918566  -0.001  -0.122622  -0.000964  3.932307  -0.001  -0.019528  -0.001863  -0.161559  -0.120961  -0.002036  3.909006  -0.002
C  C103  1  0.84631646  0.26301081  0.71549279  1  -0.081501  -0.002038  3.65874  -0.002  -0.121114  -0.001535  3.916122  -0.001  -0.121993  -0.001003  3.929864  -0.001  0.018226  -0.001862  -0.160363  -0.120227  -0.001984  3.907006  -0.001
C  C104  1  0.13140940  0.23733568  0.28464859  1  -0.082435  -0.001968  3.661352  -0.002  -0.121811  -0.001482  3.918585  -0.001  -0.122624  -0.000963  3.932326  -0.001  -0.01954  -0.001863  -0.16153  -0.120957  -0.002036  3.909025  -0.002
C  C105  1  0.15368285  0.73699017  0.28450848  1  -0.0815  -0.002043  3.658764  -0.002  -0.121108  -0.001534  3.916138  -0.001  -0.121988  -0.001004  3.929879  -0.001  0.018149  -0.001862  -0.160376  -0.120231  -0.001983  3.90702  -0.001
C  C106  1  0.71054492  0.75327709  0.41969352  1  -0.185507  0.00704  3.718609  0.012  -0.199254  0.002438  3.961375  0.005  -0.208053  0.002529  3.981367  0.004  -0.093058  0.005724  -0.09212  -0.193492  0.002002  3.948597  0.005
C  C107  1  0.70891006  0.25356246  0.42028068  1  -0.186158  0.006818  3.716498  0.011  -0.200005  0.002377  3.959425  0.005  -0.208793  0.002479  3.979527  0.004  -0.018595  0.005038  -0.092341  -0.194465  0.00169  3.946946  0.004
C  C108  1  0.28945403  0.24672205  0.58030541  1  -0.185459  0.007036  3.71857  0.012  -0.199196  0.002438  3.961327  0.005  -0.207995  0.002529  3.981317  0.004  -0.09306  0.005724  -0.092079  -0.193435  0.002002  3.948549  0.005
C  C109  1  0.29109085  0.74643575  0.57971705  1  -0.18616  0.006831  3.716528  0.011  -0.2  0.002377  3.959459  0.005  -0.208789  0.002479  3.979562  0.004  -0.018555  0.005038  -0.092323  -0.19446  0.00169  3.94698  0.004
S  S110  1  0.31263218  0.75005948  0.99956397  1  1.576413  0.009667  5.874314  0.016  1.458127  0.012141  6.41174  0.02  1.517297  0.009639  6.377477  0.017  3.834109  0.017478  0.568054  1.415054  0.014473  6.432129  0.022
S  S111  1  0.68736678  0.24993965  0.00043495  1  1.576386  0.009667  5.874408  0.016  1.458124  0.012141  6.411824  0.02  1.517294  0.009645  6.377553  0.017  3.834123  0.017477  0.567983  1.415047  0.014472  6.432211  0.022
N  N112  1  0.65485482  0.59691898  0.21024147  1  -0.315296  0.023997  3.267873  0.047  -0.25898  0.019405  3.547742  0.035  -0.276138  0.017375  3.561217  0.031  -1.254323  0.044527  -0.32555  -0.246933  0.021248  3.538068  0.037
N  N113  1  0.55519612  0.09644667  0.21042755  1  -0.316593  0.023936  3.263288  0.046  -0.260615  0.019629  3.542703  0.035  -0.277675  0.017488  3.556399  0.032  -1.21834  0.044692  -0.325928  -0.249394  0.021403  3.533025  0.037
N  N114  1  0.34514537  0.40308108  0.78975821  1  -0.315294  0.023996  3.267913  0.047  -0.258975  0.019405  3.547768  0.035  -0.276134  0.017376  3.561241  0.031  -1.254355  0.044528  -0.325547  -0.246927  0.021248  3.538093  0.037
N  N115  1  0.44480567  0.90355061  0.78957356  1  -0.316567  0.023948  3.263377  0.046  -0.260575  0.019629  3.542779  0.035  -0.277635  0.017488  3.556474  0.032  -1.218314  0.044692  -0.325886  -0.249354  0.021403  3.533101  0.037
N  N116  1  0.63273611  0.56990888  0.92629640  1  -0.313154  0.022968  3.258147  0.044  -0.256672  0.019521  3.53664  0.035  -0.274941  0.016504  3.551317  0.03  -1.231821  0.047432  -0.324784  -0.243423  0.02262  3.525753  0.039
N  N117  1  0.29505839  0.06977609  0.92678938  1  -0.311338  0.023776  3.266483  0.045  -0.255463  0.019833  3.546775  0.035  -0.273787  0.016854  3.56123  0.03  -1.236686  0.047603  -0.327676  -0.243103  0.022686  3.53659  0.039
N  N118  1  0.36726390  0.43009025  0.07370210  1  -0.313184  0.022982  3.258114  0.044  -0.256697  0.019523  3.536603  0.035  -0.274968  0.016504  3.551279  0.03  -1.231939  0.047442  -0.3248  -0.243448  0.022621  3.525715  0.039
N  N119  1  0.70494074  0.93022396  0.07320989  1  -0.311312  0.023782  3.266521  0.045  -0.255442  0.019834  3.546795  0.035  -0.273767  0.016854  3.561256  0.03  -1.236719  0.047604  -0.327663  -0.243082  0.022686  3.536609  0.039
O  O120  1  0.39728615  0.64466588  0.99531515  1  -0.753807  0.037682  2.162337  0.053  -0.688217  0.040033  2.471289  0.053  -0.721241  0.032419  2.451085  0.04  -1.350501  0.102504  -0.374102  -0.660114  0.048573  2.481885  0.068
O  O121  1  0.59883187  0.14459507  0.99602979  1  -0.755102  0.03741  2.160424  0.053  -0.688619  0.039815  2.467179  0.053  -0.721574  0.032254  2.447388  0.039  -1.344104  0.102518  -0.373478  -0.660835  0.048588  2.477899  0.069
O  O122  1  0.60271280  0.35533326  0.00468791  1  -0.753797  0.037681  2.162327  0.053  -0.688229  0.040033  2.471289  0.053  -0.721252  0.032416  2.451082  0.04  -1.350527  0.102502  -0.374111  -0.660137  0.048573  2.481912  0.068
O  O123  1  0.40117382  0.85540036  0.00396976  1  -0.755107  0.03741  2.160494  0.053  -0.68861  0.039814  2.46725  0.053  -0.721566  0.03225  2.447466  0.039  -1.344035  0.102515  -0.373545  -0.660827  0.048588  2.47797  0.069
O  O124  1  0.29663866  0.78687411  0.12038264  1  -0.722654  0.0051  1.918651  0.01  -0.674698  0.005309  2.169256  0.011  -0.699386  0.003407  2.154065  0.007  -1.351052  0.018844  -0.361036  -0.654452  0.007995  2.177776  0.016
O  O125  1  0.82535397  0.28690045  0.12159258  1  -0.723022  0.005115  1.926304  0.011  -0.674783  0.005312  2.177559  0.011  -0.699475  0.0034  2.162309  0.007  -1.357884  0.018871  -0.360465  -0.654436  0.007978  2.185961  0.016
O  O126  1  0.70335746  0.21312687  0.87961493  1  -0.72265  0.005099  1.918694  0.01  -0.674686  0.005307  2.169282  0.011  -0.699379  0.003402  2.154102  0.007  -1.351065  0.018843  -0.361017  -0.654439  0.007994  2.177801  0.016
O  O127  1  0.17464711  0.71309868  0.87840633  1  -0.723068  0.005115  1.926332  0.011  -0.674799  0.005312  2.177561  0.011  -0.699494  0.003401  2.162317  0.007  -1.357907  0.01887  -0.360472  -0.654453  0.007978  2.185961  0.016
