# generated using pymatgen
data_Zn3H24C28(NO9)2
_symmetry_space_group_name_H-M   'P 1'
_cell_length_a   6.16660155
_cell_length_b   15.13071269
_cell_length_c   16.56869979
_cell_angle_alpha   94.71867498
_cell_angle_beta   89.99778909
_cell_angle_gamma   101.76142811
_symmetry_Int_Tables_number   1
_chemical_formula_structural   Zn3H24C28(NO9)2
_chemical_formula_sum   'Zn6 H48 C56 N4 O36'
_cell_volume   1508.13493172
_cell_formula_units_Z   2
loop_
 _symmetry_equiv_pos_site_id
 _symmetry_equiv_pos_as_xyz
  1  'x, y, z'
loop_
 _atom_site_type_symbol
 _atom_site_label
 _atom_site_symmetry_multiplicity
 _atom_site_fract_x
 _atom_site_fract_y
 _atom_site_fract_z
 _atom_site_occupancy
 _atom_site_hle17_bader_spin_density
 _atom_site_hle17_ddec_charge
 _atom_site_hle17_ddec_spin_density
 _atom_site_hle17_ddec_sum_bond_order
 _atom_site_hle17_magmom
 _atom_site_hse06_10hf_bader_spin_density
 _atom_site_hse06_10hf_ddec_charge
 _atom_site_hse06_10hf_ddec_spin_density
 _atom_site_hse06_10hf_ddec_sum_bond_order
 _atom_site_hse06_10hf_magmom
 _atom_site_hse06_bader_spin_density
 _atom_site_hse06_ddec_charge
 _atom_site_hse06_ddec_spin_density
 _atom_site_hse06_ddec_sum_bond_order
 _atom_site_hse06_magmom
 _atom_site_pbe_bader_spin_density
 _atom_site_pbe_cm5_charge
 _atom_site_pbe_ddec_charge
 _atom_site_pbe_ddec_spin_density
 _atom_site_pbe_ddec_sum_bond_order
 _atom_site_pbe_magmom
Zn  Zn0  1  0.57193112  0.33849404  0.75558967  1  0  1.206735  0  1.673536  0  0  1.035652  0  2.149371  0  0  1.08493  0  2.082361  0  0  0.691634  1.000681  0  2.196012  0
Zn  Zn1  1  0.23270070  0.66152683  0.74447026  1  0  1.206922  0  1.674792  0  0  1.036629  0  2.150769  0  0  1.085833  0  2.083729  0  0  0.692236  1.001709  0  2.197441  0
Zn  Zn2  1  0.42806733  0.66150619  0.24441073  1  0  1.206681  0  1.67362  0  0  1.035557  0  2.149473  0  0  1.084838  0  2.082462  0  0  0.69159  1.000582  0  2.1961  0
Zn  Zn3  1  0.76729903  0.33847272  0.25553009  1  0  1.206934  0  1.674766  0  0  1.036648  0  2.150744  0  0  1.085853  0  2.083704  0  0  0.692239  1.001729  0  2.197399  0
Zn  Zn4  1  0.37630854  0.99994192  0.24994580  1  0  1.056948  0  1.882742  0  0  0.882433  0  2.336072  0  0  0.924865  0  2.285186  0  0  0.678332  0.85282  0  2.370941  0
Zn  Zn5  1  0.62368957  0.00005763  0.75005334  1  0  1.056854  0  1.882849  0  0  0.882331  0  2.336183  0  0  0.924761  0  2.2853  0  0  0.678302  0.852708  0  2.371051  0
H  H6  1  0.35517845  0.16570245  0.72458517  1  0  0.441123  0  0.859257  0  0  0.405174  0  0.929913  0  0  0.417394  0  0.912313  0  0  0.290626  0.39651  0  0.942379  0
H  H7  1  0.18924532  0.83436077  0.77545059  1  0  0.441854  0  0.858377  0  0  0.405993  0  0.928839  0  0  0.418185  0  0.91129  0  0  0.291124  0.397337  0  0.941289  0
H  H8  1  0.64482128  0.83429710  0.27541457  1  0  0.441124  0  0.859262  0  0  0.405173  0  0.929918  0  0  0.417391  0  0.912321  0  0  0.290625  0.396506  0  0.942392  0
H  H9  1  0.81075927  0.16563878  0.22455036  1  0  0.441872  0  0.858364  0  0  0.406016  0  0.928815  0  0  0.418207  0  0.911265  0  0  0.291127  0.397362  0  0.941264  0
H  H10  1  0.19271089  0.23904111  0.72976831  1  0  0.424259  0  0.884916  0  0  0.392017  0  0.951384  0  0  0.402877  0  0.935709  0  0  0.292128  0.384285  0  0.962523  0
H  H11  1  0.95322757  0.76111660  0.77014471  1  0  0.423833  0  0.885698  0  0  0.391755  0  0.951922  0  0  0.402632  0  0.936208  0  0  0.29192  0.384033  0  0.963062  0
H  H12  1  0.80728884  0.76095844  0.27023144  1  0  0.424263  0  0.884906  0  0  0.39202  0  0.951376  0  0  0.40288  0  0.9357  0  0  0.292127  0.384287  0  0.962515  0
H  H13  1  0.04677412  0.23888363  0.22985568  1  0  0.423882  0  0.885641  0  0  0.39181  0  0.95185  0  0  0.402686  0  0.936138  0  0  0.291924  0.384087  0  0.962993  0
H  H14  1  0.43347034  0.48635427  0.72422898  1  0  0.442129  0  0.858974  0  0  0.406863  0  0.928923  0  0  0.418325  0  0.9123  0  0  0.295668  0.398775  0  0.940648  0
H  H15  1  0.94702313  0.51357236  0.77592951  1  0  0.44217  0  0.858632  0  0  0.406735  0  0.928784  0  0  0.418178  0  0.912194  0  0  0.295366  0.398668  0  0.940466  0
H  H16  1  0.56652939  0.51364528  0.27577076  1  0  0.44214  0  0.858955  0  0  0.406869  0  0.928915  0  0  0.418331  0  0.912291  0  0  0.295694  0.398779  0  0.940643  0
H  H17  1  0.05297694  0.48642786  0.22407028  1  0  0.442155  0  0.858653  0  0  0.406717  0  0.92881  0  0  0.41816  0  0.912221  0  0  0.295363  0.398649  0  0.940494  0
H  H18  1  0.25741381  0.43660450  0.79007280  1  0  0.449354  0  0.844016  0  0  0.416822  0  0.908201  0  0  0.427714  0  0.892548  0  0  0.300424  0.409108  0  0.919286  0
H  H19  1  0.82040469  0.56321967  0.71008106  1  0  0.449013  0  0.844595  0  0  0.416922  0  0.908147  0  0  0.427777  0  0.892533  0  0  0.300208  0.409232  0  0.919209  0
H  H20  1  0.74258626  0.56339572  0.20992760  1  0  0.449299  0  0.84408  0  0  0.416752  0  0.908287  0  0  0.427643  0  0.892635  0  0  0.300414  0.409035  0  0.919376  0
H  H21  1  0.17959503  0.43677988  0.28991808  1  0  0.449003  0  0.844608  0  0  0.416918  0  0.908152  0  0  0.427772  0  0.892538  0  0  0.300215  0.409224  0  0.91922  0
H  H22  1  0.27184830  0.14975009  0.20339033  1  0  0.419248  0  0.889442  0  0  0.391103  0  0.949255  0  0  0.400783  0  0.935092  0  0  0.295494  0.384314  0  0.959189  0
H  H23  1  0.12191259  0.85012456  0.29661218  1  0  0.420189  0  0.887911  0  0  0.391761  0  0.948283  0  0  0.401435  0  0.934121  0  0  0.295432  0.384952  0  0.958244  0
H  H24  1  0.72815339  0.85025014  0.79660887  1  0  0.419244  0  0.889443  0  0  0.39111  0  0.949239  0  0  0.400788  0  0.935077  0  0  0.295518  0.384318  0  0.959177  0
H  H25  1  0.87808714  0.14987499  0.70338817  1  0  0.420187  0  0.887906  0  0  0.391759  0  0.948281  0  0  0.401432  0  0.934119  0  0  0.295427  0.38495  0  0.958241  0
H  H26  1  0.08900532  0.06886998  0.16081886  1  0  0.419837  0  0.893881  0  0  0.388582  0  0.958219  0  0  0.399799  0  0.942109  0  0  0.288789  0.38068  0  0.96956  0
H  H27  1  0.01991561  0.93102915  0.33907198  1  0  0.420949  0  0.892282  0  0  0.388769  0  0.958109  0  0  0.400025  0  0.941939  0  0  0.288277  0.380843  0  0.969486  0
H  H28  1  0.91099475  0.93113025  0.83918093  1  0  0.419845  0  0.893863  0  0  0.388585  0  0.958209  0  0  0.399804  0  0.942096  0  0  0.288799  0.380686  0  0.969545  0
H  H29  1  0.98008087  0.06897040  0.66092717  1  0  0.420953  0  0.892274  0  0  0.388789  0  0.958069  0  0  0.400041  0  0.941906  0  0  0.288275  0.380865  0  0.96944  0
H  H30  1  0.81283106  0.08324307  0.51375917  1  0  0.130722  0  0.940602  0  0  0.137931  0  1.002845  0  0  0.142133  0  1.000307  0  0  0.115722  0.134911  0  1.004801  0
H  H31  1  0.72983880  0.91673773  0.98611210  1  0  0.131143  0  0.940418  0  0  0.138026  0  1.003214  0  0  0.142154  0  1.000776  0  0  0.115535  0.135026  0  1.005134  0
H  H32  1  0.18716799  0.91675512  0.48623926  1  0  0.13071  0  0.940606  0  0  0.137936  0  1.002813  0  0  0.14214  0  1.000273  0  0  0.115724  0.134919  0  1.004772  0
H  H33  1  0.27016391  0.08326453  0.01388725  1  0  0.131123  0  0.940414  0  0  0.138009  0  1.003215  0  0  0.142125  0  1.000793  0  0  0.115539  0.135009  0  1.005134  0
H  H34  1  0.03451706  0.47325704  0.57885479  1  0  0.100925  0  0.960661  0  0  0.110392  0  1.024391  0  0  0.113482  0  1.022676  0  0  0.105978  0.108136  0  1.025787  0
H  H35  1  0.56128146  0.52687670  0.92078643  1  0  0.102082  0  0.959239  0  0  0.11065  0  1.023917  0  0  0.113806  0  1.022088  0  0  0.106034  0.108353  0  1.025383  0
H  H36  1  0.96548105  0.52674251  0.42114556  1  0  0.100909  0  0.960701  0  0  0.110363  0  1.024445  0  0  0.11345  0  1.022732  0  0  0.105969  0.10811  0  1.025836  0
H  H37  1  0.43871699  0.47312352  0.07921518  1  0  0.102068  0  0.959236  0  0  0.110633  0  1.023922  0  0  0.113789  0  1.022093  0  0  0.106025  0.108334  0  1.025387  0
H  H38  1  0.64081758  0.21522146  0.56586264  1  0  0.095813  0  0.960164  0  0  0.106709  0  1.022229  0  0  0.108911  0  1.021253  0  0  0.105513  0.105089  0  1.022985  0
H  H39  1  0.42565385  0.78483847  0.93395780  1  0  0.096303  0  0.959504  0  0  0.107156  0  1.021679  0  0  0.109384  0  1.020636  0  0  0.105339  0.105525  0  1.02246  0
H  H40  1  0.35918148  0.78477674  0.43413700  1  0  0.095833  0  0.960101  0  0  0.106719  0  1.022185  0  0  0.108922  0  1.021208  0  0  0.105516  0.105097  0  1.022945  0
H  H41  1  0.57435304  0.21516244  0.06604386  1  0  0.096303  0  0.959475  0  0  0.107141  0  1.02167  0  0  0.109369  0  1.020627  0  0  0.10534  0.105511  0  1.022453  0
H  H42  1  0.16808207  0.20524192  0.58496983  1  0  0.104452  0  0.974924  0  0  0.110042  0  1.045646  0  0  0.11402  0  1.043191  0  0  0.104932  0.107088  0  1.04758  0
H  H43  1  0.96276378  0.79494817  0.91482502  1  0  0.104845  0  0.975278  0  0  0.109778  0  1.046812  0  0  0.113739  0  1.044338  0  0  0.104769  0.106899  0  1.048644  0
H  H44  1  0.83191732  0.79475695  0.41502926  1  0  0.104484  0  0.974864  0  0  0.110076  0  1.045579  0  0  0.114055  0  1.043121  0  0  0.104937  0.10712  0  1.047523  0
H  H45  1  0.03723595  0.20505138  0.08517473  1  0  0.104876  0  0.975213  0  0  0.109807  0  1.046754  0  0  0.113764  0  1.044291  0  0  0.104784  0.106932  0  1.048571  0
H  H46  1  0.24367692  0.17085433  0.34680461  1  0  0.094367  0  0.933946  0  0  0.102785  0  0.997384  0  0  0.105697  0  0.994901  0  0  0.121127  0.100626  0  0.99928  0
H  H47  1  0.07273335  0.82930878  0.15297327  1  0  0.095267  0  0.932657  0  0  0.103074  0  0.996299  0  0  0.106046  0  0.993719  0  0  0.12146  0.100873  0  0.998252  0
H  H48  1  0.75632348  0.82914657  0.65319403  1  0  0.094392  0  0.933973  0  0  0.102815  0  0.997405  0  0  0.105727  0  0.994921  0  0  0.121136  0.100653  0  0.999303  0
H  H49  1  0.92726739  0.17069280  0.84702663  1  0  0.095249  0  0.93268  0  0  0.103055  0  0.996324  0  0  0.106026  0  0.993746  0  0  0.12145  0.100854  0  0.99828  0
H  H50  1  0.27129996  0.49513657  0.45654522  1  0  0.10313  0  0.958339  0  0  0.11023  0  1.024179  0  0  0.11363  0  1.022395  0  0  0.106771  0.107826  0  1.025455  0
H  H51  1  0.77611284  0.50494912  0.04307322  1  0  0.103414  0  0.958146  0  0  0.110462  0  1.023872  0  0  0.113762  0  1.022222  0  0  0.10678  0.108093  0  1.025094  0
H  H52  1  0.72869619  0.50486230  0.54345447  1  0  0.103088  0  0.958342  0  0  0.110189  0  1.02419  0  0  0.113589  0  1.022407  0  0  0.106742  0.10779  0  1.02546  0
H  H53  1  0.22388723  0.49505111  0.95692779  1  0  0.103404  0  0.958156  0  0  0.110447  0  1.02389  0  0  0.113749  0  1.022233  0  0  0.106778  0.108075  0  1.025117  0
C  C54  1  0.92559419  0.32097440  0.65740735  1  0  0.658183  0  3.894772  0  0  0.601729  0  4.194004  0  0  0.636922  0  4.184749  0  0  0.217555  0.577855  0  4.19951  0
C  C55  1  0.60438806  0.67921088  0.84239975  1  0  0.658472  0  3.891816  0  0  0.601069  0  4.192295  0  0  0.636295  0  4.183014  0  0  0.217046  0.577159  0  4.197875  0
C  C56  1  0.07440554  0.67902515  0.34259361  1  0  0.658112  0  3.89483  0  0  0.601682  0  4.194016  0  0  0.636873  0  4.184762  0  0  0.21755  0.577811  0  4.19952  0
C  C57  1  0.39561491  0.32078867  0.15760120  1  0  0.65849  0  3.891812  0  0  0.601037  0  4.192352  0  0  0.636265  0  4.18307  0  0  0.217048  0.577116  0  4.197945  0
C  C58  1  0.61349333  0.05930616  0.40517409  1  0  0.092096  0  3.743475  0  0  0.094259  0  3.983479  0  0  0.094759  0  4.003357  0  0  0.111795  0.093755  0  3.970281  0
C  C59  1  0.55440072  0.94068871  0.09470111  1  0  0.091566  0  3.745331  0  0  0.094661  0  3.984366  0  0  0.09525  0  4.004095  0  0  0.111689  0.094109  0  3.971241  0
C  C60  1  0.38650247  0.94069204  0.59482435  1  0  0.092125  0  3.743529  0  0  0.094284  0  3.983532  0  0  0.094782  0  4.003411  0  0  0.111835  0.093785  0  3.970335  0
C  C61  1  0.44560037  0.05931355  0.90529763  1  0  0.09157  0  3.745287  0  0  0.094627  0  3.984382  0  0  0.095247  0  4.004066  0  0  0.111672  0.094081  0  3.971249  0
C  C62  1  0.08169777  0.33734142  0.58866530  1  0  -0.048534  0  3.753376  0  0  -0.025299  0  3.987888  0  0  -0.032006  0  4.01002  0  0  -0.010933  -0.0211  0  3.97328  0
C  C63  1  0.74432211  0.66281938  0.91106223  1  0  -0.052369  0  3.759058  0  0  -0.028003  0  3.992528  0  0  -0.034964  0  4.015088  0  0  -0.012646  -0.023501  0  3.97741  0
C  C64  1  0.91830554  0.66265881  0.41133630  1  0  -0.048522  0  3.753477  0  0  -0.025312  0  3.987996  0  0  -0.032019  0  4.010131  0  0  -0.010948  -0.021112  0  3.973389  0
C  C65  1  0.25567958  0.33718085  0.08893817  1  0  -0.052388  0  3.759007  0  0  -0.028007  0  3.992477  0  0  -0.034966  0  4.015037  0  0  -0.012648  -0.023504  0  3.977361  0
C  C66  1  0.68618615  0.10571523  0.47948715  1  0  -0.100387  0  3.690196  0  0  -0.123224  0  3.942124  0  0  -0.127766  0  3.962502  0  0  -0.071083  -0.120318  0  3.928637  0
C  C67  1  0.58067373  0.89429029  0.02038039  1  0  -0.100383  0  3.689755  0  0  -0.123231  0  3.941227  0  0  -0.12777  0  3.961651  0  0  -0.070765  -0.120297  0  3.927746  0
C  C68  1  0.31381162  0.89428364  0.52051194  1  0  -0.100458  0  3.690223  0  0  -0.123289  0  3.942159  0  0  -0.127831  0  3.962536  0  0  -0.071131  -0.120391  0  3.928682  0
C  C69  1  0.41932506  0.10571062  0.97961886  1  0  -0.100328  0  3.689707  0  0  -0.123157  0  3.94116  0  0  -0.127694  0  3.961582  0  0  -0.070736  -0.120226  0  3.92768  0
C  C70  1  0.70120984  0.97753150  0.37286852  1  0  0.625111  0  3.901692  0  0  0.570717  0  4.200656  0  0  0.603818  0  4.19331  0  0  0.217431  0.548359  0  4.20487  0
C  C71  1  0.72395730  0.02243114  0.12704248  1  0  0.624559  0  3.901628  0  0  0.569759  0  4.200947  0  0  0.602813  0  4.19367  0  0  0.217574  0.547418  0  4.205131  0
C  C72  1  0.29878827  0.02246805  0.62713062  1  0  0.625283  0  3.901584  0  0  0.570903  0  4.200536  0  0  0.604009  0  4.193187  0  0  0.217513  0.548527  0  4.204768  0
C  C73  1  0.27604345  0.97757044  0.87295742  1  0  0.624476  0  3.901546  0  0  0.569657  0  4.200912  0  0  0.602703  0  4.193637  0  0  0.217531  0.547311  0  4.205094  0
C  C74  1  0.11260151  0.41946765  0.55282218  1  0  -0.049467  0  3.698345  0  0  -0.076237  0  3.947201  0  0  -0.076194  0  3.966538  0  0  -0.078387  -0.076214  0  3.934168  0
C  C75  1  0.69314612  0.58066041  0.94684386  1  0  -0.049552  0  3.699722  0  0  -0.075898  0  3.948574  0  0  -0.075823  0  3.96779  0  0  -0.078103  -0.075931  0  3.935634  0
C  C76  1  0.88739592  0.58053054  0.44717867  1  0  -0.049467  0  3.698408  0  0  -0.076227  0  3.947274  0  0  -0.076181  0  3.966607  0  0  -0.078361  -0.076199  0  3.934237  0
C  C77  1  0.30685463  0.41934117  0.05315724  1  0  -0.049546  0  3.699694  0  0  -0.075888  0  3.948532  0  0  -0.075813  0  3.967746  0  0  -0.078101  -0.075916  0  3.935583  0
C  C78  1  0.59164251  0.17841116  0.50738541  1  0  -0.033756  0  3.66073  0  0  -0.060969  0  3.912333  0  0  -0.05931  0  3.930498  0  0  -0.061639  -0.061848  0  3.89998  0
C  C79  1  0.41330467  0.82165346  0.99243817  1  0  -0.035056  0  3.659469  0  0  -0.062131  0  3.911146  0  0  -0.060461  0  3.929226  0  0  -0.061852  -0.063038  0  3.898876  0
C  C80  1  0.40835560  0.82158839  0.49261373  1  0  -0.03377  0  3.660668  0  0  -0.061  0  3.912298  0  0  -0.05934  0  3.93046  0  0  -0.061636  -0.061874  0  3.899942  0
C  C81  1  0.58669377  0.17834677  0.00756162  1  0  -0.035001  0  3.65937  0  0  -0.062059  0  3.911047  0  0  -0.060391  0  3.929127  0  0  -0.061827  -0.062962  0  3.898776  0
C  C82  1  0.19171428  0.26975091  0.55786558  1  0  -0.116066  0  3.682606  0  0  -0.145597  0  3.929455  0  0  -0.148064  0  3.950347  0  0  -0.079028  -0.143638  0  3.91528  0
C  C83  1  0.92192532  0.73041190  0.94188688  1  0  -0.115215  0  3.681947  0  0  -0.14454  0  3.928795  0  0  -0.146928  0  3.949704  0  0  -0.078007  -0.142716  0  3.914637  0
C  C84  1  0.80828708  0.73024864  0.44213537  1  0  -0.116094  0  3.682637  0  0  -0.145619  0  3.929477  0  0  -0.148087  0  3.950366  0  0  -0.07902  -0.143659  0  3.915319  0
C  C85  1  0.07807475  0.26958833  0.05811292  1  0  -0.115233  0  3.681905  0  0  -0.144561  0  3.928757  0  0  -0.14695  0  3.949665  0  0  -0.078008  -0.142732  0  3.914597  0
C  C86  1  0.43244968  0.20513953  0.45995850  1  0  0.037124  0  3.725853  0  0  0.053103  0  3.963543  0  0  0.050827  0  3.985239  0  0  0.012769  0.054364  0  3.949046  0
C  C87  1  0.22724514  0.79497137  0.03982056  1  0  0.038012  0  3.729098  0  0  0.053459  0  3.966995  0  0  0.051244  0  3.988572  0  0  0.012822  0.054682  0  3.952563  0
C  C88  1  0.56755134  0.79485935  0.54004119  1  0  0.0372  0  3.725949  0  0  0.053198  0  3.963635  0  0  0.050924  0  3.985329  0  0  0.012798  0.054468  0  3.949123  0
C  C89  1  0.77275884  0.20503021  0.96017873  1  0  0.037987  0  3.729058  0  0  0.05342  0  3.966965  0  0  0.051209  0  3.988543  0  0  0.012819  0.054643  0  3.952533  0
C  C90  1  0.32549173  0.28115172  0.48951496  1  0  0.062018  0  3.710566  0  0  0.069437  0  3.942034  0  0  0.070484  0  3.965802  0  0  0.009865  0.068739  0  3.925951  0
C  C91  1  0.04425589  0.71899847  0.01023868  1  0  0.063455  0  3.71072  0  0  0.071075  0  3.941936  0  0  0.072138  0  3.965655  0  0  0.010299  0.070358  0  3.925916  0
C  C92  1  0.67450800  0.71884783  0.51048478  1  0  0.062013  0  3.710567  0  0  0.069416  0  3.942048  0  0  0.070464  0  3.965815  0  0  0.009867  0.068714  0  3.92597  0
C  C93  1  0.95574776  0.28100243  0.98976117  1  0  0.063472  0  3.710792  0  0  0.071107  0  3.942006  0  0  0.072169  0  3.965725  0  0  0.010307  0.070388  0  3.925988  0
C  C94  1  0.36991071  0.15462016  0.38585873  1  0  0.117506  0  3.62107  0  0  0.078261  0  3.870933  0  0  0.084265  0  3.886553  0  0  0.06221  0.074301  0  3.860495  0
C  C95  1  0.21527632  0.84548105  0.11393093  1  0  0.115629  0  3.622828  0  0  0.077316  0  3.872537  0  0  0.083266  0  3.888086  0  0  0.061904  0.073425  0  3.862116  0
C  C96  1  0.63008902  0.84537939  0.61414102  1  0  0.117429  0  3.62112  0  0  0.078166  0  3.870993  0  0  0.08417  0  3.886613  0  0  0.062168  0.074209  0  3.860553  0
C  C97  1  0.78472280  0.15452053  0.88606837  1  0  0.115647  0  3.622858  0  0  0.077337  0  3.872553  0  0  0.083284  0  3.888106  0  0  0.061883  0.073442  0  3.862137  0
C  C98  1  0.34780948  0.36289302  0.45181714  1  0  -0.087591  0  3.684808  0  0  -0.070961  0  3.91721  0  0  -0.077522  0  3.937772  0  0  -0.005941  -0.066672  0  3.903372  0
C  C99  1  0.98484072  0.63722036  0.04790724  1  0  -0.090671  0  3.687755  0  0  -0.074054  0  3.92058  0  0  -0.080664  0  3.941132  0  0  -0.006547  -0.069732  0  3.906742  0
C  C100  1  0.65219059  0.63710721  0.54818266  1  0  -0.087591  0  3.684743  0  0  -0.070965  0  3.917149  0  0  -0.077525  0  3.93771  0  0  -0.005931  -0.066668  0  3.903306  0
C  C101  1  0.01516097  0.36277986  0.95209256  1  0  -0.090722  0  3.687788  0  0  -0.074144  0  3.92065  0  0  -0.080755  0  3.941202  0  0  -0.006561  -0.069826  0  3.906819  0
C  C102  1  0.24390070  0.43150981  0.48506192  1  0  -0.065783  0  3.727408  0  0  -0.089136  0  3.980745  0  0  -0.090511  0  4.000993  0  0  -0.080098  -0.08814  0  3.967078  0
C  C103  1  0.81236721  0.56860374  0.01460624  1  0  -0.064762  0  3.728456  0  0  -0.087819  0  3.981158  0  0  -0.089084  0  4.001399  0  0  -0.079839  -0.086878  0  3.967507  0
C  C104  1  0.75609903  0.56848973  0.51493842  1  0  -0.065755  0  3.727436  0  0  -0.089109  0  3.980766  0  0  -0.090482  0  4.001012  0  0  -0.080105  -0.088123  0  3.967103  0
C  C105  1  0.18763286  0.43139649  0.98539356  1  0  -0.064737  0  3.728441  0  0  -0.08778  0  3.981142  0  0  -0.089041  0  4.001381  0  0  -0.079838  -0.086836  0  3.967488  0
C  C106  1  0.48200226  0.38251723  0.37768836  1  0  0.67468  0  3.881879  0  0  0.616658  0  4.184082  0  0  0.651739  0  4.175553  0  0  0.222119  0.592839  0  4.189095  0
C  C107  1  0.09924644  0.61761443  0.12208431  1  0  0.675843  0  3.881469  0  0  0.616929  0  4.184596  0  0  0.652029  0  4.17601  0  0  0.221298  0.593094  0  4.189633  0
C  C108  1  0.51799423  0.61748232  0.62231199  1  0  0.674739  0  3.881805  0  0  0.616725  0  4.183996  0  0  0.651804  0  4.175467  0  0  0.222134  0.592913  0  4.188997  0
C  C109  1  0.90075525  0.38238579  0.87791609  1  0  0.675925  0  3.881393  0  0  0.617038  0  4.184498  0  0  0.652137  0  4.17591  0  0  0.22135  0.593202  0  4.189545  0
N  N110  1  0.45756918  0.08372157  0.35977148  1  0  -0.316782  0  3.276308  0  0  -0.244282  0  3.534907  0  0  -0.259516  0  3.550946  0  0  -0.313994  -0.233903  0  3.524023  0
N  N111  1  0.37398312  0.91630393  0.14007491  1  0  -0.316079  0  3.277994  0  0  -0.244245  0  3.536301  0  0  -0.259503  0  3.552364  0  0  -0.314177  -0.233844  0  3.525394  0
N  N112  1  0.54242926  0.91627866  0.64022771  1  0  -0.316775  0  3.276203  0  0  -0.244252  0  3.534789  0  0  -0.259485  0  3.550827  0  0  -0.314  -0.23387  0  3.523899  0
N  N113  1  0.62601439  0.08369766  0.85992438  1  0  -0.316143  0  3.278034  0  0  -0.244284  0  3.53633  0  0  -0.25955  0  3.552386  0  0  -0.314194  -0.23388  0  3.525415  0
O  O114  1  0.76759904  0.36500449  0.66176511  1  0  -0.641626  0  2.02581  0  0  -0.570107  0  2.299403  0  0  -0.598889  0  2.28282  0  0  -0.3115  -0.550006  0  2.310241  0
O  O115  1  0.40232604  0.63522326  0.83819710  1  0  -0.641394  0  2.023333  0  0  -0.569944  0  2.297718  0  0  -0.598686  0  2.281067  0  0  -0.311598  -0.549901  0  2.308631  0
O  O116  1  0.23240197  0.63499438  0.33823579  1  0  -0.641555  0  2.025869  0  0  -0.57  0  2.299399  0  0  -0.59878  0  2.282817  0  0  -0.311438  -0.549898  0  2.310233  0
O  O117  1  0.59767565  0.36477697  0.16180269  1  0  -0.641368  0  2.023265  0  0  -0.569915  0  2.297683  0  0  -0.598657  0  2.281031  0  0  -0.3116  -0.549869  0  2.308598  0
O  O118  1  0.33722984  0.22747661  0.74913119  1  0  -0.856867  0  1.900814  0  0  -0.784459  0  2.127426  0  0  -0.807896  0  2.086656  0  0  -0.580193  -0.7679  0  2.155949  0
O  O119  1  0.10943115  0.77261122  0.75087686  1  0  -0.857525  0  1.90063  0  0  -0.785617  0  2.127484  0  0  -0.809061  0  2.086763  0  0  -0.580922  -0.769074  0  2.155938  0
O  O120  1  0.66277185  0.77252362  0.25086800  1  0  -0.856869  0  1.90084  0  0  -0.784464  0  2.127463  0  0  -0.8079  0  2.086697  0  0  -0.580195  -0.767895  0  2.155978  0
O  O121  1  0.89057344  0.22738833  0.24912349  1  0  -0.857587  0  1.900595  0  0  -0.785692  0  2.127462  0  0  -0.809134  0  2.086741  0  0  -0.580934  -0.769152  0  2.155917  0
O  O122  1  0.86667356  0.96043932  0.40834506  1  0  -0.591715  0  1.964234  0  0  -0.543399  0  2.18583  0  0  -0.566488  0  2.176767  0  0  -0.309627  -0.527342  0  2.191659  0
O  O123  1  0.90653296  0.03953960  0.09156079  1  0  -0.5895  0  1.96436  0  0  -0.541489  0  2.186035  0  0  -0.564559  0  2.17701  0  0  -0.30865  -0.525434  0  2.191821  0
O  O124  1  0.13332617  0.03956023  0.59165288  1  0  -0.591759  0  1.964132  0  0  -0.543499  0  2.185785  0  0  -0.566578  0  2.176703  0  0  -0.309636  -0.527436  0  2.191616  0
O  O125  1  0.09346617  0.96046199  0.90843790  1  0  -0.589449  0  1.964305  0  0  -0.541417  0  2.185977  0  0  -0.564489  0  2.176957  0  0  -0.308628  -0.525362  0  2.191763  0
O  O126  1  0.38483701  0.43113234  0.75428427  1  0  -0.874295  0  1.901045  0  0  -0.799084  0  2.130397  0  0  -0.822606  0  2.091047  0  0  -0.582908  -0.782493  0  2.157807  0
O  O127  1  0.95331229  0.56877821  0.74589380  1  0  -0.874118  0  1.902435  0  0  -0.799242  0  2.131785  0  0  -0.822688  0  2.092485  0  0  -0.582426  -0.782722  0  2.159166  0
O  O128  1  0.61516109  0.56886721  0.24571548  1  0  -0.874229  0  1.901075  0  0  -0.798984  0  2.130423  0  0  -0.822506  0  2.091076  0  0  -0.58291  -0.782393  0  2.157831  0
O  O129  1  0.04668940  0.43122202  0.25410599  1  0  -0.874094  0  1.902447  0  0  -0.799218  0  2.13179  0  0  -0.822665  0  2.092492  0  0  -0.582435  -0.782696  0  2.15917  0
O  O130  1  0.19452990  0.08680437  0.20875107  1  0  -0.840226  0  1.952817  0  0  -0.778103  0  2.16481  0  0  -0.799159  0  2.13068  0  0  -0.589851  -0.763227  0  2.188374  0
O  O131  1  0.10756049  0.91305230  0.29117399  1  0  -0.841945  0  1.950615  0  0  -0.778851  0  2.162559  0  0  -0.800003  0  2.12852  0  0  -0.589459  -0.763897  0  2.186116  0
O  O132  1  0.80546821  0.91319518  0.79124807  1  0  -0.84025  0  1.952846  0  0  -0.778133  0  2.164843  0  0  -0.799187  0  2.130712  0  0  -0.589894  -0.763242  0  2.188382  0
O  O133  1  0.89243924  0.08694725  0.70882575  1  0  -0.841933  0  1.950595  0  0  -0.778842  0  2.16255  0  0  -0.799992  0  2.12851  0  0  -0.589462  -0.763891  0  2.186102  0
O  O134  1  0.94732227  0.26397801  0.70735049  1  0  -0.660971  0  2.065492  0  0  -0.595939  0  2.294162  0  0  -0.62157  0  2.282634  0  0  -0.310531  -0.578024  0  2.301625  0
O  O135  1  0.68289459  0.73618678  0.79240254  1  0  -0.659661  0  2.064345  0  0  -0.594596  0  2.293543  0  0  -0.62022  0  2.28198  0  0  -0.309731  -0.576719  0  2.301044  0
O  O136  1  0.05267780  0.73602222  0.29265052  1  0  -0.660958  0  2.06547  0  0  -0.595943  0  2.294135  0  0  -0.621582  0  2.282625  0  0  -0.310562  -0.578032  0  2.301598  0
O  O137  1  0.31710676  0.26381277  0.20759781  1  0  -0.659707  0  2.06445  0  0  -0.594603  0  2.293655  0  0  -0.620224  0  2.282086  0  0  -0.309728  -0.576721  0  2.301159  0
O  O138  1  0.59902285  0.93070919  0.31089902  1  0  -0.64605  0  2.096089  0  0  -0.573605  0  2.340379  0  0  -0.601886  0  2.328773  0  0  -0.307969  -0.55388  0  2.347814  0
O  O139  1  0.66860295  0.06922925  0.18903286  1  0  -0.647246  0  2.096104  0  0  -0.574439  0  2.340014  0  0  -0.602694  0  2.328462  0  0  -0.308638  -0.55467  0  2.347376  0
O  O140  1  0.40097459  0.06928901  0.68910002  1  0  -0.646112  0  2.096079  0  0  -0.573675  0  2.340383  0  0  -0.601967  0  2.328779  0  0  -0.308031  -0.553943  0  2.347817  0
O  O141  1  0.33139549  0.93077098  0.81096814  1  0  -0.647176  0  2.096121  0  0  -0.574351  0  2.34003  0  0  -0.60261  0  2.328486  0  0  -0.308596  -0.554586  0  2.347401  0
O  O142  1  0.42803369  0.43805995  0.33178037  1  0  -0.653623  0  2.060223  0  0  -0.585519  0  2.283709  0  0  -0.6121  0  2.273356  0  0  -0.303081  -0.566978  0  2.290347  0
O  O143  1  0.98975357  0.56200362  0.16794515  1  0  -0.654958  0  2.059938  0  0  -0.585958  0  2.28325  0  0  -0.61254  0  2.272877  0  0  -0.30301  -0.567448  0  2.289955  0
O  O144  1  0.57196441  0.56193960  0.66821998  1  0  -0.653662  0  2.060209  0  0  -0.585554  0  2.283682  0  0  -0.612133  0  2.27333  0  0  -0.303098  -0.56702  0  2.290322  0
O  O145  1  0.01024845  0.43799729  0.83205590  1  0  -0.654986  0  2.059897  0  0  -0.585994  0  2.283197  0  0  -0.612577  0  2.272823  0  0  -0.303014  -0.567483  0  2.289908  0
O  O146  1  0.64538663  0.34310171  0.36531635  1  0  -0.643594  0  2.061403  0  0  -0.573868  0  2.33446  0  0  -0.603525  0  2.320078  0  0  -0.310797  -0.553118  0  2.343749  0
O  O147  1  0.30197101  0.65711686  0.13456743  1  0  -0.643481  0  2.061158  0  0  -0.572991  0  2.334132  0  0  -0.602674  0  2.319748  0  0  -0.310027  -0.552219  0  2.343416  0
O  O148  1  0.35461344  0.65689852  0.63468405  1  0  -0.643594  0  2.06138  0  0  -0.57386  0  2.334419  0  0  -0.603519  0  2.320046  0  0  -0.310786  -0.553113  0  2.34371  0
O  O149  1  0.69803264  0.34288405  0.86543242  1  0  -0.643547  0  2.061175  0  0  -0.57308  0  2.334151  0  0  -0.602765  0  2.319773  0  0  -0.3101  -0.552304  0  2.34344  0
