# generated using pymatgen
data_AgH5C6(N3O)2
_symmetry_space_group_name_H-M   'P 1'
_cell_length_a   6.51718032
_cell_length_b   9.72145684
_cell_length_c   16.43311686
_cell_angle_alpha   90.00020618
_cell_angle_beta   98.31246054
_cell_angle_gamma   90.00111011
_symmetry_Int_Tables_number   1
_chemical_formula_structural   AgH5C6(N3O)2
_chemical_formula_sum   'Ag4 H20 C24 N24 O8'
_cell_volume   1030.20667921
_cell_formula_units_Z   4
loop_
 _symmetry_equiv_pos_site_id
 _symmetry_equiv_pos_as_xyz
  1  'x, y, z'
loop_
 _atom_site_type_symbol
 _atom_site_label
 _atom_site_symmetry_multiplicity
 _atom_site_fract_x
 _atom_site_fract_y
 _atom_site_fract_z
 _atom_site_occupancy
 _atom_site_hle17_bader_spin_density
 _atom_site_hle17_ddec_charge
 _atom_site_hle17_ddec_spin_density
 _atom_site_hle17_ddec_sum_bond_order
 _atom_site_hle17_magmom
 _atom_site_hse06_10hf_bader_spin_density
 _atom_site_hse06_10hf_ddec_charge
 _atom_site_hse06_10hf_ddec_spin_density
 _atom_site_hse06_10hf_ddec_sum_bond_order
 _atom_site_hse06_10hf_magmom
 _atom_site_hse06_bader_spin_density
 _atom_site_hse06_ddec_charge
 _atom_site_hse06_ddec_spin_density
 _atom_site_hse06_ddec_sum_bond_order
 _atom_site_hse06_magmom
 _atom_site_pbe_bader_spin_density
 _atom_site_pbe_cm5_charge
 _atom_site_pbe_ddec_charge
 _atom_site_pbe_ddec_spin_density
 _atom_site_pbe_ddec_sum_bond_order
 _atom_site_pbe_magmom
Ag  Ag0  1  0.13165702  0.02208373  0.38137521  1  0  0.51194  0  1.504439  0  0  0.358559  0  1.96692  0  0  0.383176  0  1.925491  0  0  0.46765  0.34149  0  1.995662  0
Ag  Ag1  1  0.86833019  0.52207738  0.11861894  1  0  0.511852  0  1.504574  0  0  0.358449  0  1.967086  0  0  0.38307  0  1.925658  0  0  0.4676  0.341377  0  1.99583  0
Ag  Ag2  1  0.86832990  0.97792459  0.61862115  1  0  0.511961  0  1.504551  0  0  0.358566  0  1.967053  0  0  0.383184  0  1.925625  0  0  0.467623  0.341497  0  1.995793  0
Ag  Ag3  1  0.13166758  0.47791758  0.88137810  1  0  0.511899  0  1.504746  0  0  0.358481  0  1.967263  0  0  0.383101  0  1.925834  0  0  0.467637  0.34141  0  1.996004  0
H  H4  1  0.24792008  0.46822913  0.66429486  1  0  0.117361  0  0.921682  0  0  0.126143  0  0.982586  0  0  0.129829  0  0.977701  0  0  0.144826  0.123155  0  0.986523  0
H  H5  1  0.75205962  0.96822603  0.83571419  1  0  0.117262  0  0.921644  0  0  0.126107  0  0.982471  0  0  0.12981  0  0.97758  0  0  0.144731  0.123083  0  0.986453  0
H  H6  1  0.75208234  0.53178023  0.33570248  1  0  0.117338  0  0.921649  0  0  0.126114  0  0.982549  0  0  0.129815  0  0.977664  0  0  0.144794  0.123132  0  0.986476  0
H  H7  1  0.24794366  0.03177201  0.16430025  1  0  0.1172  0  0.921816  0  0  0.126107  0  0.982568  0  0  0.129812  0  0.977675  0  0  0.144804  0.123094  0  0.98654  0
H  H8  1  0.82515526  0.70471758  0.77568245  1  0  0.098258  0  0.939941  0  0  0.107517  0  1.001095  0  0  0.110109  0  0.997887  0  0  0.132902  0.105477  0  1.003581  0
H  H9  1  0.17485753  0.20469826  0.72432736  1  0  0.098258  0  0.940094  0  0  0.107654  0  1.001051  0  0  0.110258  0  0.997842  0  0  0.132952  0.105613  0  1.003535  0
H  H10  1  0.17485914  0.29528972  0.22432600  1  0  0.098224  0  0.940103  0  0  0.107566  0  1.00113  0  0  0.11017  0  0.997917  0  0  0.132954  0.105526  0  1.003617  0
H  H11  1  0.82514017  0.79527407  0.27567151  1  0  0.098268  0  0.939872  0  0  0.107564  0  1.000979  0  0  0.110156  0  0.997769  0  0  0.132915  0.105524  0  1.00346  0
H  H12  1  0.21337025  0.59138610  0.52799672  1  0  0.118454  0  0.917226  0  0  0.129583  0  0.972255  0  0  0.132165  0  0.970235  0  0  0.146989  0.127806  0  0.973585  0
H  H13  1  0.78660238  0.09139087  0.97200596  1  0  0.118357  0  0.91734  0  0  0.129585  0  0.972324  0  0  0.132165  0  0.970304  0  0  0.146966  0.127818  0  0.973639  0
H  H14  1  0.78664443  0.40860989  0.47200506  1  0  0.118456  0  0.91728  0  0  0.129434  0  0.972492  0  0  0.132017  0  0.970468  0  0  0.146912  0.12763  0  0.973853  0
H  H15  1  0.21338751  0.90860717  0.02799362  1  0  0.11841  0  0.917206  0  0  0.129608  0  0.97222  0  0  0.132202  0  0.970181  0  0  0.147007  0.127786  0  0.973604  0
H  H16  1  0.56060267  0.71489892  0.54902005  1  0  0.129021  0  0.958809  0  0  0.132117  0  1.029173  0  0  0.13598  0  1.024271  0  0  0.140113  0.129287  0  1.032542  0
H  H17  1  0.43937811  0.21491510  0.95098106  1  0  0.128983  0  0.958877  0  0  0.132126  0  1.029172  0  0  0.135986  0  1.02427  0  0  0.140126  0.129301  0  1.032534  0
H  H18  1  0.43939343  0.28509809  0.45097993  1  0  0.129021  0  0.958826  0  0  0.132113  0  1.029218  0  0  0.135971  0  1.024313  0  0  0.140123  0.129288  0  1.03258  0
H  H19  1  0.56061357  0.78508500  0.04901256  1  0  0.128956  0  0.958956  0  0  0.132107  0  1.029219  0  0  0.135969  0  1.024315  0  0  0.140083  0.12928  0  1.032584  0
H  H20  1  0.35097825  0.10844418  0.60726968  1  0  0.107009  0  0.928828  0  0  0.116682  0  0.988435  0  0  0.119324  0  0.9851  0  0  0.138862  0.114974  0  0.990332  0
H  H21  1  0.64904169  0.60845010  0.89272814  1  0  0.10703  0  0.928781  0  0  0.116691  0  0.9884  0  0  0.119348  0  0.985067  0  0  0.138831  0.114976  0  0.990292  0
H  H22  1  0.64901935  0.89156415  0.39273161  1  0  0.10697  0  0.928921  0  0  0.116638  0  0.988534  0  0  0.119281  0  0.985197  0  0  0.138823  0.114923  0  0.990426  0
H  H23  1  0.35095965  0.39155514  0.10725757  1  0  0.107085  0  0.928723  0  0  0.116752  0  0.98835  0  0  0.119397  0  0.985009  0  0  0.138875  0.115037  0  0.990251  0
C  C24  1  0.13556597  0.54400609  0.67819709  1  0  0.184136  0  3.623823  0  0  0.118338  0  3.891564  0  0  0.133103  0  3.902544  0  0  0.165122  0.108558  0  3.884418  0
C  C25  1  0.86443307  0.04400011  0.82181201  1  0  0.184415  0  3.624042  0  0  0.118554  0  3.891662  0  0  0.133299  0  3.902663  0  0  0.165378  0.108802  0  3.884529  0
C  C26  1  0.86443795  0.45599813  0.32180157  1  0  0.184157  0  3.623878  0  0  0.118403  0  3.891587  0  0  0.133145  0  3.902588  0  0  0.165192  0.108621  0  3.88443  0
C  C27  1  0.13557994  0.95599382  0.17819270  1  0  0.184428  0  3.624238  0  0  0.118586  0  3.891902  0  0  0.133331  0  3.902902  0  0  0.165229  0.108824  0  3.884772  0
C  C28  1  0.91464873  0.66389093  0.73042830  1  0  0.206123  0  3.702359  0  0  0.156379  0  3.9762  0  0  0.167566  0  3.989366  0  0  0.144509  0.149128  0  3.967354  0
C  C29  1  0.08535386  0.16387151  0.76957527  1  0  0.206027  0  3.703145  0  0  0.156191  0  3.976906  0  0  0.167359  0  3.990097  0  0  0.144499  0.148945  0  3.968055  0
C  C30  1  0.08536753  0.33612769  0.26957297  1  0  0.206157  0  3.703154  0  0  0.156365  0  3.976911  0  0  0.167537  0  3.990092  0  0  0.144445  0.149119  0  3.968062  0
C  C31  1  0.91466067  0.83611933  0.23043014  1  0  0.205913  0  3.702673  0  0  0.156141  0  3.976509  0  0  0.167326  0  3.989681  0  0  0.144413  0.148896  0  3.967658  0
C  C32  1  0.12050464  0.67836934  0.54566646  1  0  0.039373  0  3.578695  0  0  -0.011278  0  3.827297  0  0  -0.006636  0  3.836302  0  0  0.128961  -0.014503  0  3.821218  0
C  C33  1  0.87948119  0.17837538  0.95433852  1  0  0.03942  0  3.578388  0  0  -0.011492  0  3.827198  0  0  -0.006847  0  3.836196  0  0  0.129055  -0.014721  0  3.821121  0
C  C34  1  0.87950231  0.32162562  0.45433422  1  0  0.039411  0  3.578539  0  0  -0.0111  0  3.827106  0  0  -0.006458  0  3.836109  0  0  0.129133  -0.014306  0  3.821025  0
C  C35  1  0.12052701  0.82162369  0.04566953  1  0  0.039513  0  3.578314  0  0  -0.011348  0  3.827211  0  0  -0.006717  0  3.836214  0  0  0.128918  -0.01454  0  3.821126  0
C  C36  1  0.93826895  0.69799662  0.47243744  1  0  0.614472  0  3.973084  0  0  0.560799  0  4.304235  0  0  0.593815  0  4.295805  0  0  0.191426  0.538363  0  4.309228  0
C  C37  1  0.06169763  0.19800991  0.02757232  1  0  0.614648  0  3.973525  0  0  0.561181  0  4.304353  0  0  0.594195  0  4.295917  0  0  0.191545  0.538747  0  4.309352  0
C  C38  1  0.06174107  0.30199628  0.52756403  1  0  0.614823  0  3.973083  0  0  0.561147  0  4.304227  0  0  0.594161  0  4.295793  0  0  0.19154  0.538713  0  4.309214  0
C  C39  1  0.93829059  0.80198916  0.97243021  1  0  0.614495  0  3.973387  0  0  0.561  0  4.304327  0  0  0.59402  0  4.295893  0  0  0.191493  0.538564  0  4.30931  0
C  C40  1  0.46485180  0.80098824  0.56347067  1  0  0.180994  0  3.602686  0  0  0.11471  0  3.870541  0  0  0.130232  0  3.880522  0  0  0.165899  0.104732  0  3.863418  0
C  C41  1  0.53514523  0.30099545  0.93653353  1  0  0.181099  0  3.603038  0  0  0.114819  0  3.870844  0  0  0.130348  0  3.880817  0  0  0.166036  0.104837  0  3.863728  0
C  C42  1  0.53515354  0.19901392  0.43653111  1  0  0.180954  0  3.602838  0  0  0.114663  0  3.870778  0  0  0.130194  0  3.880749  0  0  0.165841  0.104686  0  3.863656  0
C  C43  1  0.46484959  0.69900157  0.06345967  1  0  0.180768  0  3.603389  0  0  0.114558  0  3.871121  0  0  0.130086  0  3.881098  0  0  0.165934  0.104582  0  3.863996  0
C  C44  1  0.35658787  0.99970876  0.59267044  1  0  0.203798  0  3.692076  0  0  0.148947  0  3.970259  0  0  0.161427  0  3.982376  0  0  0.148481  0.140653  0  3.961646  0
C  C45  1  0.64340730  0.49971227  0.90732385  1  0  0.20372  0  3.691839  0  0  0.148855  0  3.970011  0  0  0.161311  0  3.982148  0  0  0.148427  0.140571  0  3.961385  0
C  C46  1  0.64341605  0.00029442  0.40732821  1  0  0.203836  0  3.692116  0  0  0.149015  0  3.970259  0  0  0.161493  0  3.982377  0  0  0.148516  0.140734  0  3.961629  0
C  C47  1  0.35655801  0.50028680  0.09266869  1  0  0.203646  0  3.691989  0  0  0.148804  0  3.970201  0  0  0.161284  0  3.98231  0  0  0.148408  0.140515  0  3.961583  0
N  N48  1  0.05028926  0.55680615  0.74681088  1  0  -0.371376  0  3.191893  0  0  -0.303447  0  3.498578  0  0  -0.321667  0  3.507308  0  0  -0.350516  -0.291061  0  3.492347  0
N  N49  1  0.94971789  0.05679908  0.75319877  1  0  -0.371465  0  3.192842  0  0  -0.303559  0  3.499576  0  0  -0.321781  0  3.508322  0  0  -0.350624  -0.291169  0  3.49333  0
N  N50  1  0.94973463  0.44319600  0.25319391  1  0  -0.371386  0  3.192609  0  0  -0.303446  0  3.499271  0  0  -0.321667  0  3.508019  0  0  -0.350544  -0.291059  0  3.493037  0
N  N51  1  0.05030604  0.94319587  0.24680481  1  0  -0.371292  0  3.192747  0  0  -0.303374  0  3.499446  0  0  -0.321596  0  3.508188  0  0  -0.350461  -0.290984  0  3.493207  0
N  N52  1  0.91106790  0.71678716  0.65595474  1  0  -0.271219  0  2.996248  0  0  -0.243135  0  3.287063  0  0  -0.253201  0  3.299714  0  0  -0.224845  -0.23655  0  3.278878  0
N  N53  1  0.08893456  0.21677013  0.84404958  1  0  -0.271267  0  2.996313  0  0  -0.243214  0  3.287137  0  0  -0.253285  0  3.299798  0  0  -0.224962  -0.236627  0  3.278951  0
N  N54  1  0.08893449  0.28323043  0.34404321  1  0  -0.271404  0  2.996516  0  0  -0.243287  0  3.287379  0  0  -0.253355  0  3.300034  0  0  -0.224877  -0.236699  0  3.279193  0
N  N55  1  0.91106446  0.78321763  0.15595485  1  0  -0.271127  0  2.996105  0  0  -0.242998  0  3.28694  0  0  -0.253066  0  3.299593  0  0  -0.224804  -0.236411  0  3.278753  0
N  N56  1  0.05304691  0.63966595  0.62308791  1  0  0.018107  0  3.548686  0  0  0.098644  0  3.776966  0  0  0.08604  0  3.803295  0  0  -0.129855  0.106737  0  3.759411  0
N  N57  1  0.94695176  0.13965725  0.87691899  1  0  0.018058  0  3.548698  0  0  0.098711  0  3.776965  0  0  0.086115  0  3.803294  0  0  -0.1299  0.106802  0  3.759405  0
N  N58  1  0.94695398  0.36033723  0.37690872  1  0  0.018228  0  3.548727  0  0  0.098651  0  3.77712  0  0  0.086053  0  3.803449  0  0  -0.129897  0.106744  0  3.759557  0
N  N59  1  0.05304584  0.86033565  0.12308230  1  0  0.018012  0  3.54864  0  0  0.098465  0  3.777118  0  0  0.085865  0  3.803451  0  0  -0.129912  0.106561  0  3.759546  0
N  N60  1  0.25694423  0.79732062  0.55963096  1  0  0.017464  0  3.553341  0  0  0.097907  0  3.77891  0  0  0.085518  0  3.804488  0  0  -0.128763  0.10583  0  3.761869  0
N  N61  1  0.74304664  0.29732980  0.94036919  1  0  0.017447  0  3.553549  0  0  0.097832  0  3.779285  0  0  0.085445  0  3.804856  0  0  -0.128876  0.105751  0  3.762255  0
N  N62  1  0.74305659  0.20268256  0.44036750  1  0  0.017397  0  3.553727  0  0  0.097845  0  3.779272  0  0  0.085456  0  3.804848  0  0  -0.128829  0.105766  0  3.762228  0
N  N63  1  0.25695445  0.70267544  0.05962258  1  0  0.017494  0  3.553706  0  0  0.097914  0  3.779367  0  0  0.085528  0  3.804947  0  0  -0.128772  0.105835  0  3.762317  0
N  N64  1  0.18552457  0.92391537  0.57819347  1  0  -0.257951  0  3.088604  0  0  -0.215353  0  3.396312  0  0  -0.226258  0  3.406125  0  0  -0.237183  -0.207843  0  3.389891  0
N  N65  1  0.81447314  0.42392036  0.92180138  1  0  -0.25796  0  3.088664  0  0  -0.215272  0  3.396288  0  0  -0.226175  0  3.406108  0  0  -0.237132  -0.207762  0  3.389864  0
N  N66  1  0.81448710  0.07609502  0.42180567  1  0  -0.257941  0  3.088537  0  0  -0.215316  0  3.396204  0  0  -0.226221  0  3.406016  0  0  -0.23714  -0.207805  0  3.389781  0
N  N67  1  0.18550765  0.57609209  0.07819276  1  0  -0.257911  0  3.088723  0  0  -0.215262  0  3.396384  0  0  -0.226166  0  3.406195  0  0  -0.237151  -0.207752  0  3.389962  0
N  N68  1  0.53189837  0.92781646  0.58438638  1  0  -0.373993  0  3.278007  0  0  -0.299621  0  3.591776  0  0  -0.319823  0  3.601853  0  0  -0.356643  -0.285972  0  3.584537  0
N  N69  1  0.46809612  0.42781543  0.91561376  1  0  -0.373939  0  3.278168  0  0  -0.29956  0  3.59194  0  0  -0.319761  0  3.60202  0  0  -0.356625  -0.285909  0  3.584698  0
N  N70  1  0.46811475  0.07218776  0.41561529  1  0  -0.373947  0  3.278132  0  0  -0.299624  0  3.59194  0  0  -0.319826  0  3.602018  0  0  -0.356621  -0.285974  0  3.584695  0
N  N71  1  0.53188162  0.57217542  0.08437897  1  0  -0.373682  0  3.278099  0  0  -0.299413  0  3.591911  0  0  -0.319615  0  3.601989  0  0  -0.356583  -0.285762  0  3.584666  0
O  O72  1  0.77564587  0.63008691  0.47742334  1  0  -0.636379  0  1.918748  0  0  -0.600919  0  2.150395  0  0  -0.623919  0  2.139872  0  0  -0.348368  -0.584642  0  2.156544  0
O  O73  1  0.22430649  0.13011795  0.02258411  1  0  -0.636468  0  1.919139  0  0  -0.601151  0  2.150716  0  0  -0.624144  0  2.140176  0  0  -0.348681  -0.584873  0  2.156868  0
O  O74  1  0.22433656  0.36989056  0.52256847  1  0  -0.636467  0  1.918977  0  0  -0.601066  0  2.15069  0  0  -0.624053  0  2.140157  0  0  -0.34849  -0.584796  0  2.156842  0
O  O75  1  0.77567686  0.86990169  0.97742358  1  0  -0.636363  0  1.91874  0  0  -0.601047  0  2.150348  0  0  -0.624047  0  2.139817  0  0  -0.348532  -0.584776  0  2.156499  0
O  O76  1  0.98142043  0.77112577  0.41420558  1  0  -0.635589  0  1.986818  0  0  -0.592529  0  2.247225  0  0  -0.616732  0  2.23567  0  0  -0.33954  -0.575586  0  2.25475  0
O  O77  1  0.01850466  0.27113044  0.08580418  1  0  -0.635599  0  1.986875  0  0  -0.59259  0  2.247141  0  0  -0.616815  0  2.235621  0  0  -0.339382  -0.57563  0  2.254633  0
O  O78  1  0.01856316  0.22887638  0.58579604  1  0  -0.635779  0  1.986684  0  0  -0.592722  0  2.247089  0  0  -0.616934  0  2.235539  0  0  -0.33956  -0.575776  0  2.25461  0
O  O79  1  0.98146784  0.72886452  0.91420282  1  0  -0.635601  0  1.987352  0  0  -0.592564  0  2.247646  0  0  -0.616778  0  2.236108  0  0  -0.339432  -0.575613  0  2.25515  0
