# generated using pymatgen
data_KPH9C6NO8
_symmetry_space_group_name_H-M   'P 1'
_cell_length_a   6.65378362
_cell_length_b   12.56955501
_cell_length_c   13.36468038
_cell_angle_alpha   93.59782198
_cell_angle_beta   89.99989056
_cell_angle_gamma   89.99992597
_symmetry_Int_Tables_number   1
_chemical_formula_structural   KPH9C6NO8
_chemical_formula_sum   'K4 P4 H36 C24 N4 O32'
_cell_volume   1115.55339960
_cell_formula_units_Z   4
loop_
 _symmetry_equiv_pos_site_id
 _symmetry_equiv_pos_as_xyz
  1  'x, y, z'
loop_
 _atom_site_type_symbol
 _atom_site_label
 _atom_site_symmetry_multiplicity
 _atom_site_fract_x
 _atom_site_fract_y
 _atom_site_fract_z
 _atom_site_occupancy
 _atom_site_hle17_bader_spin_density
 _atom_site_hle17_ddec_charge
 _atom_site_hle17_ddec_spin_density
 _atom_site_hle17_ddec_sum_bond_order
 _atom_site_hle17_magmom
 _atom_site_hse06_10hf_bader_spin_density
 _atom_site_hse06_10hf_ddec_charge
 _atom_site_hse06_10hf_ddec_spin_density
 _atom_site_hse06_10hf_ddec_sum_bond_order
 _atom_site_hse06_10hf_magmom
 _atom_site_hse06_bader_spin_density
 _atom_site_hse06_ddec_charge
 _atom_site_hse06_ddec_spin_density
 _atom_site_hse06_ddec_sum_bond_order
 _atom_site_hse06_magmom
 _atom_site_pbe_bader_spin_density
 _atom_site_pbe_cm5_charge
 _atom_site_pbe_ddec_charge
 _atom_site_pbe_ddec_spin_density
 _atom_site_pbe_ddec_sum_bond_order
 _atom_site_pbe_magmom
K  K0  1  0.16178218  0.09998550  0.43563990  1  0  0.912319  0  0.444321  0  0  0.862166  0  0.619844  0  0  0.877187  0  0.595186  0  0  0.762903  0.850742  0  0.637665  0
K  K1  1  0.66178465  0.90001428  0.06435834  1  0  0.912308  0  0.444317  0  0  0.862163  0  0.619841  0  0  0.877205  0  0.595163  0  0  0.762902  0.85074  0  0.637663  0
K  K2  1  0.83820963  0.90001265  0.56435397  1  0  0.912312  0  0.44432  0  0  0.862172  0  0.619842  0  0  0.877217  0  0.595161  0  0  0.76292  0.85075  0  0.637663  0
K  K3  1  0.33820865  0.09998783  0.93564475  1  0  0.912305  0  0.444322  0  0  0.862168  0  0.619848  0  0  0.877214  0  0.595161  0  0  0.762916  0.850744  0  0.63767  0
P  P4  1  0.97181988  0.17990063  0.73009117  1  0  1.681261  0  4.878077  0  0  1.491617  0  5.417915  0  0  1.550935  0  5.364631  0  0  0.435304  1.450338  0  5.4539  0
P  P5  1  0.47182080  0.82009895  0.76990812  1  0  1.681305  0  4.878001  0  0  1.491669  0  5.417815  0  0  1.550986  0  5.364535  0  0  0.435315  1.45039  0  5.4538  0
P  P6  1  0.02818094  0.82009990  0.26990808  1  0  1.681217  0  4.878083  0  0  1.491567  0  5.417914  0  0  1.550885  0  5.364632  0  0  0.435278  1.450295  0  5.453897  0
P  P7  1  0.52818002  0.17990157  0.23009188  1  0  1.68127  0  4.878093  0  0  1.491613  0  5.417927  0  0  1.55093  0  5.364643  0  0  0.435285  1.45034  0  5.45391  0
H  H8  1  0.26761621  0.11635927  0.67953052  1  0  0.442617  0  0.864223  0  0  0.409031  0  0.92984  0  0  0.421749  0  0.911963  0  0  0.307008  0.400153  0  0.942281  0
H  H9  1  0.76761774  0.88364047  0.82046748  1  0  0.442602  0  0.864245  0  0  0.409014  0  0.929863  0  0  0.421732  0  0.911987  0  0  0.307017  0.400137  0  0.942301  0
H  H10  1  0.73238161  0.88364046  0.32046794  1  0  0.442596  0  0.864252  0  0  0.409007  0  0.929873  0  0  0.421726  0  0.911996  0  0  0.307014  0.40013  0  0.942312  0
H  H11  1  0.23238308  0.11636005  0.17953103  1  0  0.44263  0  0.864207  0  0  0.409035  0  0.92984  0  0  0.421755  0  0.911958  0  0  0.30701  0.400159  0  0.942276  0
H  H12  1  0.27409459  0.46982475  0.78609611  1  0  0.116015  0  0.967559  0  0  0.125572  0  1.027982  0  0  0.12798  0  1.029275  0  0  0.106213  0.123808  0  1.027306  0
H  H13  1  0.77409288  0.53017179  0.71390468  1  0  0.116072  0  0.967409  0  0  0.125605  0  1.027873  0  0  0.128013  0  1.029164  0  0  0.106229  0.123841  0  1.027196  0
H  H14  1  0.72590773  0.53017498  0.21390310  1  0  0.115977  0  0.96749  0  0  0.125556  0  1.027918  0  0  0.127954  0  1.02922  0  0  0.106205  0.123793  0  1.027242  0
H  H15  1  0.22590794  0.46982714  0.28609597  1  0  0.116008  0  0.967442  0  0  0.125545  0  1.027904  0  0  0.127952  0  1.029197  0  0  0.106208  0.123781  0  1.027229  0
H  H16  1  0.14371126  0.63926324  0.87210750  1  0  0.138585  0  0.945606  0  0  0.141355  0  1.009743  0  0  0.145697  0  1.006005  0  0  0.11608  0.138173  0  1.012525  0
H  H17  1  0.64370879  0.36073339  0.62789342  1  0  0.138597  0  0.945647  0  0  0.141356  0  1.009774  0  0  0.1457  0  1.006035  0  0  0.116083  0.138174  0  1.012556  0
H  H18  1  0.85628956  0.36073649  0.12789096  1  0  0.138614  0  0.945577  0  0  0.141362  0  1.009725  0  0  0.145704  0  1.005987  0  0  0.116088  0.138181  0  1.012504  0
H  H19  1  0.35628902  0.63926473  0.37210793  1  0  0.138587  0  0.945584  0  0  0.141345  0  1.009723  0  0  0.145688  0  1.005984  0  0  0.116076  0.138164  0  1.012505  0
H  H20  1  0.60136221  0.47291302  0.94768293  1  0  0.113322  0  0.97212  0  0  0.119716  0  1.037399  0  0  0.123259  0  1.03373  0  0  0.111452  0.117109  0  1.040115  0
H  H21  1  0.10136468  0.52708685  0.55231599  1  0  0.113322  0  0.972117  0  0  0.119735  0  1.037369  0  0  0.123276  0  1.033705  0  0  0.11145  0.117123  0  1.040099  0
H  H22  1  0.39863711  0.52708591  0.05231772  1  0  0.11325  0  0.972139  0  0  0.119638  0  1.03744  0  0  0.12318  0  1.033772  0  0  0.111417  0.117029  0  1.040161  0
H  H23  1  0.89863764  0.47291367  0.44768476  1  0  0.113338  0  0.972087  0  0  0.119731  0  1.037367  0  0  0.123275  0  1.033693  0  0  0.111447  0.117124  0  1.040083  0
H  H24  1  0.72653798  0.30811723  0.85885209  1  0  0.129975  0  0.937775  0  0  0.139637  0  0.994213  0  0  0.143873  0  0.991837  0  0  0.121897  0.136557  0  0.996112  0
H  H25  1  0.22654121  0.69188254  0.64114745  1  0  0.130001  0  0.937757  0  0  0.139603  0  0.994263  0  0  0.14384  0  0.991883  0  0  0.121865  0.136522  0  0.996161  0
H  H26  1  0.27346735  0.69188329  0.14114866  1  0  0.129987  0  0.937771  0  0  0.139628  0  0.994235  0  0  0.143863  0  0.991859  0  0  0.12188  0.136548  0  0.996134  0
H  H27  1  0.77346412  0.30811798  0.35885255  1  0  0.129963  0  0.93778  0  0  0.139621  0  0.994224  0  0  0.143858  0  0.991846  0  0  0.121881  0.13654  0  0.996123  0
H  H28  1  0.02743210  0.01299786  0.20707131  1  0  0.428125  0  0.876437  0  0  0.3968  0  0.940028  0  0  0.407493  0  0.924496  0  0  0.299746  0.389271  0  0.950953  0
H  H29  1  0.52743198  0.98700360  0.29292865  1  0  0.428112  0  0.876447  0  0  0.396789  0  0.940037  0  0  0.407482  0  0.924505  0  0  0.299753  0.389259  0  0.950963  0
H  H30  1  0.97256722  0.98700266  0.79292869  1  0  0.428136  0  0.876422  0  0  0.396819  0  0.940002  0  0  0.407513  0  0.924469  0  0  0.299754  0.38929  0  0.950928  0
H  H31  1  0.47256734  0.01299692  0.70707135  1  0  0.428119  0  0.876445  0  0  0.396803  0  0.940021  0  0  0.407496  0  0.924488  0  0  0.29975  0.389274  0  0.950947  0
H  H32  1  0.92964493  0.13246957  0.21008909  1  0  0.443904  0  0.853586  0  0  0.411021  0  0.918667  0  0  0.421948  0  0.902852  0  0  0.299973  0.403353  0  0.929753  0
H  H33  1  0.42964566  0.86753159  0.28991048  1  0  0.44385  0  0.853665  0  0  0.411051  0  0.918642  0  0  0.421949  0  0.902855  0  0  0.299973  0.403382  0  0.929724  0
H  H34  1  0.07035288  0.86753175  0.78991021  1  0  0.443873  0  0.853633  0  0  0.411078  0  0.918603  0  0  0.421975  0  0.902819  0  0  0.299981  0.403408  0  0.929687  0
H  H35  1  0.57035215  0.13246813  0.71008948  1  0  0.443863  0  0.853649  0  0  0.411062  0  0.918629  0  0  0.421962  0  0.902841  0  0  0.299984  0.403391  0  0.929713  0
H  H36  1  0.25653484  0.85241862  0.45353333  1  0  0.428811  0  0.866036  0  0  0.400033  0  0.926732  0  0  0.409763  0  0.912207  0  0  0.294221  0.39318  0  0.936955  0
H  H37  1  0.75653470  0.14758188  0.04646636  1  0  0.42882  0  0.866022  0  0  0.400019  0  0.92676  0  0  0.409752  0  0.912229  0  0  0.294212  0.393166  0  0.936982  0
H  H38  1  0.74346448  0.14758190  0.54646667  1  0  0.428823  0  0.866016  0  0  0.400046  0  0.926711  0  0  0.409776  0  0.912186  0  0  0.29424  0.393192  0  0.936936  0
H  H39  1  0.24346462  0.85241865  0.95353365  1  0  0.428833  0  0.86601  0  0  0.400039  0  0.926736  0  0  0.40977  0  0.912208  0  0  0.294207  0.393186  0  0.936959  0
H  H40  1  0.32760241  0.88659904  0.56502434  1  0  0.439221  0  0.855617  0  0  0.410596  0  0.915265  0  0  0.420633  0  0.900395  0  0  0.292477  0.403508  0  0.925764  0
H  H41  1  0.82760237  0.11340145  0.93497515  1  0  0.439199  0  0.855647  0  0  0.410585  0  0.915279  0  0  0.420619  0  0.90041  0  0  0.292465  0.403495  0  0.925779  0
H  H42  1  0.67239540  0.11340149  0.43497566  1  0  0.439187  0  0.855665  0  0  0.41057  0  0.9153  0  0  0.420605  0  0.90043  0  0  0.292459  0.403481  0  0.925799  0
H  H43  1  0.17239545  0.88659907  0.06502486  1  0  0.439193  0  0.855657  0  0  0.410577  0  0.915289  0  0  0.420613  0  0.900419  0  0  0.292462  0.403488  0  0.925788  0
C  C44  1  0.00618242  0.38067305  0.81429110  1  0  0.365211  0  3.75239  0  0  0.344393  0  4.021176  0  0  0.359597  0  4.035139  0  0  0.111171  0.334109  0  4.011516  0
C  C45  1  0.50618210  0.61932528  0.68570930  1  0  0.365031  0  3.752511  0  0  0.344227  0  4.021273  0  0  0.359429  0  4.03524  0  0  0.111104  0.333944  0  4.011612  0
C  C46  1  0.99382141  0.61932667  0.18570885  1  0  0.365096  0  3.752544  0  0  0.344335  0  4.021268  0  0  0.359537  0  4.035231  0  0  0.111132  0.334053  0  4.011607  0
C  C47  1  0.49382022  0.38067444  0.31429140  1  0  0.365141  0  3.752401  0  0  0.344331  0  4.021178  0  0  0.359533  0  4.035144  0  0  0.11115  0.33405  0  4.011518  0
C  C48  1  0.12613810  0.47300200  0.82076931  1  0  -0.177665  0  3.708728  0  0  -0.199203  0  3.966636  0  0  -0.207856  0  3.987586  0  0  -0.097102  -0.193493  0  3.952545  0
C  C49  1  0.62613654  0.52699544  0.67923168  1  0  -0.177626  0  3.708596  0  0  -0.199164  0  3.966502  0  0  -0.207819  0  3.987456  0  0  -0.097134  -0.193454  0  3.952409  0
C  C50  1  0.87386422  0.52699772  0.17923065  1  0  -0.177541  0  3.708658  0  0  -0.199133  0  3.966564  0  0  -0.207779  0  3.987524  0  0  -0.097077  -0.193423  0  3.952474  0
C  C51  1  0.37386429  0.47300348  0.32076972  1  0  -0.177592  0  3.708667  0  0  -0.199131  0  3.966571  0  0  -0.207785  0  3.987525  0  0  -0.097108  -0.193421  0  3.95248  0
C  C52  1  0.05548486  0.56607724  0.86943761  1  0  -0.065821  0  3.708368  0  0  -0.089083  0  3.966468  0  0  -0.08527  0  3.983124  0  0  -0.073561  -0.091319  0  3.95517  0
C  C53  1  0.55548371  0.43392026  0.63056270  1  0  -0.065854  0  3.708445  0  0  -0.089068  0  3.966512  0  0  -0.085256  0  3.98317  0  0  -0.073537  -0.091305  0  3.955213  0
C  C54  1  0.94451746  0.43392248  0.13056160  1  0  -0.065863  0  3.708417  0  0  -0.089097  0  3.966519  0  0  -0.085282  0  3.983172  0  0  -0.073574  -0.091334  0  3.955223  0
C  C55  1  0.44451561  0.56607867  0.36943870  1  0  -0.065858  0  3.708384  0  0  -0.089096  0  3.96645  0  0  -0.085282  0  3.983103  0  0  -0.073564  -0.091333  0  3.955153  0
C  C56  1  0.86499111  0.56518119  0.91397365  1  0  0.045392  0  3.746156  0  0  0.026941  0  4.001304  0  0  0.020185  0  4.02534  0  0  0.068925  0.03111  0  3.985165  0
C  C57  1  0.36499067  0.43481767  0.58602645  1  0  0.045345  0  3.746205  0  0  0.026858  0  4.001374  0  0  0.0201  0  4.025412  0  0  0.068895  0.031028  0  3.985235  0
C  C58  1  0.13501121  0.43481854  0.08602630  1  0  0.045244  0  3.74628  0  0  0.026816  0  4.001367  0  0  0.020059  0  4.025403  0  0  0.068909  0.030986  0  3.98523  0
C  C59  1  0.63501015  0.56518205  0.41397500  1  0  0.045386  0  3.7462  0  0  0.026957  0  4.001293  0  0  0.0202  0  4.025328  0  0  0.068956  0.031127  0  3.985155  0
C  C60  1  0.74727024  0.47287388  0.91133975  1  0  -0.063778  0  3.736129  0  0  -0.089771  0  3.996438  0  0  -0.086055  0  4.014643  0  0  -0.074284  -0.091839  0  3.983958  0
C  C61  1  0.24727107  0.52712587  0.58865976  1  0  -0.063847  0  3.736146  0  0  -0.089852  0  3.996455  0  0  -0.086137  0  4.01466  0  0  -0.074327  -0.091922  0  3.983971  0
C  C62  1  0.25273058  0.52712585  0.08866020  1  0  -0.06358  0  3.736022  0  0  -0.089577  0  3.996313  0  0  -0.085861  0  4.014517  0  0  -0.074246  -0.091646  0  3.983832  0
C  C63  1  0.75273126  0.47287385  0.41134094  1  0  -0.063862  0  3.736148  0  0  -0.089879  0  3.996466  0  0  -0.086161  0  4.014672  0  0  -0.074346  -0.091946  0  3.983984  0
C  C64  1  0.81768302  0.38007006  0.86171694  1  0  -0.182717  0  3.703112  0  0  -0.204855  0  3.962815  0  0  -0.213501  0  3.982537  0  0  -0.089765  -0.199108  0  3.949441  0
C  C65  1  0.31768343  0.61992963  0.63828400  1  0  -0.18262  0  3.703037  0  0  -0.204703  0  3.962729  0  0  -0.213349  0  3.982452  0  0  -0.089671  -0.198955  0  3.949352  0
C  C66  1  0.18231931  0.61993046  0.13828306  1  0  -0.182771  0  3.703176  0  0  -0.204907  0  3.962866  0  0  -0.213555  0  3.982591  0  0  -0.089742  -0.199159  0  3.949491  0
C  C67  1  0.68231739  0.38007009  0.36171745  1  0  -0.182663  0  3.703078  0  0  -0.204798  0  3.962778  0  0  -0.213445  0  3.982503  0  0  -0.089719  -0.19905  0  3.949401  0
N  N68  1  0.79202189  0.66153340  0.96592118  1  0  0.47602  0  3.966689  0  0  0.531907  0  4.224256  0  0  0.554316  0  4.232048  0  0  0.03163  0.516959  0  4.219032  0
N  N69  1  0.29202188  0.33846631  0.53407830  1  0  0.476052  0  3.966674  0  0  0.531984  0  4.224186  0  0  0.554394  0  4.231975  0  0  0.03167  0.517036  0  4.218962  0
N  N70  1  0.20797743  0.33846633  0.03407803  1  0  0.476059  0  3.96663  0  0  0.531998  0  4.224129  0  0  0.554406  0  4.231921  0  0  0.031658  0.517049  0  4.218905  0
N  N71  1  0.70797744  0.66153421  0.46592171  1  0  0.47603  0  3.96667  0  0  0.531947  0  4.224196  0  0  0.554354  0  4.231989  0  0  0.031641  0.516999  0  4.218974  0
O  O72  1  0.08466128  0.29569652  0.75982480  1  0  -0.507743  0  2.259831  0  0  -0.428247  0  2.504441  0  0  -0.452083  0  2.496731  0  0  -0.176483  -0.411425  0  2.509206  0
O  O73  1  0.58466055  0.70430176  0.74017402  1  0  -0.507694  0  2.25984  0  0  -0.428205  0  2.504449  0  0  -0.452039  0  2.496735  0  0  -0.176461  -0.411395  0  2.509231  0
O  O74  1  0.91533954  0.70430321  0.24017440  1  0  -0.507692  0  2.259842  0  0  -0.428218  0  2.504443  0  0  -0.452052  0  2.496733  0  0  -0.176465  -0.4114  0  2.509207  0
O  O75  1  0.41534027  0.29569797  0.25982593  1  0  -0.507675  0  2.259808  0  0  -0.428189  0  2.504432  0  0  -0.45202  0  2.496718  0  0  -0.176445  -0.411373  0  2.509196  0
O  O76  1  0.12253338  0.13291451  0.64886295  1  0  -0.819375  0  2.029473  0  0  -0.75211  0  2.273626  0  0  -0.776416  0  2.247725  0  0  -0.421726  -0.734794  0  2.291098  0
O  O77  1  0.62253483  0.86708454  0.85113589  1  0  -0.819372  0  2.029481  0  0  -0.752113  0  2.273645  0  0  -0.776419  0  2.247733  0  0  -0.421741  -0.734797  0  2.291117  0
O  O78  1  0.87746443  0.86708442  0.35113546  1  0  -0.819373  0  2.029512  0  0  -0.752122  0  2.273699  0  0  -0.776422  0  2.247775  0  0  -0.421748  -0.734805  0  2.291169  0
O  O79  1  0.37746599  0.13291598  0.14886411  1  0  -0.819391  0  2.02945  0  0  -0.752132  0  2.273629  0  0  -0.776438  0  2.247717  0  0  -0.421728  -0.734816  0  2.2911  0
O  O80  1  0.97648629  0.11693077  0.82349824  1  0  -0.9256  0  1.959346  0  0  -0.842911  0  2.200106  0  0  -0.870184  0  2.178018  0  0  -0.407751  -0.823369  0  2.214785  0
O  O81  1  0.47648742  0.88306881  0.67650104  1  0  -0.925601  0  1.959302  0  0  -0.842909  0  2.200062  0  0  -0.870178  0  2.177969  0  0  -0.407742  -0.823365  0  2.214739  0
O  O82  1  0.02351303  0.88306976  0.17650101  1  0  -0.925565  0  1.959329  0  0  -0.842863  0  2.200085  0  0  -0.870136  0  2.178  0  0  -0.407714  -0.82332  0  2.214761  0
O  O83  1  0.52351190  0.11693092  0.32349816  1  0  -0.925584  0  1.95936  0  0  -0.842884  0  2.200127  0  0  -0.870149  0  2.178032  0  0  -0.407733  -0.82334  0  2.214802  0
O  O84  1  0.77035111  0.20034152  0.68316702  1  0  -0.870928  0  1.922575  0  0  -0.787566  0  2.156439  0  0  -0.814555  0  2.134604  0  0  -0.351499  -0.768437  0  2.171116  0
O  O85  1  0.27035190  0.79965821  0.81683322  1  0  -0.870973  0  1.922567  0  0  -0.78761  0  2.156433  0  0  -0.814601  0  2.134597  0  0  -0.351516  -0.768479  0  2.171111  0
O  O86  1  0.22964821  0.79965901  0.31683299  1  0  -0.8709  0  1.922596  0  0  -0.787538  0  2.156457  0  0  -0.814527  0  2.134622  0  0  -0.351497  -0.768419  0  2.171139  0
O  O87  1  0.72964892  0.20034231  0.18316678  1  0  -0.870993  0  1.922597  0  0  -0.787582  0  2.156465  0  0  -0.814583  0  2.134633  0  0  -0.351512  -0.768456  0  2.171142  0
O  O88  1  0.90596597  0.74042582  0.97321101  1  0  -0.383666  0  1.810061  0  0  -0.370336  0  2.015941  0  0  -0.381612  0  2.011164  0  0  -0.176441  -0.363057  0  2.019513  0
O  O89  1  0.40596318  0.25957302  0.52678830  1  0  -0.383685  0  1.810059  0  0  -0.370364  0  2.015917  0  0  -0.381634  0  2.011135  0  0  -0.176459  -0.363085  0  2.019488  0
O  O90  1  0.09403335  0.25957471  0.02678824  1  0  -0.383632  0  1.810022  0  0  -0.37034  0  2.015888  0  0  -0.381611  0  2.011105  0  0  -0.176437  -0.363061  0  2.019461  0
O  O91  1  0.59403313  0.74042591  0.47321086  1  0  -0.383667  0  1.810047  0  0  -0.370348  0  2.015922  0  0  -0.381619  0  2.01114  0  0  -0.176445  -0.363068  0  2.019494  0
O  O92  1  0.61911009  0.66261296  0.00282162  1  0  -0.392241  0  1.751609  0  0  -0.380176  0  1.946701  0  0  -0.391919  0  1.941634  0  0  -0.158755  -0.3725  0  1.950333  0
O  O93  1  0.11911281  0.33738845  0.49717600  1  0  -0.392223  0  1.751633  0  0  -0.38019  0  1.946716  0  0  -0.391929  0  1.941646  0  0  -0.158752  -0.372514  0  1.950348  0
O  O94  1  0.38088922  0.33738597  0.99717753  1  0  -0.392252  0  1.751578  0  0  -0.380214  0  1.946665  0  0  -0.391966  0  1.94162  0  0  -0.158787  -0.372538  0  1.950296  0
O  O95  1  0.88088801  0.66261367  0.50282185  1  0  -0.392209  0  1.751602  0  0  -0.380175  0  1.946688  0  0  -0.391926  0  1.941642  0  0  -0.158765  -0.372499  0  1.95032  0
O  O96  1  0.05190676  0.09015460  0.22768907  1  0  -0.849146  0  1.846063  0  0  -0.789056  0  2.00952  0  0  -0.810008  0  1.977163  0  0  -0.607404  -0.77426  0  2.031985  0
O  O97  1  0.55190691  0.90984605  0.27231007  1  0  -0.849079  0  1.846137  0  0  -0.789066  0  2.009448  0  0  -0.809993  0  1.977158  0  0  -0.607406  -0.774263  0  2.031919  0
O  O98  1  0.94809256  0.90984592  0.77230943  1  0  -0.849118  0  1.846102  0  0  -0.789117  0  2.009407  0  0  -0.810042  0  1.977117  0  0  -0.607411  -0.774315  0  2.031881  0
O  O99  1  0.44809241  0.09015368  0.72768914  1  0  -0.849094  0  1.846142  0  0  -0.789097  0  2.009464  0  0  -0.810025  0  1.977167  0  0  -0.607403  -0.774295  0  2.031938  0
O  O100  1  0.23559319  0.90459305  0.51059953  1  0  -0.922085  0  1.745722  0  0  -0.877455  0  1.907593  0  0  -0.895157  0  1.876951  0  0  -0.724219  -0.864753  0  1.928946  0
O  O101  1  0.73559148  0.09540750  0.98940005  1  0  -0.922066  0  1.745718  0  0  -0.877446  0  1.907622  0  0  -0.895143  0  1.876976  0  0  -0.724204  -0.864742  0  1.928975  0
O  O102  1  0.76440763  0.09540747  0.48939973  1  0  -0.92207  0  1.745768  0  0  -0.877452  0  1.90765  0  0  -0.89515  0  1.877013  0  0  -0.724234  -0.86475  0  1.929005  0
O  O103  1  0.26440784  0.90459302  0.01059995  1  0  -0.922085  0  1.745745  0  0  -0.877463  0  1.907638  0  0  -0.895159  0  1.876987  0  0  -0.724202  -0.864762  0  1.928992  0
