# generated using pymatgen
data_Cu5Ni2H24C22I5N12
_symmetry_space_group_name_H-M   'P 1'
_cell_length_a   12.62465657
_cell_length_b   13.99885583
_cell_length_c   22.65497312
_cell_angle_alpha   89.99991852
_cell_angle_beta   98.83951130
_cell_angle_gamma   89.99974025
_symmetry_Int_Tables_number   1
_chemical_formula_structural   Cu5Ni2H24C22I5N12
_chemical_formula_sum   'Cu20 Ni8 H96 C88 I20 N48'
_cell_volume   3956.27542191
_cell_formula_units_Z   4
loop_
 _symmetry_equiv_pos_site_id
 _symmetry_equiv_pos_as_xyz
  1  'x, y, z'
loop_
 _atom_site_type_symbol
 _atom_site_label
 _atom_site_symmetry_multiplicity
 _atom_site_fract_x
 _atom_site_fract_y
 _atom_site_fract_z
 _atom_site_occupancy
 _atom_site_pbe_bader_charge
 _atom_site_pbe_bader_spin_density
 _atom_site_pbe_cm5_charge
 _atom_site_pbe_ddec_charge
 _atom_site_pbe_ddec_spin_density
 _atom_site_pbe_ddec_sum_bond_order
 _atom_site_pbe_magmom
Cu  Cu0  1  0.70476386  0.32139876  0.30727150  1  0.410653  0  0.260716  0.208035  0  2.664247  0
Cu  Cu1  1  0.79523379  0.82139957  0.19272897  1  0.410586  0  0.260682  0.208004  0  2.664104  0
Cu  Cu2  1  0.29523915  0.67860263  0.69272728  1  0.410555  0  0.260721  0.208041  0  2.664174  0
Cu  Cu3  1  0.20476440  0.17860182  0.80727115  1  0.410678  0  0.260709  0.208052  0  2.664122  0
Cu  Cu4  1  0.51682088  0.32901197  0.25915272  1  0.265831  0  0.126746  0.064401  0  2.803295  0
Cu  Cu5  1  0.98317674  0.82901404  0.24084685  1  0.265866  0  0.126755  0.064406  0  2.803179  0
Cu  Cu6  1  0.48317731  0.67098729  0.74084696  1  0.265972  0  0.126749  0.064395  0  2.803276  0
Cu  Cu7  1  0.01682385  0.17098449  0.75915303  1  0.265912  0  0.126728  0.06433  0  2.803319  0
Cu  Cu8  1  0.67351573  0.39361844  0.18695542  1  0.404465  0  0.243775  0.144131  0  2.76511  0
Cu  Cu9  1  0.82648473  0.89362242  0.31304523  1  0.404207  0  0.243752  0.144114  0  2.76515  0
Cu  Cu10  1  0.32648647  0.60638153  0.81304417  1  0.404471  0  0.243746  0.144108  0  2.765172  0
Cu  Cu11  1  0.17351265  0.10637898  0.68695481  1  0.404421  0  0.24373  0.144073  0  2.765217  0
Cu  Cu12  1  0.50451558  0.30419867  0.14450005  1  0.380997  0  0.232839  0.134125  0  2.770561  0
Cu  Cu13  1  0.99548457  0.80420114  0.35550065  1  0.380918  0  0.232841  0.134147  0  2.770467  0
Cu  Cu14  1  0.49548500  0.69579916  0.85550116  1  0.38093  0  0.232849  0.134169  0  2.770436  0
Cu  Cu15  1  0.00451521  0.19579882  0.64450005  1  0.380939  0  0.232815  0.134114  0  2.770528  0
Cu  Cu16  1  0.48517709  0.47281672  0.18706101  1  0.384678  0  0.238406  0.149889  0  2.798086  0
Cu  Cu17  1  0.01482624  0.97281911  0.31294034  1  0.384689  0  0.238401  0.14993  0  2.797989  0
Cu  Cu18  1  0.51482430  0.52718181  0.81293983  1  0.384679  0  0.238413  0.149973  0  2.798005  0
Cu  Cu19  1  0.98517516  0.02718300  0.68705917  1  0.38466  0  0.238421  0.150006  0  2.797959  0
Ni  Ni20  1  0.11095170  0.42304595  0.46736380  1  0.865836  0  0.65126  0.369847  0  2.965868  0
Ni  Ni21  1  0.38904871  0.92304532  0.03263557  1  0.865951  0  0.65125  0.369836  0  2.965787  0
Ni  Ni22  1  0.88905054  0.57695616  0.53263227  1  0.865942  0  0.651246  0.369896  0  2.965808  0
Ni  Ni23  1  0.61095105  0.07695393  0.96736733  1  0.865864  0  0.6512  0.369848  0  2.965758  0
Ni  Ni24  1  0.36619022  0.88607214  0.21312587  1  0.858768  0  0.634593  0.361644  0  3.015739  0
Ni  Ni25  1  0.13380877  0.38607095  0.28687561  1  0.858876  0  0.634594  0.36181  0  3.015478  0
Ni  Ni26  1  0.63380715  0.11392854  0.78687505  1  0.858794  0  0.634617  0.36184  0  3.015535  0
Ni  Ni27  1  0.86619103  0.61392902  0.71312376  1  0.858863  0  0.634606  0.361824  0  3.01547  0
H  H28  1  0.12734966  0.93901924  0.08887969  1  0.077706  0  0.099596  0.075532  0  0.982209  0
H  H29  1  0.37265144  0.43902322  0.41112238  1  0.077647  0  0.099601  0.075572  0  0.982185  0
H  H30  1  0.87265094  0.06097644  0.91111932  1  0.077747  0  0.099602  0.075537  0  0.982154  0
H  H31  1  0.62735559  0.56097389  0.58887631  1  0.077634  0  0.099578  0.075527  0  0.982168  0
H  H32  1  0.09596307  0.93954998  0.16251269  1  0.066824  0  0.085834  0.070206  0  1.040241  0
H  H33  1  0.40403803  0.43954900  0.33748937  1  0.06688  0  0.085824  0.070185  0  1.040238  0
H  H34  1  0.90403512  0.06044785  0.83748698  1  0.067046  0  0.085819  0.07017  0  1.040283  0
H  H35  1  0.59596100  0.56044883  0.66250684  1  0.066951  0  0.085822  0.070225  0  1.040188  0
H  H36  1  0.88488833  0.46706095  0.36151415  1  0.104947  0  0.121344  0.084755  0  1.024407  0
H  H37  1  0.61510771  0.96706048  0.13848781  1  0.104959  0  0.121356  0.084768  0  1.024399  0
H  H38  1  0.11511307  0.53294116  0.63848537  1  0.104989  0  0.12136  0.084684  0  1.024537  0
H  H39  1  0.38488885  0.03293877  0.86151392  1  0.104948  0  0.12134  0.084793  0  1.024349  0
H  H40  1  0.17438537  0.77377377  0.47313263  1  0.136385  0  0.120656  0.118492  0  0.988938  0
H  H41  1  0.32561826  0.27377597  0.02686671  1  0.136347  0  0.120632  0.118434  0  0.989002  0
H  H42  1  0.82561843  0.22622977  0.52686710  1  0.136424  0  0.120654  0.118461  0  0.989005  0
H  H43  1  0.67438875  0.72622614  0.97313330  1  0.136366  0  0.120627  0.118469  0  0.988927  0
H  H44  1  0.96657049  0.58235663  0.36977936  1  0.12086  0  0.113443  0.080183  0  1.053912  0
H  H45  1  0.53342845  0.08235264  0.13022186  1  0.120899  0  0.113442  0.080199  0  1.053889  0
H  H46  1  0.03343250  0.41764477  0.63022074  1  0.120912  0  0.11344  0.080214  0  1.053921  0
H  H47  1  0.46656811  0.91764376  0.86978031  1  0.120869  0  0.113412  0.080104  0  1.053847  0
H  H48  1  0.61186463  0.78649129  0.26709311  1  0.142803  0  0.109098  0.07094  0  1.071164  0
H  H49  1  0.88813640  0.28648848  0.23290901  1  0.142842  0  0.109135  0.07107  0  1.070923  0
H  H50  1  0.38813513  0.21351082  0.73290979  1  0.142852  0  0.109107  0.07106  0  1.071009  0
H  H51  1  0.11186418  0.71351220  0.76709132  1  0.142845  0  0.109131  0.071088  0  1.070923  0
H  H52  1  0.19450616  0.25115518  0.57741714  1  0.069992  0  0.091063  0.074836  0  1.025261  0
H  H53  1  0.30549217  0.75115542  0.92258208  1  0.069992  0  0.091049  0.07484  0  1.025286  0
H  H54  1  0.80549446  0.74884479  0.42258010  1  0.069891  0  0.091015  0.07479  0  1.025393  0
H  H55  1  0.69450679  0.24884312  0.07742075  1  0.069888  0  0.091021  0.074804  0  1.025339  0
H  H56  1  0.24706123  0.18450897  0.52221075  1  0.05263  0  0.107331  0.090429  0  0.961182  0
H  H57  1  0.25293745  0.68451002  0.97778945  1  0.05264  0  0.107349  0.090434  0  0.961152  0
H  H58  1  0.75293858  0.81548885  0.47778730  1  0.052641  0  0.107313  0.090404  0  0.961152  0
H  H59  1  0.74706071  0.31549138  0.02221331  1  0.052624  0  0.107332  0.090429  0  0.961124  0
H  H60  1  0.15775615  0.77758383  0.09529707  1  0.123354  0  0.109794  0.097479  0  1.019586  0
H  H61  1  0.34224823  0.27758581  0.40470587  1  0.123367  0  0.109769  0.097442  0  1.019562  0
H  H62  1  0.84224444  0.22241256  0.90470326  1  0.123382  0  0.109793  0.09752  0  1.019554  0
H  H63  1  0.65775237  0.72241416  0.59529358  1  0.123359  0  0.109779  0.097451  0  1.019524  0
H  H64  1  0.36949921  0.46138771  0.58107789  1  0.054081  0  0.100999  0.086669  0  0.978369  0
H  H65  1  0.13050121  0.96138939  0.91891957  1  0.054032  0  0.101005  0.086675  0  0.978375  0
H  H66  1  0.63050624  0.53861082  0.41891889  1  0.053859  0  0.100997  0.086697  0  0.978427  0
H  H67  1  0.86949937  0.03860915  0.08108120  1  0.054042  0  0.100998  0.08668  0  0.978382  0
H  H68  1  0.25711636  0.40847930  0.60619823  1  0.038077  0  0.087688  0.077705  0  1.016879  0
H  H69  1  0.24288833  0.90847844  0.89380143  1  0.038062  0  0.087653  0.077637  0  1.016953  0
H  H70  1  0.74289069  0.59151995  0.39379870  1  0.037993  0  0.087634  0.077619  0  1.01703  0
H  H71  1  0.75711144  0.09151796  0.10620059  1  0.03802  0  0.08765  0.077626  0  1.016997  0
H  H72  1  0.08077108  0.15511554  0.46966648  1  0.097425  0  0.110491  0.097702  0  1.021905  0
H  H73  1  0.41922598  0.65511337  0.03033238  1  0.097353  0  0.110491  0.097748  0  1.021838  0
H  H74  1  0.91922713  0.84488585  0.53033099  1  0.097361  0  0.110541  0.097793  0  1.021805  0
H  H75  1  0.58077380  0.34488446  0.96966920  1  0.097378  0  0.110486  0.097713  0  1.021914  0
H  H76  1  0.38478301  0.28825354  0.57724289  1  0.042882  0  0.104933  0.113097  0  0.957871  0
H  H77  1  0.11521672  0.78825741  0.92275643  1  0.0428  0  0.10493  0.1131  0  0.957893  0
H  H78  1  0.61522003  0.71174357  0.42275368  1  0.042757  0  0.10494  0.113104  0  0.957874  0
H  H79  1  0.88478224  0.21174256  0.07724596  1  0.042757  0  0.104946  0.113123  0  0.957879  0
H  H80  1  0.35891840  0.32865484  0.50213618  1  0.027761  0  0.091564  0.08659  0  1.007242  0
H  H81  1  0.14107952  0.82865772  0.99786206  1  0.027799  0  0.091586  0.086586  0  1.007271  0
H  H82  1  0.64108144  0.67134370  0.49785922  1  0.027929  0  0.091596  0.086602  0  1.00722  0
H  H83  1  0.85892024  0.17134439  0.00214085  1  0.0279  0  0.091587  0.086593  0  1.00724  0
H  H84  1  0.27678437  0.57368333  0.11334302  1  0.107441  0  0.118543  0.116771  0  0.988875  0
H  H85  1  0.22322594  0.07368226  0.38665797  1  0.10734  0  0.118532  0.116781  0  0.98897  0
H  H86  1  0.72322103  0.42631520  0.88665773  1  0.107367  0  0.118539  0.116732  0  0.988978  0
H  H87  1  0.77677225  0.92631913  0.61334170  1  0.107335  0  0.118522  0.116786  0  0.988977  0
H  H88  1  0.66177893  0.06602724  0.33374407  1  0.118994  0  0.101688  0.106628  0  1.035986  0
H  H89  1  0.83821769  0.56602793  0.16625741  1  0.118968  0  0.101714  0.106674  0  1.035981  0
H  H90  1  0.33821845  0.93397416  0.66625598  1  0.119032  0  0.101719  0.106665  0  1.035966  0
H  H91  1  0.16178370  0.43397346  0.83374299  1  0.117796  0  0.101701  0.106661  0  1.035964  0
H  H92  1  0.13854684  0.10118641  0.13190993  1  0.02257  0  0.098445  0.10398  0  0.963027  0
H  H93  1  0.36145453  0.60118869  0.36808848  1  0.022533  0  0.098461  0.103969  0  0.963011  0
H  H94  1  0.86145137  0.89881070  0.86808754  1  0.022632  0  0.09848  0.104003  0  0.963015  0
H  H95  1  0.63854927  0.39881128  0.63191214  1  0.022649  0  0.098472  0.103992  0  0.962968  0
H  H96  1  0.26703559  0.06558468  0.11799332  1  0.024968  0  0.091643  0.092724  0  1.036576  0
H  H97  1  0.23296116  0.56558459  0.38200559  1  0.024789  0  0.091652  0.09271  0  1.036566  0
H  H98  1  0.73296020  0.93441386  0.88200614  1  0.024779  0  0.091656  0.092772  0  1.036536  0
H  H99  1  0.76704183  0.43441323  0.61799583  1  0.024666  0  0.091651  0.092753  0  1.036572  0
H  H100  1  0.86854858  0.16755792  0.37411633  1  0.146663  0  0.108432  0.111314  0  1.027346  0
H  H101  1  0.63145071  0.66755598  0.12588352  1  0.14663  0  0.108439  0.111353  0  1.027287  0
H  H102  1  0.13145206  0.83244419  0.62587914  1  0.146583  0  0.108437  0.111383  0  1.027273  0
H  H103  1  0.36855146  0.33244470  0.87411871  1  0.146682  0  0.108459  0.111369  0  1.02719  0
H  H104  1  0.42264135  0.13197889  0.27811944  1  0.107457  0  0.105034  0.090844  0  1.042979  0
H  H105  1  0.07735498  0.63198052  0.22188423  1  0.107545  0  0.105048  0.090895  0  1.04288  0
H  H106  1  0.57735603  0.86802108  0.72188105  1  0.107504  0  0.105048  0.090928  0  1.042824  0
H  H107  1  0.92264641  0.36802230  0.77811617  1  0.107231  0  0.105034  0.090913  0  1.042887  0
H  H108  1  0.29597036  0.60399884  0.55337275  1  0.142462  0  0.109793  0.094595  0  1.033811  0
H  H109  1  0.20403679  0.10399914  0.94662606  1  0.142497  0  0.109799  0.094652  0  1.033823  0
H  H110  1  0.70403588  0.39599970  0.44662410  1  0.142113  0  0.109775  0.094627  0  1.033811  0
H  H111  1  0.79596942  0.89599940  0.05337344  1  0.142424  0  0.109775  0.094573  0  1.033849  0
H  H112  1  0.18780984  0.04784682  0.23883759  1  0.056334  0  0.096669  0.082771  0  1.024393  0
H  H113  1  0.31218539  0.54784384  0.26116120  1  0.055968  0  0.096689  0.082764  0  1.024308  0
H  H114  1  0.81218516  0.95215243  0.76115959  1  0.056094  0  0.096698  0.0828  0  1.024358  0
H  H115  1  0.68781198  0.45215899  0.73883972  1  0.056314  0  0.096692  0.082781  0  1.024351  0
H  H116  1  0.26498171  0.14642332  0.21881851  1  0.051254  0  0.091715  0.081405  0  1.020018  0
H  H117  1  0.23501540  0.64642631  0.28117992  1  0.051429  0  0.091682  0.081344  0  1.020013  0
H  H118  1  0.73501489  0.85357451  0.78118014  1  0.051432  0  0.09169  0.081362  0  1.020013  0
H  H119  1  0.76498437  0.35357723  0.71882165  1  0.051264  0  0.091712  0.081418  0  1.020027  0
H  H120  1  0.51509575  0.67944277  0.24741028  1  0.110236  0  0.113301  0.081439  0  1.045225  0
H  H121  1  0.98490988  0.17944165  0.25259189  1  0.110368  0  0.113271  0.08137  0  1.045221  0
H  H122  1  0.48490723  0.32055720  0.75259158  1  0.110314  0  0.113284  0.081396  0  1.045261  0
H  H123  1  0.01508913  0.82055831  0.74740653  1  0.110069  0  0.113251  0.081329  0  1.045202  0
C  C124  1  0.16165773  0.95034147  0.13605091  1  0.255146  0  -0.069187  -0.034835  0  3.938495  0
C  C125  1  0.33834252  0.45034498  0.36395019  1  0.255128  0  -0.069236  -0.034932  0  3.938417  0
C  C126  1  0.83834047  0.04965421  0.86394789  1  0.254931  0  -0.069213  -0.034798  0  3.938445  0
C  C127  1  0.66166130  0.54965427  0.63604866  1  0.255122  0  -0.069206  -0.034983  0  3.938486  0
C  C128  1  0.30211174  0.72119601  0.15245149  1  0.371255  0  0.059844  0.078509  0  4.112315  0
C  C129  1  0.19789538  0.22119442  0.34754865  1  0.371647  0  0.059911  0.078455  0  4.112252  0
C  C130  1  0.69788965  0.27880182  0.84754891  1  0.371563  0  0.059851  0.07857  0  4.112227  0
C  C131  1  0.80210443  0.77880412  0.65244984  1  0.371602  0  0.059889  0.078495  0  4.112336  0
C  C132  1  0.90735960  0.39511144  0.37593650  1  0.995005  0  0.134838  0.158261  0  3.930335  0
C  C133  1  0.59263685  0.89511038  0.12406424  1  0.995107  0  0.134778  0.158152  0  3.930241  0
C  C134  1  0.09264184  0.60488924  0.62405949  1  0.995014  0  0.134891  0.158437  0  3.930185  0
C  C135  1  0.40736131  0.10488888  0.87593852  1  0.995016  0  0.134819  0.158218  0  3.930212  0
C  C136  1  0.13694317  0.70646907  0.45815603  1  0.433085  0  0.018102  -0.0339  0  3.899905  0
C  C137  1  0.36305758  0.20647180  0.04184621  1  0.433116  0  0.018098  -0.033775  0  3.899554  0
C  C138  1  0.86305821  0.29353375  0.54184525  1  0.433198  0  0.018103  -0.03381  0  3.899925  0
C  C139  1  0.63694460  0.79353174  0.95815515  1  0.433277  0  0.018045  -0.033938  0  3.899833  0
C  C140  1  0.02791527  0.60746127  0.40505773  1  0.961777  0  0.132383  0.157309  0  3.924725  0
C  C141  1  0.47208604  0.10745985  0.09494332  1  0.961663  0  0.132402  0.157322  0  3.924769  0
C  C142  1  0.97208934  0.39254156  0.59494163  1  0.961569  0  0.13239  0.157294  0  3.924897  0
C  C143  1  0.52791453  0.89253868  0.90505877  1  0.961787  0  0.132424  0.157424  0  3.924755  0
C  C144  1  0.15911422  0.61433290  0.47948627  1  0.307356  0  0.05989  0.072476  0  4.110964  0
C  C145  1  0.34088625  0.11433363  0.02051513  1  0.307419  0  0.059938  0.072464  0  4.110926  0
C  C146  1  0.84089119  0.38566849  0.52051404  1  0.307206  0  0.059937  0.07254  0  4.111125  0
C  C147  1  0.65911754  0.88566634  0.97948592  1  0.306982  0  0.059915  0.072521  0  4.110986  0
C  C148  1  0.59390243  0.85939942  0.27799264  1  0.930817  0  0.122359  0.156831  0  3.943293  0
C  C149  1  0.90609021  0.35940084  0.22200779  1  0.930875  0  0.122234  0.156591  0  3.943279  0
C  C150  1  0.40609332  0.14060055  0.72201035  1  0.93091  0  0.122271  0.156595  0  3.943353  0
C  C151  1  0.09390881  0.64059984  0.77798975  1  0.930928  0  0.12229  0.15662  0  3.943272  0
C  C152  1  0.22587925  0.25724209  0.53463146  1  0.294367  0  -0.066663  -0.031437  0  3.920696  0
C  C153  1  0.27412065  0.75724236  0.96536834  1  0.294374  0  -0.066636  -0.0314  0  3.920668  0
C  C154  1  0.77412218  0.74275788  0.46536585  1  0.294402  0  -0.066559  -0.031271  0  3.920573  0
C  C155  1  0.72587751  0.24275832  0.03463398  1  0.294428  0  -0.066564  -0.031288  0  3.920541  0
C  C156  1  0.22641711  0.79198554  0.12968825  1  0.57663  0  0.063345  0.039745  0  3.946881  0
C  C157  1  0.27358638  0.29198788  0.37031504  1  0.576272  0  0.063368  0.03986  0  3.946982  0
C  C158  1  0.77358429  0.20800871  0.87031127  1  0.576403  0  0.06338  0.039749  0  3.946884  0
C  C159  1  0.72641260  0.70801280  0.62968603  1  0.576262  0  0.063369  0.039895  0  3.94689  0
C  C160  1  0.29675049  0.41903442  0.56644755  1  0.304938  0  -0.069582  -0.032203  0  3.93472  0
C  C161  1  0.20325175  0.91903791  0.93355099  1  0.30484  0  -0.069536  -0.032105  0  3.93466  0
C  C162  1  0.70325495  0.58096341  0.43354879  1  0.305036  0  -0.069522  -0.032157  0  3.934862  0
C  C163  1  0.79674883  0.08096206  0.06645066  1  0.304898  0  -0.069486  -0.032035  0  3.934759  0
C  C164  1  0.51513178  0.99687510  0.28333062  1  0.349469  0  0.051831  0.070315  0  4.097768  0
C  C165  1  0.98486492  0.49687264  0.21666961  1  0.349564  0  0.051854  0.070377  0  4.097766  0
C  C166  1  0.48486558  0.00312559  0.71667075  1  0.349207  0  0.051883  0.070411  0  4.09762  0
C  C167  1  0.01513568  0.50312733  0.78332984  1  0.349629  0  0.051861  0.070395  0  4.097725  0
C  C168  1  0.07330800  0.23179755  0.46085768  1  0.595245  0  0.072209  0.054344  0  3.931205  0
C  C169  1  0.42669264  0.73179461  0.03914275  1  0.595171  0  0.072184  0.054259  0  3.931095  0
C  C170  1  0.92669019  0.76820456  0.53914155  1  0.595085  0  0.072104  0.054288  0  3.931159  0
C  C171  1  0.57330714  0.26820322  0.96085838  1  0.59513  0  0.072161  0.054303  0  3.931244  0
C  C172  1  0.32394944  0.32154285  0.54356382  1  -0.009061  0  -0.15928  -0.185848  0  3.952525  0
C  C173  1  0.17605172  0.82154497  0.95643560  1  -0.008938  0  -0.159297  -0.185884  0  3.952553  0
C  C174  1  0.67605360  0.67845640  0.45643276  1  -0.008957  0  -0.159301  -0.185845  0  3.952494  0
C  C175  1  0.82394644  0.17845571  0.04356716  1  -0.008937  0  -0.159307  -0.185906  0  3.952525  0
C  C176  1  0.32143582  0.62485810  0.14344273  1  0.414873  0  0.01106  -0.048663  0  3.922076  0
C  C177  1  0.17857422  0.12485443  0.35655819  1  0.414528  0  0.01116  -0.048375  0  3.921969  0
C  C178  1  0.67856957  0.37514115  0.85655891  1  0.414711  0  0.0112  -0.048357  0  3.921919  0
C  C179  1  0.82142478  0.87514482  0.64344111  1  0.414515  0  0.011183  -0.048417  0  3.922013  0
C  C180  1  0.62036253  0.00459518  0.31202011  1  0.457526  0  0.003793  -0.03153  0  3.916209  0
C  C181  1  0.87963526  0.50459637  0.18797843  1  0.457233  0  0.003729  -0.031688  0  3.916345  0
C  C182  1  0.37963807  0.99540621  0.68797933  1  0.457249  0  0.003762  -0.031644  0  3.916105  0
C  C183  1  0.12036371  0.49540574  0.81202308  1  0.458828  0  0.003761  -0.031665  0  3.916218  0
C  C184  1  0.98957804  0.27142611  0.41942168  1  0.366567  0  0.061749  0.081212  0  4.100056  0
C  C185  1  0.51041989  0.77142406  0.08057841  1  0.366542  0  0.061813  0.081324  0  4.099951  0
C  C186  1  0.01042178  0.72857457  0.58057593  1  0.366565  0  0.061863  0.08127  0  4.099952  0
C  C187  1  0.48957906  0.22857377  0.91942486  1  0.366567  0  0.061841  0.081341  0  4.100031  0
C  C188  1  0.20490889  0.05123503  0.14579875  1  0.033003  0  -0.163408  -0.183396  0  3.931229  0
C  C189  1  0.29509113  0.55123833  0.35420134  1  0.03322  0  -0.163394  -0.183295  0  3.931085  0
C  C190  1  0.79508771  0.94876136  0.85419989  1  0.032813  0  -0.163369  -0.183354  0  3.931094  0
C  C191  1  0.70491266  0.44876164  0.64580015  1  0.032922  0  -0.163373  -0.183271  0  3.931251  0
C  C192  1  0.89867218  0.23973375  0.38220304  1  0.438542  0  0.013081  -0.032784  0  3.89506  0
C  C193  1  0.60132752  0.73973267  0.11779724  1  0.438565  0  0.013046  -0.032974  0  3.895053  0
C  C194  1  0.10133086  0.76026979  0.61779310  1  0.438534  0  0.013065  -0.03295  0  3.894972  0
C  C195  1  0.39866901  0.26026587  0.88220714  1  0.438532  0  0.013028  -0.032971  0  3.894976  0
C  C196  1  0.42555344  0.05683847  0.26514275  1  0.576807  0  0.067493  0.053894  0  3.916299  0
C  C197  1  0.07444251  0.55683866  0.23485919  1  0.577093  0  0.067517  0.053898  0  3.916262  0
C  C198  1  0.57444230  0.94315935  0.73486024  1  0.577428  0  0.067481  0.05386  0  3.916184  0
C  C199  1  0.92555728  0.44316202  0.76514063  1  0.577435  0  0.06751  0.053825  0  3.916137  0
C  C200  1  0.23417650  0.56683239  0.52240817  1  0.579673  0  0.071813  0.05743  0  3.905306  0
C  C201  1  0.26582764  0.06683308  0.97759129  1  0.5797  0  0.071761  0.057325  0  3.905387  0
C  C202  1  0.76582814  0.43316686  0.47758899  1  0.580083  0  0.071818  0.057433  0  3.905312  0
C  C203  1  0.73417696  0.93316689  0.02240851  1  0.579838  0  0.071824  0.057471  0  3.905299  0
C  C204  1  0.24813213  0.06975924  0.21116210  1  0.306606  0  -0.070504  -0.031679  0  3.901073  0
C  C205  1  0.25186539  0.56976072  0.28883731  1  0.306807  0  -0.070466  -0.031545  0  3.900948  0
C  C206  1  0.75186607  0.93023930  0.78883625  1  0.306925  0  -0.070537  -0.03167  0  3.901106  0
C  C207  1  0.74813278  0.43024139  0.71116456  1  0.306881  0  -0.070594  -0.031817  0  3.901268  0
C  C208  1  0.44544444  0.67939009  0.21288731  1  0.955763  0  0.130307  0.154536  0  3.92452  0
C  C209  1  0.05455885  0.17938922  0.28711738  1  0.955367  0  0.130468  0.154865  0  3.924466  0
C  C210  1  0.55455774  0.32061202  0.78711492  1  0.955328  0  0.130388  0.154792  0  3.924503  0
C  C211  1  0.94544014  0.82061218  0.71288236  1  0.955703  0  0.130482  0.154902  0  3.924465  0
I  I212  1  0.32804953  0.34303857  0.19859806  1  -0.361853  0  -0.142078  -0.228416  0  2.042072  0
I  I213  1  0.17195451  0.84303749  0.30140214  1  -0.361887  0  -0.142032  -0.22837  0  2.041962  0
I  I214  1  0.67195346  0.65696069  0.80140248  1  -0.361887  0  -0.142061  -0.228416  0  2.04196  0
I  I215  1  0.82804608  0.15696319  0.69859730  1  -0.361879  0  -0.142048  -0.228377  0  2.041928  0
I  I216  1  0.66862057  0.20605952  0.21124667  1  -0.363854  0  -0.130281  -0.232879  0  2.296791  0
I  I217  1  0.83138170  0.70605782  0.28875563  1  -0.363834  0  -0.130295  -0.2329  0  2.296694  0
I  I218  1  0.33138161  0.79394259  0.78875468  1  -0.363879  0  -0.130272  -0.232885  0  2.29672  0
I  I219  1  0.16861889  0.29394215  0.71124514  1  -0.363868  0  -0.130288  -0.232891  0  2.296691  0
I  I220  1  0.63355973  0.50101219  0.28313138  1  -0.369581  0  -0.14446  -0.240877  0  2.303177  0
I  I221  1  0.86644289  0.00100950  0.21686715  1  -0.369521  0  -0.14447  -0.240863  0  2.30325  0
I  I222  1  0.36644169  0.49898992  0.71686637  1  -0.369548  0  -0.144484  -0.240896  0  2.303186  0
I  I223  1  0.13355770  0.99899190  0.78313274  1  -0.369513  0  -0.14447  -0.240875  0  2.303278  0
I  I224  1  0.56360531  0.45613318  0.08381334  1  -0.401361  0  -0.187357  -0.277185  0  1.95985  0
I  I225  1  0.93639401  0.95613504  0.41618760  1  -0.40111  0  -0.18735  -0.277199  0  1.959861  0
I  I226  1  0.43639368  0.54386679  0.91618641  1  -0.401252  0  -0.187375  -0.277213  0  1.959879  0
I  I227  1  0.06360496  0.04386635  0.58381435  1  -0.401268  0  -0.187358  -0.27717  0  1.959919  0
I  I228  1  0.55540756  0.25910962  0.37009310  1  -0.49229  0  -0.245096  -0.386424  0  1.682162  0
I  I229  1  0.94459127  0.75910496  0.12990355  1  -0.492263  0  -0.245107  -0.386432  0  1.681952  0
I  I230  1  0.44459386  0.74089249  0.62990465  1  -0.492248  0  -0.245108  -0.386435  0  1.682111  0
I  I231  1  0.05540692  0.24089357  0.87009568  1  -0.492269  0  -0.245098  -0.386411  0  1.681974  0
N  N232  1  0.14030046  0.29343313  0.48940445  1  -1.144989  0  -0.361866  -0.177385  0  3.562407  0
N  N233  1  0.35969905  0.79343196  0.01059540  1  -1.144902  0  -0.361851  -0.177364  0  3.562248  0
N  N234  1  0.85969854  0.70656826  0.51059442  1  -1.144852  0  -0.361893  -0.177493  0  3.562318  0
N  N235  1  0.64030152  0.20656801  0.98940670  1  -1.144879  0  -0.361874  -0.177485  0  3.562213  0
N  N236  1  0.24197118  0.87652096  0.15395099  1  -1.143005  0  -0.357044  -0.169877  0  3.586702  0
N  N237  1  0.25802947  0.37652056  0.34605020  1  -1.142733  0  -0.357039  -0.169965  0  3.58673  0
N  N238  1  0.75802781  0.12347543  0.84604875  1  -1.142846  0  -0.357118  -0.170083  0  3.586885  0
N  N239  1  0.74197276  0.62347655  0.65394762  1  -1.142771  0  -0.357047  -0.169959  0  3.586659  0
N  N240  1  0.38196800  0.75465781  0.19677264  1  -1.170365  0  -0.369173  -0.26067  0  3.634371  0
N  N241  1  0.11803407  0.25465808  0.30323232  1  -1.170526  0  -0.36928  -0.260905  0  3.634631  0
N  N242  1  0.61803176  0.24534215  0.80322982  1  -1.17051  0  -0.369164  -0.260824  0  3.634523  0
N  N243  1  0.88196492  0.74534260  0.69676743  1  -1.170487  0  -0.36925  -0.260956  0  3.634706  0
N  N244  1  0.66932436  0.91809189  0.30804312  1  -1.205625  0  -0.396562  -0.24686  0  3.615931  0
N  N245  1  0.83067196  0.41809440  0.19195714  1  -1.205567  0  -0.396504  -0.246726  0  3.615975  0
N  N246  1  0.33067382  0.08190808  0.69195743  1  -1.205543  0  -0.396505  -0.246709  0  3.615754  0
N  N247  1  0.16932703  0.58190771  0.80804216  1  -1.206058  0  -0.396515  -0.24671  0  3.615905  0
N  N248  1  0.22529632  0.47357193  0.52237227  1  -1.150658  0  -0.363678  -0.175832  0  3.579926  0
N  N249  1  0.27470642  0.97357431  0.97762672  1  -1.150664  0  -0.363714  -0.175862  0  3.579998  0
N  N250  1  0.77470833  0.52642661  0.47762401  1  -1.150662  0  -0.363709  -0.175944  0  3.580087  0
N  N251  1  0.72529575  0.02642851  0.02237507  1  -1.150667  0  -0.363739  -0.175967  0  3.580071  0
N  N252  1  0.49962090  0.90342609  0.26230860  1  -1.168382  0  -0.373501  -0.2671  0  3.635512  0
N  N253  1  0.00037316  0.40342484  0.23769464  1  -1.168514  0  -0.373484  -0.267098  0  3.635402  0
N  N254  1  0.50037566  0.09657531  0.73769358  1  -1.168638  0  -0.373535  -0.267164  0  3.635571  0
N  N255  1  0.99962583  0.59657513  0.76230511  1  -1.168543  0  -0.37353  -0.267179  0  3.635477  0
N  N256  1  0.05454189  0.70121458  0.41139481  1  -1.182811  0  -0.390665  -0.229113  0  3.626489  0
N  N257  1  0.44546210  0.20121329  0.08860728  1  -1.182834  0  -0.390627  -0.2291  0  3.626366  0
N  N258  1  0.94545948  0.29878753  0.58860691  1  -1.182765  0  -0.390613  -0.229121  0  3.626485  0
N  N259  1  0.55454087  0.79878596  0.91139547  1  -1.182799  0  -0.390618  -0.229099  0  3.626449  0
N  N260  1  0.99419785  0.37046492  0.41480973  1  -1.195353  0  -0.367622  -0.274616  0  3.639513  0
N  N261  1  0.50580034  0.87046430  0.08519029  1  -1.195374  0  -0.367591  -0.274492  0  3.639273  0
N  N262  1  0.00580277  0.62953576  0.58518751  1  -1.19533  0  -0.367663  -0.274626  0  3.639403  0
N  N263  1  0.49419943  0.12953353  0.91481173  1  -1.19537  0  -0.367617  -0.274597  0  3.639329  0
N  N264  1  0.41170878  0.59940294  0.18161152  1  -1.20754  0  -0.393406  -0.244765  0  3.65629  0
N  N265  1  0.08829896  0.09940186  0.31839186  1  -1.207056  0  -0.393563  -0.245171  0  3.65652  0
N  N266  1  0.58829740  0.40059846  0.81839107  1  -1.20706  0  -0.393589  -0.245191  0  3.656456  0
N  N267  1  0.91169843  0.90059882  0.68160774  1  -1.207061  0  -0.393565  -0.245154  0  3.656561  0
N  N268  1  0.34578611  0.01608177  0.23065888  1  -1.147154  0  -0.360563  -0.160816  0  3.59399  0
N  N269  1  0.15421169  0.51608155  0.26934149  1  -1.147442  0  -0.360591  -0.160949  0  3.594098  0
N  N270  1  0.65421207  0.98391748  0.76934212  1  -1.147401  0  -0.360581  -0.160982  0  3.594091  0
N  N271  1  0.84578730  0.48392056  0.73065825  1  -1.147461  0  -0.360548  -0.160792  0  3.593945  0
N  N272  1  0.84730305  0.31813815  0.35523171  1  -1.219456  0  -0.397082  -0.254045  0  3.67733  0
N  N273  1  0.65269543  0.81813751  0.14476839  1  -1.219359  0  -0.397063  -0.253932  0  3.677126  0
N  N274  1  0.15269838  0.68186396  0.64476516  1  -1.21932  0  -0.397126  -0.254056  0  3.677044  0
N  N275  1  0.34730434  0.18186103  0.85523319  1  -1.219383  0  -0.397087  -0.253996  0  3.677159  0
N  N276  1  0.08820464  0.55224944  0.44528266  1  -1.186458  0  -0.372454  -0.280895  0  3.674507  0
N  N277  1  0.41179617  0.05224908  0.05471750  1  -1.186481  0  -0.372514  -0.281017  0  3.674631  0
N  N278  1  0.91180078  0.44775267  0.55471633  1  -1.186386  0  -0.37254  -0.281067  0  3.674775  0
N  N279  1  0.58820441  0.94775017  0.94528371  1  -1.186469  0  -0.372454  -0.280985  0  3.674667  0
