# generated using pymatgen
data_ErH16C18N3O8
_symmetry_space_group_name_H-M   'P 1'
_cell_length_a   9.55764921
_cell_length_b   11.76102590
_cell_length_c   11.76730120
_cell_angle_alpha   119.98138832
_cell_angle_beta   112.59035265
_cell_angle_gamma   90.00300124
_symmetry_Int_Tables_number   1
_chemical_formula_structural   ErH16C18N3O8
_chemical_formula_sum   'Er2 H32 C36 N6 O16'
_cell_volume   1026.88765778
_cell_formula_units_Z   2
loop_
 _symmetry_equiv_pos_site_id
 _symmetry_equiv_pos_as_xyz
  1  'x, y, z'
loop_
 _atom_site_type_symbol
 _atom_site_label
 _atom_site_symmetry_multiplicity
 _atom_site_fract_x
 _atom_site_fract_y
 _atom_site_fract_z
 _atom_site_occupancy
 _atom_site_hle17_bader_spin_density
 _atom_site_hle17_ddec_charge
 _atom_site_hle17_ddec_spin_density
 _atom_site_hle17_ddec_sum_bond_order
 _atom_site_hle17_magmom
 _atom_site_hse06_10hf_bader_spin_density
 _atom_site_hse06_10hf_ddec_charge
 _atom_site_hse06_10hf_ddec_spin_density
 _atom_site_hse06_10hf_ddec_sum_bond_order
 _atom_site_hse06_10hf_magmom
 _atom_site_hse06_bader_spin_density
 _atom_site_hse06_ddec_charge
 _atom_site_hse06_ddec_spin_density
 _atom_site_hse06_ddec_sum_bond_order
 _atom_site_hse06_magmom
 _atom_site_pbe_bader_spin_density
 _atom_site_pbe_cm5_charge
 _atom_site_pbe_ddec_charge
 _atom_site_pbe_ddec_spin_density
 _atom_site_pbe_ddec_sum_bond_order
 _atom_site_pbe_magmom
Er  Er0  1  0.75000081  0.50404212  0.00000578  1  0  2.315998  0  1.596861  0  0  2.255396  0  1.916884  0  0  2.303541  0  1.873859  0  0  1.51354  2.138088  0  2.100692  0
Er  Er1  1  0.25000200  0.49594879  0.99999489  1  0  2.315975  0  1.597015  0  0  2.255416  0  1.916999  0  0  2.303537  0  1.874007  0  0  1.51347  2.138041  0  2.100894  0
H  H2  1  0.49897706  0.63134614  0.92786981  1  0  0.445296  0  0.851603  0  0  0.41533  0  0.914377  0  0  0.426071  0  0.898421  0  0  0.303743  0.407468  0  0.925711  0
H  H3  1  0.00104976  0.70347303  0.07212563  1  0  0.445601  0  0.851184  0  0  0.415626  0  0.913972  0  0  0.426372  0  0.89801  0  0  0.30388  0.407766  0  0.925305  0
H  H4  1  0.50102224  0.36863563  0.07211247  1  0  0.445341  0  0.851531  0  0  0.415389  0  0.914278  0  0  0.426125  0  0.898329  0  0  0.303755  0.407526  0  0.925611  0
H  H5  1  0.99895534  0.29651789  0.92786982  1  0  0.445426  0  0.851385  0  0  0.415442  0  0.914204  0  0  0.426175  0  0.898257  0  0  0.303796  0.407577  0  0.925543  0
H  H6  1  0.55272232  0.60963157  0.80983427  1  0  0.411507  0  0.897485  0  0  0.370779  0  0.978039  0  0  0.382144  0  0.961607  0  0  0.289464  0.362222  0  0.990224  0
H  H7  1  0.94730303  0.79980049  0.19015079  1  0  0.411579  0  0.897446  0  0  0.370841  0  0.978018  0  0  0.38221  0  0.961583  0  0  0.289503  0.362282  0  0.990208  0
H  H8  1  0.44731321  0.39037576  0.19017549  1  0  0.411474  0  0.897559  0  0  0.370716  0  0.978153  0  0  0.382085  0  0.961719  0  0  0.289482  0.362156  0  0.990343  0
H  H9  1  0.05268275  0.20019423  0.80982093  1  0  0.411488  0  0.897557  0  0  0.370725  0  0.978166  0  0  0.382084  0  0.961747  0  0  0.289439  0.362163  0  0.990354  0
H  H10  1  0.59627935  0.71275494  0.63914690  1  0  0.065755  0  0.948236  0  0  0.073195  0  1.014472  0  0  0.075316  0  1.013627  0  0  0.110161  0.071746  0  1.01494  0
H  H11  1  0.90375544  0.07358282  0.36081406  1  0  0.065681  0  0.948176  0  0  0.073067  0  1.014471  0  0  0.075184  0  1.013629  0  0  0.110126  0.071619  0  1.014939  0
H  H12  1  0.40374737  0.28724411  0.36080669  1  0  0.065709  0  0.94814  0  0  0.073126  0  1.014382  0  0  0.075243  0  1.013542  0  0  0.110128  0.071679  0  1.014846  0
H  H13  1  0.09625535  0.92642928  0.63917586  1  0  0.065669  0  0.948229  0  0  0.07311  0  1.014472  0  0  0.075232  0  1.013623  0  0  0.110154  0.071663  0  1.014933  0
H  H14  1  0.40869563  0.67583638  0.39741086  1  0  0.124591  0  0.963418  0  0  0.130695  0  1.028472  0  0  0.134915  0  1.02621  0  0  0.112855  0.127694  0  1.030115  0
H  H15  1  0.09130725  0.27840088  0.60256498  1  0  0.124578  0  0.963639  0  0  0.130736  0  1.028552  0  0  0.134948  0  1.026302  0  0  0.112853  0.127748  0  1.030196  0
H  H16  1  0.59129788  0.32415737  0.60255176  1  0  0.124615  0  0.963633  0  0  0.13074  0  1.028599  0  0  0.134947  0  1.02636  0  0  0.11287  0.127749  0  1.030246  0
H  H17  1  0.90869600  0.72160010  0.39743234  1  0  0.124613  0  0.963654  0  0  0.13073  0  1.02862  0  0  0.134931  0  1.026388  0  0  0.112871  0.127738  0  1.030273  0
H  H18  1  0.05249601  0.46674253  0.41243008  1  0  0.109815  0  0.951493  0  0  0.11949  0  1.011659  0  0  0.122782  0  1.010717  0  0  0.109058  0.117003  0  1.012743  0
H  H19  1  0.44752109  0.05432388  0.58760617  1  0  0.109729  0  0.951484  0  0  0.11943  0  1.011622  0  0  0.122727  0  1.010674  0  0  0.109045  0.116948  0  1.012696  0
H  H20  1  0.94753884  0.53328802  0.58760121  1  0  0.109883  0  0.951248  0  0  0.119578  0  1.011395  0  0  0.122871  0  1.010451  0  0  0.109094  0.117089  0  1.012488  0
H  H21  1  0.55247335  0.94567403  0.41240385  1  0  0.109776  0  0.951387  0  0  0.119467  0  1.01154  0  0  0.122761  0  1.010596  0  0  0.109049  0.11698  0  1.012623  0
H  H22  1  0.25744720  0.50468237  0.64990697  1  0  0.09207  0  0.927861  0  0  0.100285  0  0.989608  0  0  0.103276  0  0.987512  0  0  0.120308  0.097805  0  0.991847  0
H  H23  1  0.24258476  0.85476968  0.35010177  1  0  0.092006  0  0.927847  0  0  0.100229  0  0.989611  0  0  0.103218  0  0.987518  0  0  0.120285  0.097742  0  0.991851  0
H  H24  1  0.74260890  0.49535540  0.35011758  1  0  0.092094  0  0.927999  0  0  0.100305  0  0.989766  0  0  0.103289  0  0.987676  0  0  0.120332  0.097802  0  0.992029  0
H  H25  1  0.75741429  0.14522821  0.64988674  1  0  0.092007  0  0.927849  0  0  0.100228  0  0.989602  0  0  0.103216  0  0.987509  0  0  0.120268  0.097743  0  0.991845  0
H  H26  1  0.64914856  0.97832565  0.14219347  1  0  0.068077  0  0.923793  0  0  0.078695  0  0.979925  0  0  0.081736  0  0.978105  0  0  0.109486  0.07654  0  0.98126  0
H  H27  1  0.85076972  0.83614396  0.85789759  1  0  0.068026  0  0.923579  0  0  0.078487  0  0.979851  0  0  0.08152  0  0.978045  0  0  0.109326  0.076333  0  0.981178  0
H  H28  1  0.35079537  0.02168293  0.85782552  1  0  0.068079  0  0.923919  0  0  0.078566  0  0.980163  0  0  0.081601  0  0.978351  0  0  0.10942  0.07641  0  0.981495  0
H  H29  1  0.14917105  0.16383130  0.14210131  1  0  0.068015  0  0.92364  0  0  0.078435  0  0.979981  0  0  0.081475  0  0.978161  0  0  0.1093  0.076282  0  0.981315  0
H  H30  1  0.64346009  0.19469927  0.14760708  1  0  0.111984  0  0.963268  0  0  0.117432  0  1.030051  0  0  0.120745  0  1.029451  0  0  0.106184  0.114899  0  1.030966  0
H  H31  1  0.85652257  0.04708370  0.85245007  1  0  0.111988  0  0.963307  0  0  0.117411  0  1.030097  0  0  0.120746  0  1.029488  0  0  0.10606  0.114865  0  1.031005  0
H  H32  1  0.35653028  0.80532181  0.85241657  1  0  0.112112  0  0.963226  0  0  0.117545  0  1.030042  0  0  0.120864  0  1.02943  0  0  0.10618  0.115003  0  1.03095  0
H  H33  1  0.14346098  0.95289902  0.14756598  1  0  0.112091  0  0.963055  0  0  0.117511  0  1.029876  0  0  0.120831  0  1.029271  0  0  0.106117  0.114967  0  1.030786  0
C  C34  1  0.47469273  0.65811196  0.58506119  1  0  0.115929  0  3.744553  0  0  0.08654  0  4.003501  0  0  0.091326  0  4.022185  0  0  0.043756  0.0836  0  3.990632  0
C  C35  1  0.02533693  0.07303629  0.41491753  1  0  0.116166  0  3.744608  0  0  0.086805  0  4.003536  0  0  0.091598  0  4.022216  0  0  0.043765  0.083862  0  3.990674  0
C  C36  1  0.52533823  0.34188616  0.41490772  1  0  0.115871  0  3.744682  0  0  0.086514  0  4.003661  0  0  0.091307  0  4.022343  0  0  0.043702  0.083576  0  3.990793  0
C  C37  1  0.97466967  0.92696875  0.58508200  1  0  0.116091  0  3.744569  0  0  0.086654  0  4.003549  0  0  0.091445  0  4.022225  0  0  0.043768  0.083714  0  3.990678  0
C  C38  1  0.37068311  0.63949578  0.45239407  1  0  -0.127691  0  3.701258  0  0  -0.148655  0  3.946466  0  0  -0.15383  0  3.967081  0  0  -0.07759  -0.145334  0  3.933259  0
C  C39  1  0.12933761  0.18709345  0.54759342  1  0  -0.128162  0  3.701656  0  0  -0.149043  0  3.946823  0  0  -0.154208  0  3.967431  0  0  -0.077723  -0.145737  0  3.933631  0
C  C40  1  0.62932993  0.36049920  0.54758804  1  0  -0.127934  0  3.701564  0  0  -0.148874  0  3.946641  0  0  -0.154043  0  3.967264  0  0  -0.077669  -0.145567  0  3.933455  0
C  C41  1  0.87066905  0.81290755  0.45240158  1  0  -0.128067  0  3.701715  0  0  -0.148966  0  3.946862  0  0  -0.154133  0  3.967485  0  0  -0.077743  -0.145665  0  3.933677  0
C  C42  1  0.21577314  0.57019297  0.38879605  1  0  -0.006358  0  3.716191  0  0  0.014189  0  3.939491  0  0  0.011288  0  3.960212  0  0  0.00644  0.01528  0  3.92774  0
C  C43  1  0.28424599  0.18140002  0.61121800  1  0  -0.006215  0  3.716017  0  0  0.014188  0  3.939559  0  0  0.011278  0  3.960283  0  0  0.006562  0.015274  0  3.92782  0
C  C44  1  0.78423921  0.42982524  0.61121269  1  0  -0.006372  0  3.71611  0  0  0.014302  0  3.939291  0  0  0.011387  0  3.960014  0  0  0.006587  0.01539  0  3.927552  0
C  C45  1  0.71576401  0.81860506  0.38878432  1  0  -0.006277  0  3.71604  0  0  0.014349  0  3.939332  0  0  0.011452  0  3.960058  0  0  0.006628  0.015448  0  3.927589  0
C  C46  1  0.17252431  0.52128657  0.46021447  1  0  -0.140113  0  3.736383  0  0  -0.160467  0  3.980412  0  0  -0.165764  0  4.001725  0  0  -0.083933  -0.15723  0  3.966718  0
C  C47  1  0.32749342  0.06107576  0.53980325  1  0  -0.140143  0  3.736341  0  0  -0.160482  0  3.980447  0  0  -0.165776  0  4.001761  0  0  -0.083998  -0.157246  0  3.966752  0
C  C48  1  0.82750395  0.47873179  0.53979764  1  0  -0.140274  0  3.736262  0  0  -0.160672  0  3.980288  0  0  -0.165967  0  4.001605  0  0  -0.084052  -0.157439  0  3.966605  0
C  C49  1  0.67250753  0.93892522  0.46020184  1  0  -0.140203  0  3.736249  0  0  -0.160587  0  3.980291  0  0  -0.165889  0  4.00161  0  0  -0.084003  -0.157354  0  3.966604  0
C  C50  1  0.28560469  0.54184457  0.59077542  1  0  0.105583  0  3.724706  0  0  0.07799  0  3.982013  0  0  0.082712  0  3.999529  0  0  0.043485  0.074879  0  3.970584  0
C  C51  1  0.21442218  0.95106738  0.40923747  1  0  0.105717  0  3.72447  0  0  0.078119  0  3.981764  0  0  0.082844  0  3.999291  0  0  0.043493  0.075013  0  3.970331  0
C  C52  1  0.71444004  0.45817594  0.40923358  1  0  0.105538  0  3.724694  0  0  0.077955  0  3.982008  0  0  0.082678  0  3.999534  0  0  0.043444  0.07486  0  3.97058  0
C  C53  1  0.78557990  0.04893362  0.59076968  1  0  0.105783  0  3.724434  0  0  0.078186  0  3.98173  0  0  0.082909  0  3.99925  0  0  0.043529  0.075076  0  3.970298  0
C  C54  1  0.09871112  0.54654799  0.24492767  1  0  0.710441  0  3.868295  0  0  0.667392  0  4.156388  0  0  0.702634  0  4.143788  0  0  0.234035  0.642391  0  4.159885  0
C  C55  1  0.40130037  0.30162816  0.75508448  1  0  0.710863  0  3.867853  0  0  0.667709  0  4.156158  0  0  0.702954  0  4.14355  0  0  0.234144  0.642706  0  4.15967  0
C  C56  1  0.90128534  0.45344892  0.75507824  1  0  0.710802  0  3.867501  0  0  0.667571  0  4.155814  0  0  0.70284  0  4.143194  0  0  0.234055  0.642583  0  4.159308  0
C  C57  1  0.59871350  0.69836585  0.24491102  1  0  0.710921  0  3.867504  0  0  0.667605  0  4.156004  0  0  0.702846  0  4.143403  0  0  0.23411  0.642596  0  4.159504  0
C  C58  1  0.69484863  0.99736902  0.07946415  1  0  0.097758  0  3.768733  0  0  0.076644  0  4.03187  0  0  0.079515  0  4.04973  0  0  0.040295  0.074739  0  4.019821  0
C  C59  1  0.80506480  0.91791710  0.92060357  1  0  0.097615  0  3.769175  0  0  0.07672  0  4.032141  0  0  0.079587  0  4.050019  0  0  0.040473  0.074816  0  4.020077  0
C  C60  1  0.30509265  0.00262942  0.92053622  1  0  0.097697  0  3.769174  0  0  0.076738  0  4.032237  0  0  0.079608  0  4.050089  0  0  0.040503  0.07483  0  4.020178  0
C  C61  1  0.19488268  0.08206627  0.07939467  1  0  0.097723  0  3.769465  0  0  0.076828  0  4.032442  0  0  0.079698  0  4.050304  0  0  0.040531  0.074913  0  4.020385  0
C  C62  1  0.69152945  0.11772625  0.08310052  1  0  -0.133135  0  3.727594  0  0  -0.15504  0  3.973458  0  0  -0.15913  0  3.995109  0  0  -0.083602  -0.152382  0  3.959333  0
C  C63  1  0.80842207  0.03462452  0.91694636  1  0  -0.133389  0  3.726984  0  0  -0.155292  0  3.972761  0  0  -0.159404  0  3.994426  0  0  -0.083846  -0.152603  0  3.958608  0
C  C64  1  0.30843792  0.88227645  0.91690592  1  0  -0.133324  0  3.727488  0  0  -0.155263  0  3.973316  0  0  -0.159348  0  3.994962  0  0  -0.083815  -0.152582  0  3.959172  0
C  C65  1  0.19154578  0.96536309  0.08306379  1  0  -0.133258  0  3.72697  0  0  -0.155163  0  3.972729  0  0  -0.159249  0  3.994376  0  0  -0.083654  -0.152472  0  3.958577  0
C  C66  1  0.74996776  0.13692384  0.00001542  1  0  -0.021168  0  3.748471  0  0  0.000347  0  3.975741  0  0  -0.003994  0  3.99671  0  0  -0.006343  0.002365  0  3.962791  0
C  C67  1  0.25000761  0.86307492  0.99999582  1  0  -0.021392  0  3.748585  0  0  0.000217  0  3.975873  0  0  -0.004153  0  3.996882  0  0  -0.006325  0.002236  0  3.962912  0
C  C68  1  0.75000071  0.26400223  0.00001282  1  0  0.65899  0  3.906697  0  0  0.608686  0  4.203113  0  0  0.642957  0  4.193602  0  0  0.204964  0.586073  0  4.201708  0
C  C69  1  0.25001047  0.73600394  0.00000695  1  0  0.659378  0  3.905897  0  0  0.608896  0  4.202585  0  0  0.643185  0  4.193047  0  0  0.204928  0.586291  0  4.201156  0
N  N70  1  0.43443686  0.60956137  0.65285636  1  0  -0.304487  0  3.164278  0  0  -0.245037  0  3.413936  0  0  -0.257522  0  3.429806  0  0  -0.303379  -0.236987  0  3.403838  0
N  N71  1  0.06559366  0.95669498  0.34713401  1  0  -0.304421  0  3.16419  0  0  -0.244944  0  3.413819  0  0  -0.257435  0  3.429697  0  0  -0.30321  -0.236891  0  3.403719  0
N  N72  1  0.56560838  0.39044800  0.34713028  1  0  -0.304087  0  3.164135  0  0  -0.244655  0  3.413788  0  0  -0.257137  0  3.429655  0  0  -0.303142  -0.2366  0  3.403676  0
N  N73  1  0.93440873  0.04330699  0.65286098  1  0  -0.304381  0  3.164113  0  0  -0.244875  0  3.413755  0  0  -0.257363  0  3.429628  0  0  -0.303261  -0.236821  0  3.403649  0
N  N74  1  0.74994947  0.89844260  0.00003687  1  0  -0.261356  0  3.048789  0  0  -0.228615  0  3.314197  0  0  -0.235899  0  3.328138  0  0  -0.30969  -0.223986  0  3.305234  0
N  N75  1  0.24999063  0.10153870  0.99996567  1  0  -0.261387  0  3.049476  0  0  -0.228685  0  3.31484  0  0  -0.235952  0  3.32877  0  0  -0.309912  -0.224049  0  3.305883  0
O  O76  1  0.15062278  0.53579691  0.15648437  1  0  -0.745429  0  2.088997  0  0  -0.706751  0  2.353877  0  0  -0.732176  0  2.339939  0  0  -0.403703  -0.673619  0  2.363583  0
O  O77  1  0.34937865  0.37931860  0.84351726  1  0  -0.745584  0  2.089  0  0  -0.706885  0  2.353989  0  0  -0.732328  0  2.3401  0  0  -0.403752  -0.673751  0  2.363714  0
O  O78  1  0.84935638  0.46418166  0.84349763  1  0  -0.745455  0  2.08905  0  0  -0.706778  0  2.35414  0  0  -0.732204  0  2.340176  0  0  -0.403661  -0.673672  0  2.363867  0
O  O79  1  0.65063355  0.62069054  0.15649032  1  0  -0.745503  0  2.089336  0  0  -0.706768  0  2.354425  0  0  -0.732188  0  2.340482  0  0  -0.403703  -0.673651  0  2.364142  0
O  O80  1  0.95743013  0.53907730  0.22196189  1  0  -0.702366  0  2.037066  0  0  -0.666485  0  2.281064  0  0  -0.69128  0  2.270766  0  0  -0.357879  -0.639146  0  2.289947  0
O  O81  1  0.54258843  0.31711487  0.77805950  1  0  -0.702469  0  2.036762  0  0  -0.666529  0  2.280813  0  0  -0.691323  0  2.270515  0  0  -0.357914  -0.639186  0  2.289703  0
O  O82  1  0.04258607  0.46092987  0.77804937  1  0  -0.702532  0  2.036286  0  0  -0.666615  0  2.280356  0  0  -0.69142  0  2.27006  0  0  -0.357953  -0.639266  0  2.289252  0
O  O83  1  0.45741149  0.68287805  0.22194636  1  0  -0.702642  0  2.036334  0  0  -0.66665  0  2.280431  0  0  -0.691461  0  2.270145  0  0  -0.358002  -0.639294  0  2.289316  0
O  O84  1  0.67101120  0.34438557  0.05299477  1  0  -0.696452  0  2.06273  0  0  -0.647663  0  2.301019  0  0  -0.673587  0  2.291792  0  0  -0.351798  -0.6217  0  2.307122  0
O  O85  1  0.82899338  0.29138337  0.94702605  1  0  -0.696286  0  2.062917  0  0  -0.647476  0  2.301182  0  0  -0.673402  0  2.291961  0  0  -0.351688  -0.621518  0  2.307288  0
O  O86  1  0.32899989  0.65561956  0.94702237  1  0  -0.696479  0  2.062497  0  0  -0.647626  0  2.300868  0  0  -0.673548  0  2.291642  0  0  -0.351734  -0.621683  0  2.307017  0
O  O87  1  0.17103791  0.70859979  0.05299841  1  0  -0.696568  0  2.062559  0  0  -0.647734  0  2.300945  0  0  -0.673661  0  2.291708  0  0  -0.351787  -0.621803  0  2.307114  0
O  O88  1  0.58183357  0.60224493  0.89693058  1  0  -0.948886  0  1.950215  0  0  -0.91634  0  2.163379  0  0  -0.934338  0  2.128997  0  0  -0.668493  -0.890994  0  2.192917  0
O  O89  1  0.91816978  0.70531470  0.10304261  1  0  -0.949231  0  1.949722  0  0  -0.916708  0  2.16291  0  0  -0.934706  0  2.128521  0  0  -0.668682  -0.89136  0  2.19245  0
O  O90  1  0.41816124  0.39773276  0.10305082  1  0  -0.94898  0  1.950125  0  0  -0.916459  0  2.163376  0  0  -0.934449  0  2.129007  0  0  -0.668595  -0.891105  0  2.192919  0
O  O91  1  0.08182000  0.29467804  0.89693363  1  0  -0.949061  0  1.949995  0  0  -0.916512  0  2.163197  0  0  -0.934501  0  2.128836  0  0  -0.668565  -0.891157  0  2.192753  0
