# generated using pymatgen
data_CdH4C6S3(NO2)2
_symmetry_space_group_name_H-M   'P 1'
_cell_length_a   4.73742847
_cell_length_b   8.18485994
_cell_length_c   25.89599751
_cell_angle_alpha   90.00019007
_cell_angle_beta   89.99971840
_cell_angle_gamma   90.00004931
_symmetry_Int_Tables_number   1
_chemical_formula_structural   CdH4C6S3(NO2)2
_chemical_formula_sum   'Cd4 H16 C24 S12 N8 O16'
_cell_volume   1004.12218607
_cell_formula_units_Z   4
loop_
 _symmetry_equiv_pos_site_id
 _symmetry_equiv_pos_as_xyz
  1  'x, y, z'
loop_
 _atom_site_type_symbol
 _atom_site_label
 _atom_site_symmetry_multiplicity
 _atom_site_fract_x
 _atom_site_fract_y
 _atom_site_fract_z
 _atom_site_occupancy
 _atom_site_hle17_bader_spin_density
 _atom_site_hle17_ddec_charge
 _atom_site_hle17_ddec_spin_density
 _atom_site_hle17_ddec_sum_bond_order
 _atom_site_hle17_magmom
 _atom_site_hse06_10hf_bader_spin_density
 _atom_site_hse06_10hf_ddec_charge
 _atom_site_hse06_10hf_ddec_spin_density
 _atom_site_hse06_10hf_ddec_sum_bond_order
 _atom_site_hse06_10hf_magmom
 _atom_site_hse06_bader_spin_density
 _atom_site_hse06_ddec_charge
 _atom_site_hse06_ddec_spin_density
 _atom_site_hse06_ddec_sum_bond_order
 _atom_site_hse06_magmom
 _atom_site_pbe_bader_spin_density
 _atom_site_pbe_cm5_charge
 _atom_site_pbe_ddec_charge
 _atom_site_pbe_ddec_spin_density
 _atom_site_pbe_ddec_sum_bond_order
 _atom_site_pbe_magmom
Cd  Cd0  1  0.82026549  0.84826672  0.06368483  1  0  1.246029  0  1.53602  0  0  1.059657  0  1.975318  0  0  1.121706  0  1.917754  0  0  0.795825  1.014967  0  2.014963  0
Cd  Cd1  1  0.67973894  0.15173321  0.56368611  1  0  1.246024  0  1.536107  0  0  1.059613  0  1.975418  0  0  1.121666  0  1.917848  0  0  0.795801  1.014937  0  2.01504  0
Cd  Cd2  1  0.17973115  0.34826604  0.43631464  1  0  1.245993  0  1.53604  0  0  1.05962  0  1.975344  0  0  1.121668  0  1.917776  0  0  0.795805  1.014934  0  2.014995  0
Cd  Cd3  1  0.32026082  0.65173505  0.93631401  1  0  1.245999  0  1.536066  0  0  1.059605  0  1.975366  0  0  1.121655  0  1.9178  0  0  0.795807  1.014909  0  2.015013  0
H  H4  1  0.02350245  0.65004258  0.17615729  1  0  0.143538  0  0.959141  0  0  0.149695  0  1.027483  0  0  0.152882  0  1.025711  0  0  0.100263  0.147488  0  1.028777  0
H  H5  1  0.47649019  0.34996316  0.67616122  1  0  0.143389  0  0.959314  0  0  0.149545  0  1.027645  0  0  0.152727  0  1.025878  0  0  0.100232  0.147341  0  1.028942  0
H  H6  1  0.97649177  0.15003989  0.32384197  1  0  0.14349  0  0.959256  0  0  0.149666  0  1.027557  0  0  0.152849  0  1.025787  0  0  0.10026  0.147458  0  1.028851  0
H  H7  1  0.52350566  0.84996026  0.82383989  1  0  0.14343  0  0.959305  0  0  0.1496  0  1.027624  0  0  0.152787  0  1.025858  0  0  0.100255  0.147393  0  1.028921  0
H  H8  1  0.19967168  0.82705371  0.20012124  1  0  0.135119  0  0.930761  0  0  0.144713  0  0.99646  0  0  0.146884  0  0.995588  0  0  0.102392  0.143199  0  0.997224  0
H  H9  1  0.30032453  0.17295227  0.70012360  1  0  0.134973  0  0.930806  0  0  0.144602  0  0.996451  0  0  0.146771  0  0.995576  0  0  0.102367  0.143092  0  0.997217  0
H  H10  1  0.80032915  0.32705314  0.29987975  1  0  0.135104  0  0.930752  0  0  0.144695  0  0.996442  0  0  0.146862  0  0.99557  0  0  0.102374  0.143182  0  0.997205  0
H  H11  1  0.69967315  0.67294799  0.79987771  1  0  0.135019  0  0.930805  0  0  0.144654  0  0.996446  0  0  0.146827  0  0.995576  0  0  0.102369  0.143144  0  0.997214  0
H  H12  1  0.22291290  0.82065909  0.45686360  1  0  0.149444  0  0.937884  0  0  0.157306  0  1.004702  0  0  0.161028  0  1.002597  0  0  0.107271  0.1547  0  1.006299  0
H  H13  1  0.27708696  0.17934099  0.95686367  1  0  0.149451  0  0.937927  0  0  0.157309  0  1.004744  0  0  0.161032  0  1.002641  0  0  0.107277  0.1547  0  1.006337  0
H  H14  1  0.77709003  0.32065586  0.04313622  1  0  0.149443  0  0.937937  0  0  0.157296  0  1.004776  0  0  0.161019  0  1.002672  0  0  0.107281  0.154691  0  1.006372  0
H  H15  1  0.72290862  0.67934141  0.54313687  1  0  0.14945  0  0.937916  0  0  0.157323  0  1.004737  0  0  0.161045  0  1.002631  0  0  0.10728  0.154717  0  1.006331  0
H  H16  1  0.15398600  0.96711581  0.40711433  1  0  0.136119  0  0.97091  0  0  0.142704  0  1.038238  0  0  0.145574  0  1.037373  0  0  0.099333  0.140732  0  1.038877  0
H  H17  1  0.34601942  0.03288253  0.90711340  1  0  0.136124  0  0.970867  0  0  0.142696  0  1.03821  0  0  0.145567  0  1.037347  0  0  0.099328  0.14072  0  1.038854  0
H  H18  1  0.84601717  0.46711313  0.09288527  1  0  0.136125  0  0.970928  0  0  0.142713  0  1.038257  0  0  0.145583  0  1.037393  0  0  0.099353  0.140743  0  1.038898  0
H  H19  1  0.65397804  0.53288587  0.59288582  1  0  0.136118  0  0.970885  0  0  0.142692  0  1.038239  0  0  0.145563  0  1.037369  0  0  0.099324  0.14072  0  1.038882  0
C  C20  1  0.39009861  0.73277935  0.13273810  1  0  0.723123  0  3.866008  0  0  0.670321  0  4.165013  0  0  0.705867  0  4.157212  0  0  0.203169  0.646153  0  4.16937  0
C  C21  1  0.10990153  0.26722594  0.63274073  1  0  0.723008  0  3.866033  0  0  0.670169  0  4.165051  0  0  0.705712  0  4.157249  0  0  0.203053  0.646001  0  4.169411  0
C  C22  1  0.60989574  0.23277572  0.36726085  1  0  0.722914  0  3.8661  0  0  0.670108  0  4.16509  0  0  0.705651  0  4.157295  0  0  0.203039  0.645943  0  4.169445  0
C  C23  1  0.89010474  0.76722611  0.86726029  1  0  0.722884  0  3.866084  0  0  0.670029  0  4.165136  0  0  0.705582  0  4.157341  0  0  0.20297  0.645858  0  4.169494  0
C  C24  1  0.23112559  0.70558057  0.18297797  1  0  -0.315747  0  3.612674  0  0  -0.343675  0  3.864167  0  0  -0.348425  0  3.868096  0  0  -0.157039  -0.340586  0  3.861496  0
C  C25  1  0.26887531  0.29442279  0.68298087  1  0  -0.315402  0  3.61267  0  0  -0.343286  0  3.863972  0  0  -0.348033  0  3.867911  0  0  -0.156996  -0.340221  0  3.861332  0
C  C26  1  0.76887083  0.20557894  0.31702096  1  0  -0.315653  0  3.612833  0  0  -0.343541  0  3.864202  0  0  -0.348283  0  3.868128  0  0  -0.15698  -0.340454  0  3.861529  0
C  C27  1  0.73112890  0.79442115  0.81702018  1  0  -0.315522  0  3.612778  0  0  -0.343433  0  3.864137  0  0  -0.348222  0  3.868145  0  0  -0.157007  -0.340359  0  3.861487  0
C  C28  1  0.27235750  0.60585306  0.28367107  1  0  0.056846  0  3.799094  0  0  0.053023  0  4.116922  0  0  0.063729  0  4.13035  0  0  0.10648  0.045757  0  4.107715  0
C  C29  1  0.22764069  0.39414645  0.78367450  1  0  0.057088  0  3.798999  0  0  0.053289  0  4.116765  0  0  0.063994  0  4.130194  0  0  0.106512  0.04602  0  4.107564  0
C  C30  1  0.72764299  0.10585160  0.21632737  1  0  0.056833  0  3.799297  0  0  0.053048  0  4.117067  0  0  0.063756  0  4.130493  0  0  0.106415  0.045781  0  4.107862  0
C  C31  1  0.77235734  0.89414501  0.71632666  1  0  0.05695  0  3.799031  0  0  0.053164  0  4.116792  0  0  0.063878  0  4.130204  0  0  0.106496  0.045898  0  4.107584  0
C  C32  1  0.01600013  0.67238356  0.36118513  1  0  0.085713  0  3.756006  0  0  0.077774  0  4.065697  0  0  0.087697  0  4.079747  0  0  0.117155  0.071009  0  4.056156  0
C  C33  1  0.48400442  0.32761431  0.86118710  1  0  0.085695  0  3.755977  0  0  0.077726  0  4.065704  0  0  0.08765  0  4.079752  0  0  0.117179  0.070959  0  4.056171  0
C  C34  1  0.98400679  0.17238264  0.13881415  1  0  0.085589  0  3.756047  0  0  0.077666  0  4.0657  0  0  0.08759  0  4.079749  0  0  0.117148  0.070898  0  4.056166  0
C  C35  1  0.51599562  0.82761562  0.63881399  1  0  0.085668  0  3.755898  0  0  0.077706  0  4.065614  0  0  0.087631  0  4.079662  0  0  0.117164  0.070946  0  4.056068  0
C  C36  1  0.05757669  0.89231931  0.43741322  1  0  -0.314228  0  3.59386  0  0  -0.344554  0  3.844455  0  0  -0.35076  0  3.848462  0  0  -0.154216  -0.34057  0  3.842048  0
C  C37  1  0.44242159  0.10768179  0.93741229  1  0  -0.314222  0  3.593904  0  0  -0.344512  0  3.844448  0  0  -0.350702  0  3.848414  0  0  -0.154207  -0.340507  0  3.842016  0
C  C38  1  0.94242425  0.39231636  0.06258668  1  0  -0.314184  0  3.593933  0  0  -0.344532  0  3.844543  0  0  -0.350723  0  3.848513  0  0  -0.154224  -0.340554  0  3.842144  0
C  C39  1  0.55756966  0.60768233  0.56258701  1  0  -0.314167  0  3.59393  0  0  -0.344491  0  3.84447  0  0  -0.350699  0  3.848483  0  0  -0.154192  -0.340501  0  3.842056  0
C  C40  1  0.92098978  0.99786581  0.47814235  1  0  0.723146  0  3.841941  0  0  0.67489  0  4.129852  0  0  0.710276  0  4.124205  0  0  0.205535  0.6508  0  4.132781  0
C  C41  1  0.57900982  0.00213227  0.97814241  1  0  0.723092  0  3.841929  0  0  0.674806  0  4.129876  0  0  0.710191  0  4.124239  0  0  0.205469  0.650708  0  4.132802  0
C  C42  1  0.07900921  0.49786326  0.02185689  1  0  0.723082  0  3.84214  0  0  0.674848  0  4.13  0  0  0.710232  0  4.124357  0  0  0.205506  0.650759  0  4.132924  0
C  C43  1  0.42099392  0.50213111  0.52185795  1  0  0.723049  0  3.841968  0  0  0.674779  0  4.129904  0  0  0.710163  0  4.124259  0  0  0.205491  0.650686  0  4.132829  0
S  S44  1  0.44736460  0.58225680  0.22540174  1  0  0.076016  0  2.550335  0  0  0.058896  0  2.922831  0  0  0.054098  0  2.92289  0  0  0.035652  0.062408  0  2.922825  0
S  S45  1  0.05263094  0.41774578  0.72540574  1  0  0.075979  0  2.550188  0  0  0.05879  0  2.922706  0  0  0.053992  0  2.922757  0  0  0.035681  0.062308  0  2.922713  0
S  S46  1  0.55263374  0.08225952  0.27459667  1  0  0.07601  0  2.550362  0  0  0.058854  0  2.92284  0  0  0.05405  0  2.922893  0  0  0.035648  0.062359  0  2.922833  0
S  S47  1  0.94737135  0.91774258  0.77459622  1  0  0.076057  0  2.550179  0  0  0.058885  0  2.922692  0  0  0.054091  0  2.922751  0  0  0.035697  0.062398  0  2.922693  0
S  S48  1  0.01771293  0.74998139  0.29877205  1  0  0.103437  0  2.608411  0  0  0.100433  0  2.956307  0  0  0.100829  0  2.95888  0  0  0.117323  0.099327  0  2.955051  0
S  S49  1  0.48228696  0.25001828  0.79877316  1  0  0.103416  0  2.608312  0  0  0.100418  0  2.956207  0  0  0.100816  0  2.958778  0  0  0.117336  0.099314  0  2.954954  0
S  S50  1  0.98228989  0.24997989  0.20122693  1  0  0.103486  0  2.60842  0  0  0.100461  0  2.956293  0  0  0.100856  0  2.958864  0  0  0.117335  0.09935  0  2.95504  0
S  S51  1  0.51771084  0.75002267  0.70122668  1  0  0.103447  0  2.608439  0  0  0.100427  0  2.956343  0  0  0.100825  0  2.95891  0  0  0.117314  0.099317  0  2.955088  0
S  S52  1  0.79987839  0.75036334  0.40976105  1  0  0.07655  0  2.356564  0  0  0.065461  0  2.704049  0  0  0.065894  0  2.701373  0  0  0.022841  0.065235  0  2.706122  0
S  S53  1  0.70012939  0.24963527  0.90976203  1  0  0.076509  0  2.356642  0  0  0.065419  0  2.70412  0  0  0.065844  0  2.701441  0  0  0.022815  0.065191  0  2.706186  0
S  S54  1  0.20012443  0.25036155  0.09023831  1  0  0.076568  0  2.356614  0  0  0.065475  0  2.704096  0  0  0.065904  0  2.701415  0  0  0.022833  0.065251  0  2.706171  0
S  S55  1  0.29987052  0.74963475  0.59023781  1  0  0.076514  0  2.356568  0  0  0.065428  0  2.704054  0  0  0.065862  0  2.701376  0  0  0.022816  0.065195  0  2.706126  0
N  N56  1  0.34021860  0.51111984  0.32330066  1  0  -0.193283  0  3.038306  0  0  -0.175376  0  3.324206  0  0  -0.185244  0  3.342538  0  0  -0.214253  -0.168547  0  3.311604  0
N  N57  1  0.15978274  0.48887642  0.82330464  1  0  -0.193502  0  3.038524  0  0  -0.175619  0  3.324442  0  0  -0.185486  0  3.342772  0  0  -0.214309  -0.168788  0  3.311841  0
N  N58  1  0.65978173  0.01112160  0.17669844  1  0  -0.193436  0  3.038533  0  0  -0.175568  0  3.324443  0  0  -0.185436  0  3.342775  0  0  -0.214309  -0.168734  0  3.311828  0
N  N59  1  0.84022177  0.98887460  0.67669739  1  0  -0.19347  0  3.038404  0  0  -0.175594  0  3.324315  0  0  -0.185461  0  3.342643  0  0  -0.214303  -0.168764  0  3.311711  0
N  N60  1  0.19417468  0.54933693  0.36657732  1  0  -0.22808  0  3.220996  0  0  -0.173287  0  3.502789  0  0  -0.186769  0  3.520289  0  0  -0.209251  -0.163971  0  3.490735  0
N  N61  1  0.30583605  0.45065855  0.86658035  1  0  -0.228022  0  3.221021  0  0  -0.173204  0  3.5028  0  0  -0.186688  0  3.520298  0  0  -0.209275  -0.163884  0  3.490741  0
N  N62  1  0.80582571  0.04933709  0.13342144  1  0  -0.227918  0  3.220793  0  0  -0.173093  0  3.502516  0  0  -0.186576  0  3.520014  0  0  -0.209208  -0.163774  0  3.490457  0
N  N63  1  0.69417684  0.95066111  0.63342009  1  0  -0.227982  0  3.220776  0  0  -0.173158  0  3.502539  0  0  -0.186641  0  3.520036  0  0  -0.209267  -0.163844  0  3.49048  0
O  O64  1  0.63868285  0.67486636  0.12883736  1  0  -0.644828  0  2.021093  0  0  -0.570504  0  2.264646  0  0  -0.600766  0  2.254892  0  0  -0.31725  -0.54924  0  2.270549  0
O  O65  1  0.86131561  0.32513545  0.62883944  1  0  -0.644819  0  2.021109  0  0  -0.570444  0  2.26461  0  0  -0.600704  0  2.254849  0  0  -0.317182  -0.549164  0  2.2705  0
O  O66  1  0.36131141  0.17486388  0.37116154  1  0  -0.644696  0  2.020989  0  0  -0.570411  0  2.264602  0  0  -0.600652  0  2.254803  0  0  -0.317194  -0.549142  0  2.2705  0
O  O67  1  0.13868442  0.82513776  0.87116010  1  0  -0.644713  0  2.021045  0  0  -0.570365  0  2.264636  0  0  -0.600598  0  2.254806  0  0  -0.317151  -0.549078  0  2.270522  0
O  O68  1  0.27633701  0.81849716  0.09779033  1  0  -0.664738  0  2.049437  0  0  -0.599901  0  2.318398  0  0  -0.632034  0  2.308369  0  0  -0.325781  -0.577136  0  2.324405  0
O  O69  1  0.22367252  0.18150776  0.59779354  1  0  -0.664706  0  2.049515  0  0  -0.599846  0  2.318449  0  0  -0.631979  0  2.308424  0  0  -0.325705  -0.577082  0  2.324454  0
O  O70  1  0.72365748  0.31849150  0.40220911  1  0  -0.664667  0  2.049573  0  0  -0.599819  0  2.318507  0  0  -0.631957  0  2.308487  0  0  -0.325711  -0.577052  0  2.324515  0
O  O71  1  0.77633784  0.68151435  0.90220778  1  0  -0.664654  0  2.049594  0  0  -0.599794  0  2.318542  0  0  -0.631929  0  2.308515  0  0  -0.325686  -0.577025  0  2.324546  0
O  O72  1  0.71070021  0.94294376  0.50325942  1  0  -0.628207  0  1.960474  0  0  -0.558532  0  2.201109  0  0  -0.590106  0  2.19298  0  0  -0.311445  -0.536337  0  2.205839  0
O  O73  1  0.78929952  0.05705432  0.00325964  1  0  -0.628208  0  1.960492  0  0  -0.558492  0  2.201097  0  0  -0.59007  0  2.192972  0  0  -0.311415  -0.536299  0  2.205835  0
O  O74  1  0.28929790  0.44294497  0.99674063  1  0  -0.62818  0  1.960486  0  0  -0.558501  0  2.201088  0  0  -0.590078  0  2.192962  0  0  -0.311437  -0.536311  0  2.205827  0
O  O75  1  0.21069878  0.55705062  0.49674067  1  0  -0.628193  0  1.960438  0  0  -0.558485  0  2.201047  0  0  -0.590058  0  2.192919  0  0  -0.311431  -0.536293  0  2.205791  0
O  O76  1  0.03018713  0.13651921  0.48839986  1  0  -0.665939  0  2.05689  0  0  -0.589042  0  2.318357  0  0  -0.622368  0  2.306188  0  0  -0.323983  -0.565392  0  2.325727  0
O  O77  1  0.46981188  0.86347996  0.98839894  1  0  -0.66588  0  2.056877  0  0  -0.588956  0  2.31833  0  0  -0.622282  0  2.306163  0  0  -0.323927  -0.565305  0  2.325698  0
O  O78  1  0.96981129  0.63651576  0.01160015  1  0  -0.665926  0  2.056987  0  0  -0.589038  0  2.318458  0  0  -0.622364  0  2.306289  0  0  -0.323988  -0.565386  0  2.325823  0
O  O79  1  0.53019243  0.36348241  0.51160064  1  0  -0.665877  0  2.056907  0  0  -0.588944  0  2.318317  0  0  -0.622265  0  2.306147  0  0  -0.323945  -0.565295  0  2.325687  0
