# generated using pymatgen
data_ZnH4C6(N3O2)2
_symmetry_space_group_name_H-M   'P 1'
_cell_length_a   11.17796745
_cell_length_b   17.61753428
_cell_length_c   17.61754385
_cell_angle_alpha   78.80079615
_cell_angle_beta   71.51587683
_cell_angle_gamma   71.51582174
_symmetry_Int_Tables_number   1
_chemical_formula_structural   ZnH4C6(N3O2)2
_chemical_formula_sum   'Zn10 H40 C60 N60 O40'
_cell_volume   3103.68286216
_cell_formula_units_Z   10
loop_
 _symmetry_equiv_pos_site_id
 _symmetry_equiv_pos_as_xyz
  1  'x, y, z'
loop_
 _atom_site_type_symbol
 _atom_site_label
 _atom_site_symmetry_multiplicity
 _atom_site_fract_x
 _atom_site_fract_y
 _atom_site_fract_z
 _atom_site_occupancy
 _atom_site_pbe_bader_charge
 _atom_site_pbe_bader_spin_density
 _atom_site_pbe_cm5_charge
 _atom_site_pbe_ddec_charge
 _atom_site_pbe_ddec_spin_density
 _atom_site_pbe_ddec_sum_bond_order
 _atom_site_pbe_magmom
Zn  Zn0  1  0.65461032  0.32273682  0.92824466  1  1.249764  0  0.731515  0.695443  0  2.467393  0
Zn  Zn1  1  0.09449478  0.92821669  0.32268082  1  1.250076  0  0.730889  0.69519  0  2.466479  0
Zn  Zn2  1  0.84538913  0.57175749  0.17726398  1  1.249649  0  0.731491  0.695385  0  2.467456  0
Zn  Zn3  1  0.40550620  0.17731963  0.57178338  1  1.250222  0  0.730855  0.69514  0  2.466446  0
Zn  Zn4  1  0.34538754  0.67726679  0.07175672  1  1.249769  0  0.731543  0.695516  0  2.467301  0
Zn  Zn5  1  0.90550483  0.07178512  0.67732113  1  1.250069  0  0.730864  0.695115  0  2.466499  0
Zn  Zn6  1  0.15461156  0.42824190  0.82273596  1  1.249732  0  0.731497  0.69543  0  2.467396  0
Zn  Zn7  1  0.59449571  0.82267915  0.42821586  1  1.250068  0  0.7309  0.695205  0  2.466452  0
Zn  Zn8  1  0.75000060  0.24999301  0.25000772  1  1.260217  0  0.725974  0.690689  0  2.485403  0
Zn  Zn9  1  0.24999861  0.75000758  0.74999227  1  1.260248  0  0.725966  0.690675  0  2.485423  0
H  H10  1  0.74442981  0.10311420  0.16336581  1  0.150947  0  0.125634  0.123521  0  0.999812  0
H  H11  1  0.68707958  0.13715911  0.01551590  1  0.126686  0  0.124534  0.117621  0  0.997386  0
H  H12  1  0.87548073  0.34277369  0.76835566  1  0.12704  0  0.122474  0.117314  0  1.01172  0
H  H13  1  0.88123957  0.55290459  0.83098774  1  0.083927  0  0.120436  0.111269  0  0.994783  0
H  H14  1  0.64951149  0.50567966  0.88334757  1  0.164128  0  0.117343  0.11343  0  1.034973  0
H  H15  1  0.98885345  0.16338182  0.10310840  1  0.151279  0  0.126161  0.124939  0  0.998915  0
H  H16  1  0.16003546  0.01554869  0.13712872  1  0.136736  0  0.124064  0.117262  0  0.996726  0
H  H17  1  0.01345684  0.76821781  0.34265927  1  0.149903  0  0.122104  0.116167  0  1.013101  0
H  H18  1  0.73512539  0.83096856  0.55299643  1  0.106216  0  0.120683  0.111811  0  0.99464  0
H  H19  1  0.96173038  0.88332920  0.50567067  1  0.162622  0  0.118606  0.114953  0  1.034525  0
H  H20  1  0.75557006  0.33663560  0.39688611  1  0.151218  0  0.125626  0.123515  0  0.999838  0
H  H21  1  0.81291841  0.48448635  0.36284150  1  0.126659  0  0.124496  0.117531  0  0.997447  0
H  H22  1  0.62453145  0.73165200  0.15721988  1  0.127053  0  0.1225  0.117329  0  1.011682  0
H  H23  1  0.61875938  0.66901321  0.94709625  1  0.083911  0  0.120434  0.111233  0  0.994812  0
H  H24  1  0.85048684  0.61665436  0.99432174  1  0.164132  0  0.117361  0.11347  0  1.034894  0
H  H25  1  0.51114919  0.39689329  0.33661763  1  0.151066  0  0.126145  0.124921  0  0.998904  0
H  H26  1  0.33996353  0.36287507  0.48444917  1  0.136666  0  0.124143  0.117253  0  0.996756  0
H  H27  1  0.48654373  0.15733606  0.73178699  1  0.149828  0  0.122112  0.116205  0  1.013068  0
H  H28  1  0.76487606  0.94700310  0.66903350  1  0.10622  0  0.120677  0.111806  0  0.994549  0
H  H29  1  0.53827346  0.99432835  0.61666962  1  0.162888  0  0.118623  0.114957  0  1.034553  0
H  H30  1  0.25556846  0.89688640  0.83663324  1  0.151181  0  0.125639  0.123523  0  0.999802  0
H  H31  1  0.31291627  0.86284268  0.98448397  1  0.12662  0  0.124513  0.117573  0  0.99741  0
H  H32  1  0.12452613  0.65722451  0.23164952  1  0.126937  0  0.122501  0.117343  0  1.011708  0
H  H33  1  0.11876410  0.44709661  0.16901068  1  0.083962  0  0.120454  0.111257  0  0.994811  0
H  H34  1  0.35048920  0.49432395  0.11665324  1  0.164091  0  0.117333  0.113458  0  1.034928  0
H  H35  1  0.01114603  0.83661817  0.89689222  1  0.151266  0  0.12615  0.124945  0  0.998926  0
H  H36  1  0.83996119  0.98445131  0.86287304  1  0.136675  0  0.12412  0.117343  0  0.996676  0
H  H37  1  0.98655407  0.23177979  0.65734749  1  0.149905  0  0.122086  0.116093  0  1.013053  0
H  H38  1  0.26487436  0.16903083  0.44700369  1  0.10619  0  0.120689  0.111797  0  0.994623  0
H  H39  1  0.03826910  0.11667079  0.49432939  1  0.162624  0  0.118613  0.114971  0  1.034523  0
H  H40  1  0.24443373  0.66336320  0.60311559  1  0.151238  0  0.125635  0.123524  0  0.999849  0
H  H41  1  0.18708295  0.51551364  0.63715932  1  0.126591  0  0.124507  0.117545  0  0.997432  0
H  H42  1  0.37547167  0.26834618  0.84277924  1  0.126842  0  0.1225  0.117296  0  1.011757  0
H  H43  1  0.38123660  0.33098619  0.05290576  1  0.083897  0  0.120448  0.111292  0  0.9948  0
H  H44  1  0.14951062  0.38334383  0.00567851  1  0.164083  0  0.117353  0.11345  0  1.034933  0
H  H45  1  0.48885002  0.60310730  0.66338293  1  0.151169  0  0.126142  0.124923  0  0.998922  0
H  H46  1  0.66003569  0.63712553  0.51555083  1  0.13661  0  0.124062  0.117222  0  0.996695  0
H  H47  1  0.51346007  0.84266273  0.26821188  1  0.149865  0  0.122085  0.11616  0  1.01313  0
H  H48  1  0.23512476  0.05299810  0.33097060  1  0.106562  0  0.120673  0.11178  0  0.994707  0
H  H49  1  0.46173168  0.00567164  0.38333045  1  0.16257  0  0.118626  0.114987  0  1.034484  0
C  C50  1  0.71034418  0.16075497  0.13042060  1  0.374566  0  0.025367  0.012188  0  3.894343  0
C  C51  1  0.68170140  0.17775549  0.05620938  1  0.487845  0  0.025215  0.023995  0  3.899097  0
C  C52  1  0.64682911  0.28862325  0.10295427  1  1.380459  0  0.285339  0.258206  0  4.039057  0
C  C53  1  0.85342774  0.28691634  0.76930619  1  0.401762  0  0.018597  0.015495  0  3.901317  0
C  C54  1  0.90804930  0.37042493  0.90430771  1  1.339767  0  0.286096  0.253884  0  4.02993  0
C  C55  1  0.86442277  0.49518907  0.85829010  1  0.453924  0  0.014446  0.000291  0  3.936249  0
C  C56  1  0.74904019  0.47162887  0.88350862  1  0.419333  0  0.020158  0.019042  0  3.903022  0
C  C57  1  0.99829744  0.13043818  0.16074645  1  0.403233  0  0.02375  0.009284  0  3.894281  0
C  C58  1  0.08421677  0.05625549  0.17774129  1  0.472076  0  0.026816  0.026555  0  3.89887  0
C  C59  1  0.96154359  0.10293500  0.28861377  1  1.376762  0  0.286314  0.259471  0  4.041747  0
C  C60  1  0.09041235  0.76921022  0.28682552  1  0.447325  0  0.018163  0.017602  0  3.90328  0
C  C61  1  0.81731538  0.90421904  0.37048356  1  1.349482  0  0.285875  0.252449  0  4.026785  0
C  C62  1  0.78232633  0.85822746  0.49525228  1  0.391078  0  0.016801  0.003888  0  3.930975  0
C  C63  1  0.89607390  0.88343521  0.47163489  1  0.447396  0  0.017172  0.014236  0  3.906847  0
C  C64  1  0.78965477  0.36958074  0.33924516  1  0.374464  0  0.025314  0.012108  0  3.894453  0
C  C65  1  0.81829524  0.44379327  0.32224610  1  0.487609  0  0.025287  0.024157  0  3.899092  0
C  C66  1  0.85316872  0.39704826  0.21137777  1  1.379545  0  0.285369  0.258214  0  4.039223  0
C  C67  1  0.64658264  0.73070191  0.21307739  1  0.402202  0  0.018651  0.015617  0  3.901367  0
C  C68  1  0.59194696  0.59569424  0.12957421  1  1.339978  0  0.286093  0.253887  0  4.03002  0
C  C69  1  0.63557651  0.64171226  0.00481059  1  0.454113  0  0.014461  0.000401  0  3.936194  0
C  C70  1  0.75095714  0.61649455  0.02837281  1  0.419389  0  0.020057  0.018897  0  3.903064  0
C  C71  1  0.50170465  0.33925643  0.36956158  1  0.403645  0  0.023737  0.009295  0  3.894217  0
C  C72  1  0.41578369  0.32226258  0.44374294  1  0.472048  0  0.026725  0.026537  0  3.898841  0
C  C73  1  0.53845838  0.21138837  0.39706580  1  1.376651  0  0.28629  0.259318  0  4.04174  0
C  C74  1  0.40958916  0.21317212  0.73079172  1  0.447574  0  0.018172  0.017531  0  3.903386  0
C  C75  1  0.68268433  0.12951775  0.59578081  1  1.348981  0  0.285861  0.25238  0  4.026782  0
C  C76  1  0.71767341  0.00475001  0.64177407  1  0.391098  0  0.016766  0.00383  0  3.931042  0
C  C77  1  0.60392813  0.02836401  0.61656404  1  0.446912  0  0.017134  0.014213  0  3.906844  0
C  C78  1  0.28965409  0.83924562  0.86957901  1  0.374401  0  0.025394  0.012244  0  3.894275  0
C  C79  1  0.31829445  0.82224631  0.94379105  1  0.487761  0  0.025212  0.024021  0  3.899037  0
C  C80  1  0.35317010  0.71137735  0.89704515  1  1.38003  0  0.285323  0.258186  0  4.039134  0
C  C81  1  0.14657765  0.71308306  0.23069848  1  0.403276  0  0.018623  0.015586  0  3.901466  0
C  C82  1  0.09194707  0.62957567  0.09569455  1  1.339786  0  0.286075  0.2539  0  4.030017  0
C  C83  1  0.13557832  0.50481152  0.14171009  1  0.4539  0  0.014483  0.000459  0  3.936218  0
C  C84  1  0.25095915  0.52837354  0.11649383  1  0.41942  0  0.02002  0.018758  0  3.903082  0
C  C85  1  0.00170082  0.86956242  0.83925487  1  0.403357  0  0.023747  0.009292  0  3.894277  0
C  C86  1  0.91578082  0.94374451  0.82225972  1  0.471656  0  0.026719  0.026407  0  3.898856  0
C  C87  1  0.03845629  0.89706620  0.71138654  1  1.376832  0  0.286353  0.259513  0  4.041747  0
C  C88  1  0.90959694  0.23078677  0.71318054  1  0.447971  0  0.018285  0.017764  0  3.902954  0
C  C89  1  0.18268680  0.09577914  0.62951517  1  1.349556  0  0.285872  0.25247  0  4.026752  0
C  C90  1  0.21767396  0.14177073  0.50474797  1  0.39109  0  0.016818  0.003984  0  3.930984  0
C  C91  1  0.10392450  0.11656719  0.52836549  1  0.447409  0  0.017138  0.014148  0  3.906899  0
C  C92  1  0.21034498  0.63041865  0.66075440  1  0.374285  0  0.025275  0.012076  0  3.894242  0
C  C93  1  0.18170450  0.55620613  0.67775686  1  0.487915  0  0.025307  0.024197  0  3.899017  0
C  C94  1  0.14682901  0.60295354  0.78862228  1  1.379464  0  0.285352  0.258181  0  4.039203  0
C  C95  1  0.35342035  0.26929869  0.78692185  1  0.4023  0  0.018658  0.015674  0  3.901347  0
C  C96  1  0.40804888  0.40430756  0.87042622  1  1.339779  0  0.28606  0.253909  0  4.029909  0
C  C97  1  0.36442136  0.35828714  0.99518991  1  0.454  0  0.014443  0.000256  0  3.936197  0
C  C98  1  0.24903884  0.38350484  0.97162863  1  0.419471  0  0.020139  0.019107  0  3.902876  0
C  C99  1  0.49829523  0.66074477  0.63043930  1  0.403555  0  0.023744  0.009227  0  3.894301  0
C  C100  1  0.58421526  0.67773862  0.55625699  1  0.472157  0  0.02681  0.026649  0  3.89876  0
C  C101  1  0.46154151  0.78861282  0.60293451  1  1.376834  0  0.286299  0.259382  0  4.041683  0
C  C102  1  0.59041410  0.78682787  0.26920758  1  0.447307  0  0.01816  0.017551  0  3.903477  0
C  C103  1  0.31731502  0.87048465  0.40421880  1  1.349459  0  0.285872  0.252476  0  4.026733  0
C  C104  1  0.28232472  0.99525300  0.35822794  1  0.390739  0  0.016804  0.003925  0  3.930938  0
C  C105  1  0.39607661  0.97163478  0.38343464  1  0.447525  0  0.017172  0.014195  0  3.906762  0
C  C106  1  0.75636305  0.19335375  0.80668710  1  1.327421  0  0.289062  0.264265  0  4.014359  0
C  C107  1  0.24364154  0.80664745  0.19331624  1  1.327408  0  0.28899  0.264092  0  4.014684  0
C  C108  1  0.74364092  0.69331766  0.30664520  1  1.327124  0  0.289029  0.264139  0  4.014561  0
C  C109  1  0.25636112  0.30668293  0.69335479  1  1.327121  0  0.289013  0.264104  0  4.014559  0
N  N110  1  0.68862288  0.23170028  0.15909488  1  -1.222281  0  -0.348841  -0.315222  0  3.56213  0
N  N111  1  0.64191136  0.25902627  0.03905615  1  -1.227701  0  -0.350079  -0.326948  0  3.55824  0
N  N112  1  0.60334652  0.37166033  0.11320519  1  0.279068  0  0.043939  0.462358  0  4.240685  0
N  N113  1  0.75686106  0.26248812  0.82881117  1  -1.197666  0  -0.346192  -0.316418  0  3.557671  0
N  N114  1  0.77774139  0.39214075  0.91194376  1  -1.22516  0  -0.349991  -0.320679  0  3.550678  0
N  N115  1  0.96455709  0.43076748  0.87175503  1  -1.200241  0  -0.35159  -0.317999  0  3.596608  0
N  N116  1  0.97992821  0.29212647  0.92946899  1  0.30692  0  0.045251  0.464771  0  4.275696  0
N  N117  1  0.92046377  0.15906737  0.23171067  1  -1.237754  0  -0.349098  -0.315753  0  3.564028  0
N  N118  1  0.05995071  0.03906607  0.25900082  1  -1.235409  0  -0.350355  -0.328827  0  3.560603  0
N  N119  1  0.91178760  0.11317125  0.37166053  1  0.287291  0  0.041456  0.460559  0  4.242211  0
N  N120  1  0.15186998  0.82874315  0.26244370  1  -1.199449  0  -0.345353  -0.316733  0  3.559076  0
N  N121  1  0.91835252  0.91183925  0.39214304  1  -1.225496  0  -0.349963  -0.319493  0  3.549886  0
N  N122  1  0.73305130  0.87166933  0.43084787  1  -1.210853  0  -0.352168  -0.318738  0  3.591675  0
N  N123  1  0.79855477  0.92940514  0.29218860  1  0.308088  0  0.045153  0.465144  0  4.274655  0
N  N124  1  0.81137489  0.34090657  0.26830051  1  -1.22169  0  -0.348822  -0.315169  0  3.562121  0
N  N125  1  0.85808542  0.46094631  0.24097522  1  -1.227235  0  -0.350085  -0.326947  0  3.558274  0
N  N126  1  0.89665235  0.38679599  0.12834158  1  0.278857  0  0.043978  0.462371  0  4.240955  0
N  N127  1  0.74314426  0.67119455  0.23750955  1  -1.197725  0  -0.346205  -0.31639  0  3.557606  0
N  N128  1  0.72225336  0.58806001  0.10786096  1  -1.225224  0  -0.349936  -0.320672  0  3.550809  0
N  N129  1  0.53543913  0.62824910  0.06923189  1  -1.200286  0  -0.351589  -0.318005  0  3.596605  0
N  N130  1  0.52007006  0.57053383  0.20787453  1  0.306869  0  0.045264  0.464822  0  4.275631  0
N  N131  1  0.57953882  0.26829182  0.34093322  1  -1.238096  0  -0.349058  -0.315632  0  3.563771  0
N  N132  1  0.44004855  0.24100294  0.46093366  1  -1.235094  0  -0.350334  -0.328783  0  3.560608  0
N  N133  1  0.58821349  0.12834148  0.38683146  1  0.287235  0  0.041412  0.460537  0  4.242168  0
N  N134  1  0.34813219  0.23755496  0.67125988  1  -1.199409  0  -0.345364  -0.316679  0  3.559098  0
N  N135  1  0.58164982  0.10785801  0.58816000  1  -1.224723  0  -0.349919  -0.319416  0  3.549778  0
N  N136  1  0.76694863  0.06915264  0.62833247  1  -1.210634  0  -0.352166  -0.318694  0  3.591718  0
N  N137  1  0.70144867  0.20781156  0.57059700  1  0.308138  0  0.045173  0.465185  0  4.274616  0
N  N138  1  0.31137513  0.76830091  0.84090354  1  -1.221891  0  -0.348826  -0.31524  0  3.562159  0
N  N139  1  0.35808664  0.74097492  0.96094397  1  -1.227562  0  -0.350111  -0.326991  0  3.558318  0
N  N140  1  0.39665310  0.62834146  0.88679449  1  0.278966  0  0.044015  0.462419  0  4.24087  0
N  N141  1  0.24314286  0.73751248  0.17119186  1  -1.198798  0  -0.346183  -0.316392  0  3.557602  0
N  N142  1  0.22225418  0.60786166  0.08805888  1  -1.225191  0  -0.349931  -0.320643  0  3.550602  0
N  N143  1  0.03544077  0.56923191  0.12824774  1  -1.200201  0  -0.351551  -0.317986  0  3.596646  0
N  N144  1  0.02007006  0.70787412  0.07053176  1  0.306918  0  0.045258  0.464788  0  4.275773  0
N  N145  1  0.07953517  0.84093383  0.76829040  1  -1.237846  0  -0.349075  -0.315722  0  3.564023  0
N  N146  1  0.94004662  0.96093453  0.74100012  1  -1.235013  0  -0.350346  -0.328825  0  3.560619  0
N  N147  1  0.08821269  0.88683115  0.62833946  1  0.287293  0  0.04138  0.460437  0  4.242314  0
N  N148  1  0.84813878  0.17125505  0.73756166  1  -1.199851  0  -0.345445  -0.31674  0  3.558889  0
N  N149  1  0.08164858  0.08816134  0.60785658  1  -1.225525  0  -0.349916  -0.31942  0  3.549816  0
N  N150  1  0.26694792  0.12833127  0.56915099  1  -1.210645  0  -0.352228  -0.318842  0  3.591762  0
N  N151  1  0.20144902  0.07059365  0.70781027  1  0.311778  0  0.045243  0.465257  0  4.274506  0
N  N152  1  0.18862364  0.65909342  0.73170031  1  -1.221695  0  -0.34882  -0.315173  0  3.562117  0
N  N153  1  0.14191163  0.53905489  0.75902623  1  -1.227283  0  -0.350097  -0.32699  0  3.558341  0
N  N154  1  0.10334618  0.61320401  0.87165980  1  0.278965  0  0.043997  0.462414  0  4.240852  0
N  N155  1  0.25685710  0.32880544  0.76249070  1  -1.197727  0  -0.346219  -0.316391  0  3.557538  0
N  N156  1  0.27774329  0.41193999  0.89214023  1  -1.225202  0  -0.349985  -0.320768  0  3.550709  0
N  N157  1  0.46455644  0.37175330  0.93076905  1  -1.200088  0  -0.351547  -0.31799  0  3.596572  0
N  N158  1  0.47992888  0.42946737  0.79212767  1  0.306866  0  0.04526  0.464784  0  4.275708  0
N  N159  1  0.42046080  0.73170997  0.65906702  1  -1.238088  0  -0.349038  -0.315598  0  3.563872  0
N  N160  1  0.55995228  0.75899826  0.53906646  1  -1.235318  0  -0.350372  -0.328899  0  3.560589  0
N  N161  1  0.41178613  0.87166032  0.61316878  1  0.287243  0  0.041429  0.460544  0  4.242171  0
N  N162  1  0.65186986  0.76244564  0.32874011  1  -1.199176  0  -0.345372  -0.316697  0  3.559132  0
N  N163  1  0.41835291  0.89214318  0.41183860  1  -1.225467  0  -0.349942  -0.319458  0  3.54985  0
N  N164  1  0.23305124  0.93084856  0.37167068  1  -1.210764  0  -0.352206  -0.318793  0  3.591751  0
N  N165  1  0.29855311  0.79218964  0.42940293  1  0.308209  0  0.045147  0.465116  0  4.274633  0
N  N166  1  0.66100032  0.15164485  0.84834543  1  0.291446  0  0.0424  0.458804  0  4.264937  0
N  N167  1  0.33900011  0.84835514  0.15165387  1  0.291372  0  0.042471  0.459057  0  4.26463  0
N  N168  1  0.83899790  0.65165503  0.34835580  1  0.291369  0  0.042361  0.458924  0  4.264838  0
N  N169  1  0.16100347  0.34834496  0.65164502  1  0.29132  0  0.042366  0.458922  0  4.264852  0
O  O170  1  0.60853490  0.39234321  0.17599899  1  -0.50023  0  -0.144195  -0.352967  0  2.015318  0
O  O171  1  0.55961162  0.42013458  0.05995536  1  -0.475673  0  -0.128715  -0.325799  0  1.996377  0
O  O172  1  0.92196900  0.23831508  0.95273244  1  -0.476856  0  -0.145579  -0.345973  0  1.976071  0
O  O173  1  0.57625956  0.17928169  0.90977862  1  -0.486111  0  -0.146257  -0.354229  0  1.948074  0
O  O174  1  0.09659180  0.28215979  0.92701557  1  -0.489112  0  -0.142715  -0.347884  0  1.982757  0
O  O175  1  0.82316185  0.17595246  0.39235493  1  -0.501964  0  -0.144287  -0.352811  0  2.014473  0
O  O176  1  0.96030501  0.05990606  0.42011884  1  -0.48104  0  -0.126009  -0.324175  0  1.998447  0
O  O177  1  0.88701718  0.95271342  0.23840788  1  -0.47384  0  -0.145348  -0.346401  0  1.9752  0
O  O178  1  0.33468135  0.90973412  0.17941080  1  -0.490109  0  -0.145376  -0.352792  0  1.948786  0
O  O179  1  0.69433553  0.92694072  0.28217641  1  -0.477987  0  -0.142751  -0.347142  0  1.983331  0
O  O180  1  0.89146582  0.32400176  0.10765907  1  -0.500403  0  -0.144196  -0.352928  0  2.01533  0
O  O181  1  0.94038586  0.44004521  0.07986595  1  -0.475581  0  -0.128741  -0.325823  0  1.996505  0
O  O182  1  0.57802829  0.54727082  0.26168568  1  -0.476828  0  -0.145555  -0.345941  0  1.976047  0
O  O183  1  0.92373523  0.59022170  0.32072023  1  -0.486035  0  -0.146194  -0.354226  0  1.94807  0
O  O184  1  0.40340565  0.57298683  0.21784029  1  -0.489126  0  -0.142734  -0.347934  0  1.982663  0
O  O185  1  0.67684107  0.10764640  0.32404985  1  -0.502166  0  -0.144215  -0.352731  0  2.014381  0
O  O186  1  0.53969088  0.07988320  0.44009540  1  -0.481069  0  -0.126036  -0.324185  0  1.998436  0
O  O187  1  0.61298529  0.26159270  0.54728581  1  -0.473838  0  -0.145334  -0.346383  0  1.975162  0
O  O188  1  0.16532788  0.32058767  0.59026611  1  -0.490014  0  -0.145364  -0.352752  0  1.948987  0
O  O189  1  0.80566545  0.21782255  0.57306447  1  -0.478102  0  -0.142727  -0.347106  0  1.98328  0
O  O190  1  0.39146404  0.60765799  0.82400151  1  -0.500473  0  -0.144183  -0.352941  0  2.015397  0
O  O191  1  0.44038949  0.57986602  0.94004312  1  -0.475647  0  -0.128756  -0.325834  0  1.996449  0
O  O192  1  0.07802685  0.76168673  0.04726913  1  -0.476849  0  -0.145576  -0.345969  0  1.976055  0
O  O193  1  0.42373630  0.82072010  0.09021841  1  -0.486132  0  -0.146258  -0.354272  0  1.947971  0
O  O194  1  0.90340647  0.71784081  0.07298461  1  -0.489161  0  -0.142722  -0.347891  0  1.982748  0
O  O195  1  0.17683912  0.82405055  0.60764595  1  -0.5019  0  -0.144206  -0.3527  0  2.014483  0
O  O196  1  0.03968989  0.94009574  0.57988178  1  -0.481136  0  -0.126039  -0.324172  0  1.998506  0
O  O197  1  0.11298674  0.04728296  0.76159313  1  -0.477466  0  -0.145398  -0.346484  0  1.975117  0
O  O198  1  0.66532219  0.09026948  0.82058604  1  -0.490094  0  -0.14534  -0.352705  0  1.949138  0
O  O199  1  0.30566720  0.07306047  0.71781993  1  -0.478028  0  -0.142751  -0.347141  0  1.983323  0
O  O200  1  0.10853554  0.67599824  0.89234232  1  -0.500172  0  -0.144198  -0.35296  0  2.015318  0
O  O201  1  0.05961213  0.55995599  0.92013531  1  -0.475602  0  -0.128735  -0.325819  0  1.996543  0
O  O202  1  0.42197038  0.45273098  0.73831532  1  -0.476799  0  -0.145567  -0.345957  0  1.976026  0
O  O203  1  0.07626681  0.40977890  0.67928090  1  -0.486051  0  -0.146187  -0.354214  0  1.948081  0
O  O204  1  0.59659262  0.42701377  0.78216217  1  -0.489116  0  -0.142743  -0.347921  0  1.982755  0
O  O205  1  0.32315976  0.89235480  0.67594970  1  -0.502184  0  -0.144223  -0.352731  0  2.014439  0
O  O206  1  0.46030901  0.92011800  0.55990491  1  -0.481108  0  -0.126048  -0.324199  0  1.998429  0
O  O207  1  0.38701636  0.73840669  0.45271279  1  -0.473848  0  -0.145366  -0.346431  0  1.97515  0
O  O208  1  0.83467092  0.67941172  0.40973534  1  -0.490108  0  -0.145348  -0.352744  0  1.948951  0
O  O209  1  0.19433335  0.78218106  0.42693842  1  -0.478137  0  -0.142717  -0.347076  0  1.983313  0
