# generated using pymatgen
data_CrGa3P4H26C8(N3O8)2
_symmetry_space_group_name_H-M   'P 1'
_cell_length_a   13.47204800
_cell_length_b   14.21915062
_cell_length_c   14.21981753
_cell_angle_alpha   110.50378349
_cell_angle_beta   108.41892432
_cell_angle_gamma   108.41298675
_symmetry_Int_Tables_number   1
_chemical_formula_structural   CrGa3P4H26C8(N3O8)2
_chemical_formula_sum   'Cr3 Ga9 P12 H78 C24 N18 O48'
_cell_volume   2123.63407561
_cell_formula_units_Z   3
loop_
 _symmetry_equiv_pos_site_id
 _symmetry_equiv_pos_as_xyz
  1  'x, y, z'
loop_
 _atom_site_type_symbol
 _atom_site_label
 _atom_site_symmetry_multiplicity
 _atom_site_fract_x
 _atom_site_fract_y
 _atom_site_fract_z
 _atom_site_occupancy
 _atom_site_pbe_bader_charge
 _atom_site_pbe_bader_spin_density
 _atom_site_pbe_cm5_charge
 _atom_site_pbe_ddec_charge
 _atom_site_pbe_ddec_spin_density
 _atom_site_pbe_ddec_sum_bond_order
 _atom_site_pbe_magmom
Cr  Cr0  1  0.26707838  0.45801385  0.58852971  1  1.70411  2.802325  1.088843  1.386976  2.905963  2.698325  2.826
Cr  Cr1  1  0.67855541  0.41148863  0.86944570  1  1.70035  2.802746  1.089143  1.387701  2.907722  2.697865  2.825
Cr  Cr2  1  0.80897516  0.13054192  0.54197895  1  1.70275  2.802485  1.089094  1.388294  2.906551  2.695983  2.826
Ga  Ga3  1  0.47976727  0.62553168  0.45615802  1  1.900093  0.000717  0.630867  1.452249  0.000143  2.777899  0.0
Ga  Ga4  1  0.31902209  0.58614243  0.13004185  1  1.840582  3.5e-05  0.587602  1.290766  3.2e-05  2.784579  0.0
Ga  Ga5  1  0.02370065  0.54398524  0.16942598  1  1.897743  0.000715  0.631337  1.453144  0.000143  2.776314  0.0
Ga  Ga6  1  0.18895296  0.86998376  0.45611412  1  1.841923  3.5e-05  0.587378  1.290664  3.2e-05  2.784349  0.0
Ga  Ga7  1  0.85420798  0.83063387  0.37454894  1  1.893333  0.000718  0.631288  1.453476  0.000142  2.775831  0.0
Ga  Ga8  1  0.73288627  0.54389828  0.41386011  1  1.842217  3.5e-05  0.587314  1.290729  3.2e-05  2.785075  0.0
Ga  Ga9  1  0.51873370  0.37192833  0.54280237  1  1.900769  0.000659  0.630399  1.45344  9.3e-05  2.770929  0.001
Ga  Ga10  1  0.97596832  0.45720643  0.82920275  1  1.898878  0.000659  0.630779  1.454461  9.5e-05  2.769385  0.001
Ga  Ga11  1  0.14674912  0.17086496  0.62808975  1  1.896324  0.000659  0.630652  1.454353  9.4e-05  2.770275  0.001
P  P12  1  0.53996801  0.60502177  0.66118819  1  3.639166  0.003083  0.409076  1.49569  0.003982  5.512699  0.004
P  P13  1  0.60161780  0.66654612  0.31176340  1  3.68656  4.8e-05  0.456166  1.548141  5.8e-05  5.472797  0.0
P  P14  1  0.87879674  0.33885463  0.94390623  1  3.64201  0.003126  0.408848  1.49529  0.003982  5.514518  0.004
P  P15  1  0.28998928  0.68837964  0.35478665  1  3.691672  4.7e-05  0.457256  1.550866  5.8e-05  5.468954  0.0
P  P16  1  0.93489670  0.05619593  0.39501277  1  3.631763  0.003103  0.409097  1.496014  0.003974  5.512414  0.004
P  P17  1  0.93510311  0.64523411  0.33344756  1  3.680201  4.9e-05  0.456085  1.54838  5.8e-05  5.473945  0.0
P  P18  1  0.45794654  0.39363631  0.33923269  1  3.631076  3.8e-05  0.416008  1.48331  6.5e-05  5.528329  0.0
P  P19  1  0.39949006  0.33234247  0.68875475  1  3.680161  0.007481  0.441662  1.571707  0.009845  5.451398  0.007
P  P20  1  0.11877422  0.66086308  0.05434452  1  3.645886  3.8e-05  0.415637  1.483692  6.5e-05  5.52668  0.0
P  P21  1  0.71074738  0.31123137  0.64360453  1  3.679002  0.007513  0.441031  1.57134  0.009871  5.451404  0.007
P  P22  1  0.06439771  0.94562204  0.60651473  1  3.636485  3.8e-05  0.415985  1.483536  6.5e-05  5.527016  0.0
P  P23  1  0.06711954  0.35640185  0.66765123  1  3.687302  0.00737  0.441334  1.571246  0.009832  5.449195  0.007
H  H24  1  0.41713161  0.65901801  0.76585573  1  0.511797  0.002301  0.293519  0.304707  0.001042  0.977294  0.003
H  H25  1  0.28711919  0.61019283  0.77033584  1  0.426738  0.003893  0.303778  0.287766  0.001698  0.955213  0.003
H  H26  1  0.24256203  0.54744258  0.46029397  1  0.450282  0.003616  0.305876  0.261421  0.001466  0.962446  0.003
H  H27  1  0.13707804  0.24216032  0.43483071  1  0.472506  0.003214  0.295462  0.297839  0.001699  0.991036  0.004
H  H28  1  0.25685608  0.29437776  0.41931090  1  0.453868  0.003392  0.29987  0.297854  0.001427  0.963174  0.003
H  H29  1  0.35381154  0.72293556  0.64696767  1  0.047585  0.000216  0.115815  0.090001  -0.000103  0.983803  0.0
H  H30  1  0.27677772  0.75225448  0.72596443  1  0.055772  -0.001397  0.112023  0.092165  -0.001402  0.950809  -0.001
H  H31  1  0.13514868  0.64343477  0.51270905  1  0.098015  -0.001188  0.112699  0.113178  -0.001206  1.001675  -0.001
H  H32  1  0.09851204  0.55883767  0.57686273  1  0.052624  2.2e-05  0.112605  0.095258  -0.000266  1.012476  0.0
H  H33  1  0.03404462  0.42513833  0.31795746  1  0.057449  -0.001352  0.110268  0.094512  -0.001369  0.984607  -0.001
H  H34  1  0.01640627  0.36944376  0.41063851  1  0.077447  -4e-05  0.114809  0.102197  -0.000246  0.997537  0.0
H  H35  1  0.04630348  0.24011028  0.26530342  1  0.086033  -0.001585  0.114554  0.100078  -0.001567  0.949721  -0.001
H  H36  1  0.18246200  0.35772738  0.30649098  1  0.072708  0.000253  0.112658  0.094868  -6.7e-05  0.973934  0.0
H  H37  1  0.65125127  0.23413335  0.89305326  1  0.501952  0.002333  0.293226  0.304167  0.001039  0.978002  0.003
H  H38  1  0.51674997  0.22969726  0.83981024  1  0.433338  0.003862  0.304027  0.288717  0.001698  0.954591  0.003
H  H39  1  0.78236391  0.53967253  0.08706655  1  0.475091  0.003525  0.305877  0.261675  0.001466  0.962345  0.003
H  H40  1  0.70229967  0.56520857  0.80732587  1  0.469668  0.003216  0.295522  0.297573  0.001705  0.991304  0.004
H  H41  1  0.83761383  0.58070763  0.87504095  1  0.458462  0.00337  0.299565  0.29694  0.001423  0.962916  0.003
H  H42  1  0.70697932  0.35300549  0.07587917  1  0.073076  0.000213  0.115405  0.089782  -0.000104  0.983975  0.0
H  H43  1  0.55094241  0.27399128  0.02627247  1  0.066591  -0.001391  0.111762  0.0915  -0.001402  0.950458  -0.001
H  H44  1  0.62264214  0.48726676  0.13076481  1  0.126671  -0.001172  0.112826  0.112613  -0.001208  1.001367  -0.001
H  H45  1  0.52172638  0.42311640  0.98205248  1  0.067907  2.1e-05  0.112719  0.094748  -0.000266  1.011497  0.0
H  H46  1  0.71616295  0.68198835  0.10712583  1  0.062826  -0.001345  0.110156  0.09448  -0.001366  0.984  -0.001
H  H47  1  0.60584249  0.58933366  0.95874875  1  0.081614  -4.1e-05  0.114888  0.101737  -0.000246  0.998477  0.0
H  H48  1  0.78107142  0.73468204  0.97478003  1  0.075135  -0.001583  0.114434  0.100058  -0.001566  0.949625  -0.001
H  H49  1  0.87609385  0.69353190  0.05122404  1  0.084656  0.000254  0.11252  0.09524  -6.6e-05  0.973555  0.0
H  H50  1  0.75802415  0.10682008  0.34097489  1  0.495832  0.002347  0.293199  0.304088  0.001042  0.979075  0.003
H  H51  1  0.67684369  0.16018209  0.38974067  1  0.418378  0.003923  0.303871  0.288038  0.0017  0.955314  0.003
H  H52  1  0.69500047  0.91285091  0.45246003  1  0.455875  0.003588  0.306048  0.262181  0.00146  0.962385  0.003
H  H53  1  0.89486506  0.19259489  0.75783250  1  0.50088  0.003089  0.295795  0.297614  0.001694  0.991231  0.004
H  H54  1  0.96242841  0.12490134  0.70557554  1  0.461488  0.003355  0.299795  0.298476  0.001419  0.960931  0.003
H  H55  1  0.63073650  0.92406684  0.27706379  1  0.076259  0.000213  0.115735  0.090321  -0.000103  0.983774  0.0
H  H56  1  0.52437983  0.97373336  0.24766347  1  0.060249  -0.001397  0.11165  0.091791  -0.001401  0.949649  -0.001
H  H57  1  0.49160194  0.86927666  0.35645464  1  0.105328  -0.001188  0.112595  0.113201  -0.001208  1.001121  -0.001
H  H58  1  0.53951308  0.01800203  0.44108919  1  0.069163  2.3e-05  0.112804  0.095196  -0.000267  1.011223  0.0
H  H59  1  0.60881325  0.89275893  0.57473312  1  0.071089  -0.001347  0.110323  0.095013  -0.001369  0.984104  -0.001
H  H60  1  0.64688955  0.04113059  0.63047774  1  0.090014  -4.3e-05  0.115021  0.102481  -0.000247  0.996866  0.0
H  H61  1  0.80615734  0.02505519  0.75976585  1  0.060922  -0.001591  0.11435  0.099606  -0.001567  0.95007  -0.001
H  H62  1  0.82468080  0.94869441  0.64211843  1  0.050853  0.000255  0.112856  0.095356  -6.7e-05  0.974419  0.0
H  H63  1  0.58360058  0.34451174  0.23693123  1  0.488313  3e-06  0.299504  0.30104  -2.1e-05  0.981726  0.0
H  H64  1  0.71269013  0.39351836  0.23075983  1  0.41988  3.6e-05  0.310982  0.285505  -5e-06  0.954387  0.0
H  H65  1  0.76072378  0.45241147  0.54313358  1  0.46775  7e-06  0.310792  0.257907  -1.7e-05  0.967401  0.0
H  H66  1  0.86116623  0.75982794  0.56530795  1  0.499437  9e-06  0.303488  0.297705  1.8e-05  0.989299  0.0
H  H67  1  0.74113436  0.70379599  0.57950165  1  0.471154  -1e-06  0.308591  0.296818  -1.3e-05  0.958739  0.0
H  H68  1  0.64732841  0.27725832  0.35160022  1  0.070785  0.000254  0.116426  0.088083  0.000135  0.986249  0.0
H  H69  1  0.72593113  0.25177887  0.27348218  1  0.055273  9.6e-05  0.112874  0.092023  -2.6e-05  0.952327  0.0
H  H70  1  0.86439031  0.35530914  0.48577229  1  0.099293  0.000348  0.112049  0.115011  -0.000324  1.000917  0.0
H  H71  1  0.90356876  0.44324583  0.42542096  1  0.056664  -3e-06  0.11391  0.092801  -7.8e-05  1.017242  0.0
H  H72  1  0.96766957  0.57874153  0.68530082  1  0.076144  7.9e-05  0.110966  0.094167  2.8e-05  0.987063  0.0
H  H73  1  0.98454154  0.63069950  0.58992104  1  0.074854  2.8e-05  0.116573  0.10006  -1.3e-05  1.003253  0.0
H  H74  1  0.95531220  0.76209577  0.73312956  1  0.094944  5e-06  0.11704  0.103034  2e-06  0.952436  0.0
H  H75  1  0.82000835  0.64585819  0.69557422  1  0.05817  7.7e-05  0.115021  0.096607  -1.6e-05  0.970135  0.0
H  H76  1  0.34677154  0.76308004  0.10756042  1  0.494377  3e-06  0.299045  0.300375  -2.1e-05  0.980843  0.0
H  H77  1  0.48202878  0.76925091  0.16281444  1  0.421348  3.6e-05  0.310896  0.285089  -4e-06  0.955577  0.0
H  H78  1  0.21761123  0.45678212  0.90930027  1  0.461779  7e-06  0.311063  0.258654  -1.7e-05  0.966094  0.0
H  H79  1  0.29579191  0.43473408  0.19461065  1  0.494526  9e-06  0.303833  0.298615  1.8e-05  0.989103  0.0
H  H80  1  0.16154250  0.42046940  0.12428523  1  0.463423  -1e-06  0.308888  0.29778  -1.3e-05  0.957528  0.0
H  H81  1  0.29586381  0.64841226  0.92568569  1  0.054352  0.000255  0.115889  0.087151  0.000135  0.987542  0.0
H  H82  1  0.45261103  0.72650376  0.97835098  1  0.052826  9.6e-05  0.112881  0.091844  -2.6e-05  0.951917  0.0
H  H83  1  0.37865587  0.51422366  0.86961202  1  0.109437  0.000347  0.111801  0.114804  -0.000323  1.000156  0.0
H  H84  1  0.47821607  0.57455166  0.01789923  1  0.063123  -4e-06  0.113811  0.092226  -7.8e-05  1.017186  0.0
H  H85  1  0.28236724  0.31466107  0.89357855  1  0.060767  7.9e-05  0.11088  0.093104  2.8e-05  0.98842  0.0
H  H86  1  0.39466487  0.41006758  0.04090035  1  0.084379  2.8e-05  0.116504  0.099217  -1.3e-05  1.003814  0.0
H  H87  1  0.22219181  0.26688797  0.02915228  1  0.096411  5e-06  0.117082  0.102618  2e-06  0.953418  0.0
H  H88  1  0.12442336  0.30435180  0.95034871  1  0.065885  7.7e-05  0.114721  0.09624  -1.5e-05  0.970869  0.0
H  H89  1  0.23918052  0.89240386  0.65551204  1  0.503921  3e-06  0.299509  0.301137  -2.1e-05  0.981295  0.0
H  H90  1  0.31914747  0.83714089  0.60640609  1  0.432866  3.5e-05  0.31059  0.285637  -5e-06  0.955126  0.0
H  H91  1  0.30833723  0.09073571  0.54762139  1  0.454659  7e-06  0.310935  0.258782  -1.7e-05  0.966547  0.0
H  H92  1  0.10128011  0.80548031  0.24017271  1  0.493761  9e-06  0.303563  0.297882  1.8e-05  0.989274  0.0
H  H93  1  0.03721432  0.87566624  0.29609415  1  0.460873  -1e-06  0.309004  0.298169  -1.2e-05  0.958252  0.0
H  H94  1  0.37024926  0.07428344  0.72280873  1  0.036264  0.000258  0.115858  0.087423  0.000135  0.986886  0.0
H  H95  1  0.47429252  0.02156665  0.74816113  1  0.051406  9.5e-05  0.112993  0.092209  -2.6e-05  0.952658  0.0
H  H96  1  0.50909315  0.13036929  0.64467155  1  0.101019  0.00035  0.11184  0.114932  -0.000324  1.000215  0.0
H  H97  1  0.46027860  0.98209848  0.55667274  1  0.072664  -4e-06  0.11379  0.09242  -7.8e-05  1.017168  0.0
H  H98  1  0.38884601  0.10657891  0.42126482  1  0.057522  7.9e-05  0.110721  0.093519  2.8e-05  0.987987  0.0
H  H99  1  0.35380206  0.95925061  0.36931096  1  0.065912  2.8e-05  0.116473  0.099535  -1.3e-05  1.003093  0.0
H  H100  1  0.19311753  0.97103216  0.23790009  1  0.086376  5e-06  0.117082  0.102788  2e-06  0.952223  0.0
H  H101  1  0.17405667  0.04970207  0.35412573  1  0.081896  7.7e-05  0.114826  0.095941  -1.5e-05  0.97099  0.0
C  C102  1  0.28470390  0.68376153  0.66708510  1  0.273401  0.002938  -0.065998  0.000407  0.001469  3.885867  0.003
C  C103  1  0.16617142  0.60037884  0.55698547  1  0.253863  0.003892  -0.074705  -0.076486  0.002983  3.857674  0.004
C  C104  1  0.07828771  0.40607049  0.38281732  1  0.259163  0.003674  -0.068342  -0.063346  0.002792  3.866375  0.003
C  C105  1  0.12199288  0.32294075  0.33665017  1  0.244345  0.003232  -0.062604  0.015425  0.001204  3.841832  0.003
C  C106  1  0.61772392  0.33288861  0.01663935  1  0.235332  0.002953  -0.06531  0.001369  0.00147  3.885714  0.003
C  C107  1  0.60930754  0.44298812  0.04340908  1  0.217624  0.003851  -0.074792  -0.074306  0.002982  3.856287  0.004
C  C108  1  0.69555968  0.61715888  0.02320646  1  0.247902  0.003683  -0.06813  -0.062178  0.002794  3.867435  0.003
C  C109  1  0.78545070  0.66334445  0.98626111  1  0.244656  0.003233  -0.062835  0.01437  0.001214  3.843923  0.003
C  C110  1  0.60079041  0.98335662  0.31619145  1  0.238501  0.002948  -0.065946  3.7e-05  0.001468  3.886008  0.003
C  C111  1  0.56566670  0.95662911  0.39954385  1  0.231199  0.003872  -0.074569  -0.075033  0.002973  3.856431  0.004
C  C112  1  0.67213632  0.97668994  0.59383191  1  0.234392  0.003674  -0.06828  -0.062835  0.002784  3.865769  0.003
C  C113  1  0.79900795  0.01362895  0.67695124  1  0.292473  0.003236  -0.06282  0.015252  0.001209  3.843495  0.003
C  C114  1  0.71667098  0.31857536  0.33280126  1  0.250409  0.000304  -0.057418  -0.003305  0.00017  3.884011  0.0
C  C115  1  0.83514446  0.40088987  0.44409414  1  0.265513  0.000299  -0.0666  -0.076961  0.000184  3.858982  0.0
C  C116  1  0.92279496  0.59504757  0.61830779  1  0.259529  9.7e-05  -0.059393  -0.065536  6.7e-05  3.874956  0.0
C  C117  1  0.87897224  0.67901952  0.66339752  1  0.257253  3.6e-05  -0.053272  0.006912  1.8e-05  3.838706  0.0
C  C118  1  0.38400201  0.66720841  0.98583237  1  0.2738  0.0003  -0.057077  -0.002189  0.000169  3.884182  0.0
C  C119  1  0.39110736  0.55588245  0.95686536  1  0.258948  0.000301  -0.065905  -0.075985  0.000184  3.85837  0.0
C  C120  1  0.30452164  0.38166202  0.97686351  1  0.265256  9.6e-05  -0.058838  -0.062229  6.7e-05  3.871855  0.0
C  C121  1  0.21558190  0.33657621  0.01573375  1  0.244754  3.6e-05  -0.053585  0.006878  1.8e-05  3.840237  0.0
C  C122  1  0.39819751  0.01413175  0.68142388  1  0.270798  0.000299  -0.056599  -0.00244  0.000169  3.884882  0.0
C  C123  1  0.43423727  0.04312217  0.59907183  1  0.260387  0.0003  -0.066438  -0.076917  0.000185  3.859756  0.0
C  C124  1  0.32770094  0.02327700  0.40496320  1  0.282533  9.6e-05  -0.059237  -0.064495  6.7e-05  3.873814  0.0
C  C125  1  0.19988225  0.98438660  0.32098007  1  0.245147  3.7e-05  -0.053042  0.007769  1.8e-05  3.83798  0.0
N  N126  1  0.32460532  0.62037252  0.72011917  1  -1.171315  -0.000457  -0.651566  -0.613661  -0.01111  3.37642  -0.028
N  N127  1  0.18414208  0.51037214  0.48493487  1  -1.07942  -0.012824  -0.516882  -0.34562  -0.025511  3.521116  -0.04
N  N128  1  0.19112262  0.30967633  0.43158302  1  -1.141771  -0.000286  -0.648397  -0.616332  -0.011385  3.336508  -0.03
N  N129  1  0.60448394  0.27987763  0.90018602  1  -1.163968  -0.000627  -0.651544  -0.614591  -0.011108  3.377087  -0.028
N  N130  1  0.69927684  0.51504426  0.02538953  1  -1.110305  -0.012859  -0.517551  -0.347341  -0.025484  3.522879  -0.04
N  N131  1  0.75960497  0.56843498  0.87806668  1  -1.142559  -0.000387  -0.64814  -0.614862  -0.011378  3.335753  -0.03
N  N132  1  0.70412634  0.09976422  0.37959537  1  -1.145579  -0.000716  -0.651172  -0.613706  -0.011081  3.37776  -0.028
N  N133  1  0.67367010  0.97456794  0.48955938  1  -1.084904  -0.012901  -0.517572  -0.34867  -0.02549  3.523663  -0.04
N  N134  1  0.88139032  0.12187007  0.69028635  1  -1.177979  -0.000256  -0.648604  -0.616899  -0.011382  3.335805  -0.03
N  N135  1  0.67618896  0.38236735  0.28132109  1  -1.161337  3.1e-05  -0.586808  -0.577403  -1.7e-05  3.364026  0.0
N  N136  1  0.81798434  0.48984557  0.51780437  1  -1.135455  2e-06  -0.452888  -0.324445  -2.1e-05  3.512801  0.0
N  N137  1  0.80867637  0.69139032  0.56859346  1  -1.20279  3.8e-05  -0.579688  -0.570901  2.7e-05  3.318305  0.0
N  N138  1  0.39496412  0.71869154  0.10107196  1  -1.170034  3e-05  -0.586341  -0.576329  -1.7e-05  3.364083  0.0
N  N139  1  0.30020575  0.48215231  0.97210280  1  -1.140038  2e-06  -0.453412  -0.32587  -2e-05  3.510886  0.0
N  N140  1  0.24003417  0.43141287  0.12285031  1  -1.184508  3.7e-05  -0.580423  -0.572998  2.6e-05  3.318454  0.0
N  N141  1  0.29386430  0.89889745  0.61762479  1  -1.181253  3e-05  -0.586679  -0.577886  -1.7e-05  3.364658  0.0
N  N142  1  0.32811589  0.02795044  0.51016053  1  -1.122298  2e-06  -0.452855  -0.324302  -2.1e-05  3.512378  0.0
N  N143  1  0.11719217  0.87719211  0.30858147  1  -1.185036  3.7e-05  -0.580239  -0.572513  2.7e-05  3.319046  0.0
O  O144  1  0.40519940  0.52350149  0.56996941  1  -1.431739  0.046189  -0.397144  -0.889267  0.033034  2.444141  0.01
O  O145  1  0.58684468  0.67687135  0.60601613  1  -1.399171  -0.001748  -0.328008  -0.76552  -0.002611  2.205341  -0.002
O  O146  1  0.60093551  0.52523860  0.65791640  1  -1.401655  0.003911  -0.321868  -0.782638  0.002291  2.288563  0.003
O  O147  1  0.56662023  0.67855483  0.78069999  1  -1.471117  0.003596  -0.394904  -0.767271  0.002221  1.986531  0.003
O  O148  1  0.58633881  0.70901424  0.42098644  1  -1.428632  4.8e-05  -0.321795  -0.793033  -0.000178  2.30643  0.0
O  O149  1  0.69044356  0.77907235  0.32320006  1  -1.421961  0.001311  -0.327352  -0.786337  0.000779  2.23943  0.001
O  O150  1  0.48546485  0.60518574  0.20082241  1  -1.469761  7.1e-05  -0.33183  -0.796255  3.7e-05  2.33157  0.0
O  O151  1  0.65957937  0.58906400  0.30995884  1  -1.459404  -6e-06  -0.325711  -0.809908  -5.1e-05  2.399173  0.0
O  O152  1  0.83523761  0.43003651  0.95349640  1  -1.419782  0.046037  -0.397009  -0.88863  0.03305  2.443245  0.01
O  O153  1  0.98091684  0.39415069  0.07093527  1  -1.404429  -0.001734  -0.328063  -0.765932  -0.002608  2.207135  -0.002
O  O154  1  0.94297267  0.34203470  0.86733329  1  -1.409536  0.003917  -0.322426  -0.783439  0.002294  2.288404  0.003
O  O155  1  0.78594079  0.21934519  0.89804651  1  -1.473642  0.003599  -0.394566  -0.766846  0.002226  1.985721  0.003
O  O156  1  0.16549382  0.57907705  0.28798363  1  -1.431923  5e-05  -0.322121  -0.79411  -0.000177  2.303849  0.0
O  O157  1  0.36743189  0.67700624  0.45589761  1  -1.424664  0.001311  -0.327298  -0.786799  0.000779  2.240261  0.001
O  O158  1  0.28464663  0.79923224  0.40434469  1  -1.469825  7.2e-05  -0.33219  -0.797274  3.7e-05  2.330444  0.0
O  O159  1  0.34972932  0.69021898  0.27909011  1  -1.461372  -7e-06  -0.326121  -0.810132  -5.2e-05  2.397528  0.0
O  O160  1  0.88171429  0.04658142  0.47657193  1  -1.421543  0.046285  -0.397168  -0.888529  0.033017  2.441753  0.01
O  O161  1  0.90987880  0.92915085  0.32320993  1  -1.399037  -0.001734  -0.328503  -0.766865  -0.002602  2.206218  -0.002
O  O162  1  0.07567795  0.13268160  0.47477269  1  -1.407154  0.003918  -0.322616  -0.78385  0.002289  2.288602  0.003
O  O163  1  0.88796994  0.10212847  0.32142164  1  -1.46805  0.003601  -0.394375  -0.766815  0.002223  1.985742  0.003
O  O164  1  0.87735223  0.71203664  0.29102985  1  -1.429847  4.9e-05  -0.321777  -0.793796  -0.000177  2.305773  0.0
O  O165  1  0.91146432  0.54421854  0.22092121  1  -1.424199  0.00132  -0.327433  -0.786527  0.000781  2.240575  0.001
O  O166  1  0.88025553  0.59554931  0.39470398  1  -1.468384  7.2e-05  -0.332344  -0.796414  3.7e-05  2.331066  0.0
O  O167  1  0.07056802  0.72090978  0.41098529  1  -1.453315  -6e-06  -0.325002  -0.808968  -5.1e-05  2.399285  0.0
O  O168  1  0.59149401  0.47693318  0.43135844  1  -1.472584  0.00011  -0.332443  -0.868718  8e-05  2.413975  0.0
O  O169  1  0.41055250  0.32048584  0.39326122  1  -1.398885  0.001068  -0.328613  -0.765148  0.000533  2.203944  0.001
O  O170  1  0.39479613  0.47190105  0.34123204  1  -1.398969  0.000714  -0.322143  -0.783989  0.000252  2.288423  0.0
O  O171  1  0.43340921  0.32125882  0.22014350  1  -1.473397  0.000105  -0.394784  -0.770671  6.6e-05  1.993074  0.0
O  O172  1  0.41420100  0.28794520  0.57937752  1  -1.425945  0.005459  -0.322585  -0.79067  0.003302  2.294326  0.004
O  O173  1  0.31022097  0.22082262  0.67853236  1  -1.422399  0.003891  -0.327022  -0.786621  0.001914  2.227822  0.002
O  O174  1  0.51638136  0.39303022  0.79949204  1  -1.443054  0.047566  -0.394469  -0.819412  0.03228  2.359667  0.012
O  O175  1  0.34397517  0.41137046  0.69130383  1  -1.429703  0.060135  -0.397026  -0.848895  0.043396  2.41148  0.021
O  O176  1  0.16016870  0.56872240  0.04545257  1  -1.47093  0.00011  -0.332434  -0.869317  8e-05  2.414703  0.0
O  O177  1  0.01717949  0.60673617  0.92721517  1  -1.404256  0.001072  -0.328379  -0.765164  0.000534  2.203904  0.001
O  O178  1  0.05380745  0.65893592  0.13075047  1  -1.408222  0.00071  -0.322517  -0.784192  0.000251  2.288061  0.0
O  O179  1  0.21332097  0.77992588  0.10091871  1  -1.474761  0.000105  -0.394337  -0.770455  6.6e-05  1.991526  0.0
O  O180  1  0.83488926  0.42055200  0.70856490  1  -1.43163  0.00547  -0.322753  -0.791153  0.003298  2.295153  0.004
O  O181  1  0.63177335  0.32152797  0.54233404  1  -1.423559  0.003899  -0.327012  -0.786156  0.001919  2.22698  0.002
O  O182  1  0.71674634  0.20041823  0.59351197  1  -1.437594  0.047809  -0.394024  -0.819118  0.032277  2.360331  0.012
O  O183  1  0.65265700  0.30872714  0.72005586  1  -1.428679  0.060078  -0.396775  -0.849119  0.04344  2.412357  0.021
O  O184  1  0.11466607  0.95448921  0.52326191  1  -1.46631  0.000109  -0.332777  -0.869141  8e-05  2.413693  0.0
O  O185  1  0.08996585  0.07275184  0.67951109  1  -1.400085  0.00107  -0.328344  -0.764993  0.000534  2.203907  0.001
O  O186  1  0.92299953  0.86921668  0.52815401  1  -1.407993  0.00071  -0.322455  -0.784373  0.000251  2.288359  0.0
O  O187  1  0.11234187  0.89903834  0.67900745  1  -1.471047  0.000105  -0.39442  -0.77055  6.6e-05  1.992091  0.0
O  O188  1  0.12621697  0.29140520  0.71206816  1  -1.427047  0.005467  -0.322842  -0.791207  0.003306  2.294054  0.004
O  O189  1  0.08941951  0.45770664  0.77916608  1  -1.423615  0.003892  -0.327275  -0.786697  0.001914  2.2278  0.002
O  O190  1  0.12333016  0.40642139  0.60695547  1  -1.436489  0.047506  -0.39358  -0.81861  0.032255  2.360079  0.012
O  O191  1  0.93253685  0.27996292  0.58863893  1  -1.440263  0.060058  -0.397355  -0.849083  0.043404  2.409673  0.021
