# generated using pymatgen
data_NiH18C12S4(NO)2
_symmetry_space_group_name_H-M   'P 1'
_cell_length_a   6.59798250
_cell_length_b   6.93138252
_cell_length_c   9.97278178
_cell_angle_alpha   102.56555742
_cell_angle_beta   100.79393747
_cell_angle_gamma   103.66828203
_symmetry_Int_Tables_number   1
_chemical_formula_structural   NiH18C12S4(NO)2
_chemical_formula_sum   'Ni1 H18 C12 S4 N2 O2'
_cell_volume   418.63266238
_cell_formula_units_Z   1
loop_
 _symmetry_equiv_pos_site_id
 _symmetry_equiv_pos_as_xyz
  1  'x, y, z'
loop_
 _atom_site_type_symbol
 _atom_site_label
 _atom_site_symmetry_multiplicity
 _atom_site_fract_x
 _atom_site_fract_y
 _atom_site_fract_z
 _atom_site_occupancy
 _atom_site_hle17_ddec_charge
 _atom_site_hle17_ddec_spin_density
 _atom_site_hle17_ddec_sum_bond_order
 _atom_site_hle17_magmom
 _atom_site_hse06_10hf_ddec_charge
 _atom_site_hse06_10hf_ddec_spin_density
 _atom_site_hse06_10hf_ddec_sum_bond_order
 _atom_site_hse06_10hf_magmom
 _atom_site_hse06_ddec_charge
 _atom_site_hse06_ddec_spin_density
 _atom_site_hse06_ddec_sum_bond_order
 _atom_site_hse06_magmom
 _atom_site_pbe_cm5_charge
 _atom_site_pbe_ddec_charge
 _atom_site_pbe_ddec_spin_density
 _atom_site_pbe_ddec_sum_bond_order
 _atom_site_pbe_magmom
Ni  Ni0  1  0.00000618  0.00000001  0.99999977  1  0.322086  -1.573127  2.640592  -1.246  0.35252  -1.657239  3.038236  -1.372  0.441159  -1.752785  2.979039  -1.506  0.437634  0.307685  -1.584244  3.069813  -1.275
H  H1  1  0.19603183  0.05720584  0.51351966  1  0.022943  -0.001247  0.934533  0.0  0.035604  -0.001563  0.998245  0.0  0.036152  -0.001136  0.997328  0.0  0.096029  0.035602  -0.001781  0.998061  0.0
H  H2  1  0.80397129  0.94278529  0.48648554  1  0.022974  -0.001248  0.934586  0.0  0.035626  -0.001563  0.998311  0.0  0.036175  -0.001136  0.997393  0.0  0.096056  0.035618  -0.001781  0.998131  0.0
H  H3  1  0.59779652  0.14754767  0.62142435  1  0.115943  0.000163  0.962468  0.0  0.13373  0.000123  1.026665  0.0  0.135429  0.000108  1.026258  0.0  0.089444  0.132443  0.000137  1.026944  0.0
H  H4  1  0.40221029  0.85247121  0.37859457  1  0.115829  0.000166  0.962463  0.0  0.133627  0.000123  1.026673  0.0  0.135302  0.000108  1.026294  0.0  0.089352  0.132341  0.000137  1.026955  0.0
H  H5  1  0.60332400  0.41131035  0.68392668  1  0.113899  0.000107  0.953834  0.0  0.132866  4.8e-05  1.016563  0.0  0.133839  5.3e-05  1.017532  0.0  0.086095  0.132256  8.1e-05  1.015616  0.0
H  H6  1  0.39666031  0.58870546  0.31607794  1  0.113866  0.000109  0.953834  0.0  0.13282  4.8e-05  1.016589  0.0  0.133794  5.3e-05  1.017556  0.0  0.08607  0.13221  8.1e-05  1.015643  0.0
H  H7  1  0.45429707  0.21675305  0.74815804  1  0.104505  1.7e-05  0.965072  0.0  0.124443  -9.8e-05  1.032734  0.0  0.125091  -3e-05  1.033316  0.0  0.082132  0.123792  -0.000247  1.032772  0.0
H  H8  1  0.54569232  0.78326430  0.25184945  1  0.10442  2.1e-05  0.965095  0.0  0.124371  -9.8e-05  1.032751  0.0  0.12502  -3e-05  1.033331  0.0  0.082113  0.123722  -0.000247  1.032787  0.0
H  H9  1  0.28847911  0.53006399  0.59872640  1  0.121455  -0.000579  0.968201  0.0  0.135835  -0.00077  1.037702  0.0  0.138623  -0.000584  1.036021  0.0  0.085578  0.133804  -0.000939  1.038926  0.0
H  H10  1  0.71150041  0.46992561  0.40126560  1  0.121399  -0.000581  0.968239  0.0  0.135805  -0.00077  1.037713  0.0  0.138593  -0.000585  1.036033  0.0  0.085553  0.133767  -0.00094  1.038944  0.0
H  H11  1  0.04550741  0.35008935  0.48166835  1  0.110325  -0.001015  0.99237  0.0  0.131147  -0.001102  1.053782  0.0  0.13307  -0.000815  1.053658  0.0  0.080571  0.129678  -0.001257  1.054003  0.0
H  H12  1  0.95447967  0.64988946  0.51832294  1  0.110354  -0.001015  0.992331  0.0  0.131157  -0.001102  1.053767  0.0  0.133104  -0.000815  1.053619  0.0  0.080582  0.12969  -0.001257  1.053985  0.0
H  H13  1  0.11576397  0.35055785  0.66188600  1  0.105224  0.000174  0.969319  0.0  0.124654  6.6e-05  1.036399  0.0  0.124947  5.2e-05  1.037981  0.0  0.084118  0.124424  8e-05  1.035563  0.0
H  H14  1  0.88422019  0.64943174  0.33810857  1  0.105257  0.000172  0.969277  0.0  0.124664  6.6e-05  1.0364  0.0  0.124958  5.2e-05  1.037976  0.0  0.084112  0.124427  8e-05  1.03557  0.0
H  H15  1  0.73193702  0.28463139  0.08422318  1  0.087836  -0.001869  0.992504  -0.002  0.091994  -0.00192  1.066596  -0.001  0.0957  -0.001354  1.063156  -0.001  0.102804  0.089014  -0.00254  1.069966  -0.002
H  H16  1  0.26807803  0.71537372  0.91576859  1  0.087827  -0.00187  0.992264  -0.002  0.091987  -0.001922  1.066352  -0.001  0.095694  -0.001356  1.062903  -0.001  0.102782  0.089015  -0.002543  1.069723  -0.002
H  H17  1  0.27123071  0.35425917  0.92054559  1  0.089397  -0.001065  0.948237  -0.001  0.096642  -0.001163  1.013807  -0.001  0.099667  -0.000824  1.010744  -0.001  0.115217  0.093996  -0.001611  1.017256  -0.001
H  H18  1  0.72878248  0.64573975  0.07944901  1  0.089302  -0.001062  0.948497  -0.001  0.096554  -0.001163  1.014056  -0.001  0.099577  -0.000823  1.010993  -0.001  0.115191  0.093904  -0.00161  1.017506  -0.001
C  C19  1  0.25151918  0.14809754  0.27969746  1  0.307632  0.023586  3.809464  0.018  0.288662  0.008603  4.132052  0.007  0.323727  0.008762  4.131424  0.007  0.109681  0.265103  0.007723  4.131779  0.007
C  C20  1  0.74848688  0.85189825  0.72030380  1  0.307739  0.023585  3.809446  0.018  0.288792  0.008605  4.131991  0.007  0.323854  0.008762  4.131364  0.007  0.109716  0.265228  0.007723  4.131721  0.007
C  C21  1  0.30305058  0.21531093  0.53777957  1  0.306301  -0.002739  3.559782  -0.003  0.288483  -0.00308  3.812865  -0.003  0.297863  -0.00233  3.821826  -0.003  0.003117  0.281822  -0.002595  3.806372  -0.002
C  C22  1  0.69694977  0.78468639  0.46222122  1  0.306234  -0.002736  3.559839  -0.003  0.28841  -0.00308  3.812934  -0.003  0.297788  -0.00233  3.821896  -0.003  0.003115  0.281755  -0.002596  3.806434  -0.002
C  C23  1  0.50262499  0.25052545  0.65429476  1  -0.350451  0.000152  3.660595  0.0  -0.432304  -0.000131  3.903037  0.0  -0.434783  -2.6e-05  3.911426  0.0  -0.252975  -0.429879  -0.000112  3.896776  0.0
C  C24  1  0.49737273  0.74948881  0.34571530  1  -0.35018  0.000134  3.660608  0.0  -0.43208  -0.000132  3.903072  0.0  -0.434543  -2.6e-05  3.91148  0.0  -0.252856  -0.429648  -0.000112  3.89679  0.0
C  C25  1  0.18130057  0.37228217  0.57101850  1  -0.377456  -0.001838  3.685443  -0.002  -0.457885  -0.00223  3.921218  -0.002  -0.461643  -0.001654  3.929312  -0.002  -0.261927  -0.45474  -0.002704  3.915511  -0.002
C  C26  1  0.81868621  0.62770589  0.42897517  1  -0.377444  -0.001831  3.685394  -0.002  -0.457869  -0.002231  3.921148  -0.002  -0.461646  -0.001654  3.92922  -0.002  -0.261906  -0.45471  -0.002704  3.915457  -0.002
C  C27  1  0.85154695  0.38035545  0.04572790  1  0.076622  0.003853  3.646836  0.002  0.052095  0.000276  3.890905  0.0  0.057843  0.000913  3.904223  0.0  0.049599  0.046605  -0.000164  3.886152  -0.001
C  C28  1  0.14844412  0.61962641  0.95427338  1  0.076747  0.00379  3.647365  0.002  0.052228  0.000273  3.891557  0.0  0.05798  0.00091  3.904889  0.0  0.049661  0.046721  -0.000167  3.886818  -0.001
C  C29  1  0.14962158  0.41971020  0.95622707  1  0.072977  0.004826  3.662036  0.002  0.047772  0.001068  3.908807  0.0  0.053768  0.001371  3.922608  0.001  0.050011  0.042152  0.000829  3.903675  0.0
C  C30  1  0.85038483  0.58030722  0.04377052  1  0.073184  0.00478  3.661532  0.002  0.048008  0.001071  3.908296  0.0  0.054015  0.001373  3.922104  0.001  0.05007  0.042403  0.000831  3.90312  0.0
S  S31  1  0.36857286  0.13254550  0.14111462  1  -0.297396  -0.101332  2.124211  -0.12  -0.323945  -0.071152  2.483216  -0.084  -0.357345  -0.052195  2.477761  -0.068  -0.151127  -0.301464  -0.085376  2.48676  -0.094
S  S32  1  0.63143799  0.86746110  0.85888889  1  -0.297421  -0.101336  2.124186  -0.12  -0.324021  -0.071155  2.483242  -0.084  -0.35742  -0.052196  2.477785  -0.068  -0.151143  -0.301542  -0.08538  2.486791  -0.094
S  S33  1  0.97896307  0.06429953  0.24437329  1  -0.285621  -0.097791  2.166815  -0.117  -0.302752  -0.068353  2.521084  -0.083  -0.334534  -0.050072  2.516513  -0.067  -0.127632  -0.282746  -0.082403  2.524329  -0.093
S  S34  1  0.02104316  0.93569165  0.75562327  1  -0.285691  -0.097794  2.166892  -0.117  -0.30284  -0.068355  2.521156  -0.083  -0.334623  -0.050072  2.516592  -0.067  -0.127637  -0.282827  -0.082404  2.524396  -0.093
N  N35  1  0.00124795  0.29889224  0.00152084  1  -0.205344  -0.039314  3.376481  -0.058  -0.149704  -0.030723  3.633337  -0.046  -0.172169  -0.025094  3.657479  -0.04  -0.309072  -0.137476  -0.034527  3.620438  -0.049
N  N36  1  0.99877497  0.70110824  0.99847221  1  -0.205542  -0.03928  3.376723  -0.058  -0.149984  -0.030721  3.633658  -0.046  -0.172467  -0.025091  3.657813  -0.04  -0.309242  -0.137752  -0.034525  3.620774  -0.049
O  O37  1  0.38385032  0.22623225  0.40945562  1  -0.279841  0.002516  2.311865  0.003  -0.193527  0.000722  2.529899  0.001  -0.215754  0.001248  2.530106  0.002  -0.150412  -0.178168  -0.000467  2.529255  0.0
O  O38  1  0.61615218  0.77376197  0.59054897  1  -0.279891  0.002515  2.311875  0.003  -0.193584  0.000722  2.529928  0.001  -0.215806  0.001248  2.530123  0.002  -0.150473  -0.178223  -0.000468  2.529286  0.0
