# generated using pymatgen
data_Zn2H37C43(N2O)4
_symmetry_space_group_name_H-M   'P 1'
_cell_length_a   19.87553963
_cell_length_b   19.61118331
_cell_length_c   19.91033202
_cell_angle_alpha   105.08444777
_cell_angle_beta   110.79435345
_cell_angle_gamma   112.21631330
_symmetry_Int_Tables_number   1
_chemical_formula_structural   Zn2H37C43(N2O)4
_chemical_formula_sum   'Zn4 H74 C86 N16 O8'
_cell_volume   5978.30986432
_cell_formula_units_Z   2
loop_
 _symmetry_equiv_pos_site_id
 _symmetry_equiv_pos_as_xyz
  1  'x, y, z'
loop_
 _atom_site_type_symbol
 _atom_site_label
 _atom_site_symmetry_multiplicity
 _atom_site_fract_x
 _atom_site_fract_y
 _atom_site_fract_z
 _atom_site_occupancy
 _atom_site_pbe_bader_charge
 _atom_site_pbe_bader_spin_density
 _atom_site_pbe_cm5_charge
 _atom_site_pbe_ddec_charge
 _atom_site_pbe_ddec_spin_density
 _atom_site_pbe_ddec_sum_bond_order
 _atom_site_pbe_magmom
Zn  Zn0  1  0.89101884  0.88086303  0.49535835  1  1.217067  0  0.755119  0.703832  0  2.258591  0
Zn  Zn1  1  0.10680492  0.10593894  0.49733830  1  1.202297  0  0.758539  0.65111  0  2.470017  0
Zn  Zn2  1  0.09915419  0.00668059  0.60911330  1  1.194379  0  0.743585  0.612726  0  2.454152  0
Zn  Zn3  1  0.89914765  0.98140884  0.38656578  1  1.19086  0  0.746216  0.609232  0  2.482774  0
H  H4  1  0.32176637  0.77047106  0.40166647  1  0.055754  0  0.103054  0.117648  0  0.995973  0
H  H5  1  0.72287893  0.60993639  0.98075391  1  0.060769  0  0.104148  0.108694  0  0.98955  0
H  H6  1  0.84005093  0.04731883  0.87438680  1  0.070306  0  0.103908  0.107219  0  0.991974  0
H  H7  1  0.11200790  0.24230875  0.13340552  1  0.091278  0  0.101871  0.104862  0  0.995252  0
H  H8  1  0.84781465  0.05480231  0.00352567  1  0.059524  0  0.103397  0.106326  0  0.992825  0
H  H9  1  0.10440631  0.23460695  0.00433003  1  0.077786  0  0.104446  0.108131  0  0.989811  0
H  H10  1  0.11853707  0.25498290  0.62419254  1  0.093456  0  0.121634  0.112083  0  0.988779  0
H  H11  1  0.88793744  0.71218350  0.50644281  1  0.104719  0  0.118898  0.105881  0  1.02195  0
H  H12  1  0.29037717  0.14447093  0.77374082  1  0.081776  0  0.121954  0.112614  0  0.984583  0
H  H13  1  0.90550572  0.85968568  0.24264466  1  0.109242  0  0.121963  0.113205  0  0.987287  0
H  H14  1  0.70563941  0.95290944  0.31053350  1  0.083739  0  0.119206  0.110007  0  0.991823  0
H  H15  1  0.47790369  0.02384162  0.38516969  1  0.085077  0  0.102803  0.11558  0  0.994075  0
H  H16  1  0.13275262  0.87104537  0.52151885  1  0.120076  0  0.118901  0.110274  0  1.002992  0
H  H17  1  0.71309688  0.86313714  0.48848590  1  0.134688  0  0.120346  0.113631  0  1.007761  0
H  H18  1  0.14410608  0.00299075  0.37775091  1  0.087845  0  0.118831  0.105802  0  1.015628  0
H  H19  1  0.84664601  0.08919946  0.48708409  1  0.152776  0  0.122144  0.114836  0  1.003331  0
H  H20  1  0.14853390  0.88828197  0.69496835  1  0.098625  0  0.121207  0.112213  0  0.989401  0
H  H21  1  0.11026726  0.14800065  0.75082960  1  0.113617  0  0.121461  0.113276  0  0.989491  0
H  H22  1  0.86557009  0.01824265  0.22772233  1  0.076473  0  0.123483  0.114377  0  0.983303  0
H  H23  1  0.76694591  0.86456331  0.66929611  1  0.046453  0  0.107259  0.077881  0  0.957979  0
H  H24  1  0.87834583  0.92084495  0.73658254  1  0.062685  0  0.102829  0.069862  0  0.980501  0
H  H25  1  0.78283686  0.77977652  0.56460024  1  0.017944  0  0.087436  0.07695  0  0.979704  0
H  H26  1  0.11779864  0.48512458  0.70880595  1  0.059083  0  0.103067  0.105834  0  0.991055  0
H  H27  1  0.89348078  0.83735150  0.62984242  1  0.036639  0  0.089156  0.082302  0  1.036081  0
H  H28  1  0.87770385  0.78285760  0.72767225  1  0.019052  0  0.088628  0.115747  0  0.995363  0
H  H29  1  0.83111342  0.70169699  0.63085486  1  0.017938  0  0.08824  0.116674  0  1.002665  0
H  H30  1  0.76617863  0.72408254  0.66349542  1  0.013918  0  0.083483  0.105559  0  1.006253  0
H  H31  1  0.25341700  0.24534042  0.36659491  1  0.09092  0  0.108648  0.079091  0  0.95584  0
H  H32  1  0.15341971  0.20012066  0.27852779  1  0.072666  0  0.098447  0.064769  0  1.010486  0
H  H33  1  0.22761267  0.10582716  0.34827660  1  0.02528  0  0.095291  0.089811  0  0.973646  0
H  H34  1  0.12467210  0.05853983  0.26520574  1  0.034633  0  0.093108  0.086402  0  0.981563  0
H  H35  1  0.18487241  0.11350722  0.18614513  1  0.038173  0  0.087757  0.113973  0  1.002031  0
H  H36  1  0.22494185  0.05351564  0.21794594  1  0.04003  0  0.090772  0.119769  0  1.010964  0
H  H37  1  0.87212468  0.49885715  0.54444365  1  0.049001  0  0.101276  0.103062  0  0.994979  0
H  H38  1  0.28888148  0.16308400  0.26899278  1  0.021699  0  0.084877  0.106493  0  1.004329  0
H  H39  1  0.55147199  0.12315556  0.53654195  1  0.019987  0  0.093223  0.051019  0  0.978797  0
H  H40  1  0.56990846  0.06344605  0.58680973  1  0.051511  0  0.099362  0.061994  0  0.986059  0
H  H41  1  0.51104961  0.18341449  0.63227321  1  0.032711  0  0.093668  0.087845  0  0.967807  0
H  H42  1  0.52865809  0.12367925  0.68138995  1  0.032469  0  0.09131  0.081628  0  0.973399  0
H  H43  1  0.68265588  0.19733317  0.72066422  1  0.023166  0  0.086105  0.110685  0  1.003754  0
H  H44  1  0.65466873  0.26854174  0.75790626  1  0.040051  0  0.089394  0.118219  0  0.999376  0
H  H45  1  0.66545067  0.25775819  0.67161746  1  0.015281  0  0.084712  0.10798  0  1.007085  0
H  H46  1  0.25511269  0.68433988  0.15044563  1  0.042958  0  0.100137  0.063105  0  0.964893  0
H  H47  1  0.23073874  0.72012382  0.22507997  1  0.038346  0  0.103417  0.068754  0  0.977958  0
H  H48  1  0.13757056  0.61961420  0.71360832  1  0.066686  0  0.103436  0.107056  0  0.992024  0
H  H49  1  0.30356101  0.60710613  0.21851269  1  0.025948  0  0.092732  0.086509  0  0.970426  0
H  H50  1  0.27400458  0.63813302  0.28934944  1  -0.00537  0  0.088263  0.077513  0  0.987687  0
H  H51  1  0.12217040  0.56416438  0.17577225  1  0.00982  0  0.087  0.111841  0  1.001754  0
H  H52  1  0.15897549  0.49479624  0.17774773  1  0.012886  0  0.087317  0.114586  0  1.003307  0
H  H53  1  0.15211809  0.53226678  0.10497318  1  0.013848  0  0.085539  0.108414  0  1.005176  0
H  H54  1  0.41900278  0.37884003  0.69465737  1  0.044816  0  0.100403  0.062778  0  0.978135  0
H  H55  1  0.33170982  0.37876892  0.70100993  1  0.040641  0  0.102002  0.061356  0  0.962175  0
H  H56  1  0.27496137  0.37861640  0.56559523  1  0.058704  0  0.095862  0.132013  0  0.991191  0
H  H57  1  0.37882828  0.46630462  0.63517620  1  0.035736  0  0.095498  0.126698  0  0.994526  0
H  H58  1  0.36245243  0.37938139  0.55953265  1  0.037429  0  0.094211  0.128279  0  0.992926  0
H  H59  1  0.85223273  0.36427427  0.53944343  1  0.076647  0  0.104383  0.108053  0  0.990733  0
H  H60  1  0.81370411  0.59280124  0.29059903  1  0.067237  0  0.105111  0.068373  0  0.957775  0
H  H61  1  0.72572242  0.60422990  0.24733956  1  0.069747  0  0.105464  0.072086  0  0.9722  0
H  H62  1  0.68806816  0.58155499  0.35059286  1  0.028548  0  0.094255  0.127348  0  0.992802  0
H  H63  1  0.69122565  0.49625300  0.29588944  1  0.04294  0  0.097604  0.130449  0  0.99102  0
H  H64  1  0.77621627  0.57043025  0.39534197  1  0.042896  0  0.093489  0.125535  0  1.001903  0
H  H65  1  0.42357211  0.83542502  0.55822392  1  0.025572  0  0.093786  0.048677  0  0.972327  0
H  H66  1  0.47024640  0.94495703  0.60460454  1  0.047259  0  0.098725  0.057633  0  0.984976  0
H  H67  1  0.61176058  0.96285782  0.68436011  1  0.064642  0  0.09238  0.12507  0  0.996168  0
H  H68  1  0.53613386  0.89917514  0.70311978  1  0.021917  0  0.091045  0.120127  0  1.001144  0
H  H69  1  0.56562276  0.85354626  0.63753015  1  0.02567  0  0.089983  0.121101  0  0.998697  0
H  H70  1  0.69055705  0.46592159  0.11018446  1  0.04589  0  0.101274  0.103039  0  0.998849  0
H  H71  1  0.33895072  0.85449272  0.18728794  1  0.04659  0  0.099036  0.059708  0  0.982581  0
H  H72  1  0.38311596  0.96352409  0.23513533  1  0.043945  0  0.092836  0.046813  0  0.976657  0
H  H73  1  0.24275087  0.94394287  0.14780016  1  0.044098  0  0.088998  0.118303  0  1.017305  0
H  H74  1  0.27874825  0.90136955  0.08781212  1  0.026314  0  0.092069  0.121603  0  0.998808  0
H  H75  1  0.19842769  0.83491994  0.10007920  1  0.041312  0  0.093356  0.126735  0  0.993089  0
H  H76  1  0.59460042  0.49066533  0.85528102  1  0.062531  0  0.101564  0.10355  0  0.996918  0
H  H77  1  0.56191706  0.34695644  0.98485366  1  0.05497  0  0.102888  0.105219  0  0.991608  0
C  C78  1  0.91440583  0.99184193  0.65392879  1  1.056552  0  0.193012  0.304059  0  4.056872  0
C  C79  1  0.37553995  0.82964269  0.32786688  1  0.585918  0  0.081606  0.156224  0  3.758991  0
C  C80  1  0.45158221  0.89810911  0.46125310  1  0.590891  0  0.082218  0.155473  0  3.753743  0
C  C81  1  0.34848955  0.89632067  0.32583653  1  0.591734  0  0.080381  0.151447  0  3.761145  0
C  C82  1  0.60366176  0.90737955  0.38971689  1  -0.246821  0  -0.065073  -0.119447  0  4.203554  0
C  C83  1  0.20739315  0.89723824  0.41540213  1  -0.235311  0  -0.063385  -0.117067  0  4.18763  0
C  C84  1  0.44262602  0.96800662  0.38887359  1  -0.113409  0  -0.094094  -0.231503  0  3.665777  0
C  C85  1  0.35735844  0.82633768  0.39815683  1  -0.07799  0  -0.093564  -0.233016  0  3.659048  0
C  C86  1  0.46990238  0.90225270  0.39090721  1  0.11702  0  -0.004158  0.050387  0  3.84233  0
C  C87  1  0.32999473  0.89211468  0.39619906  1  0.106848  0  -0.002527  0.049475  0  3.829618  0
C  C88  1  0.54188982  0.90641778  0.38950663  1  -0.102646  0  -0.062345  -0.099497  0  4.146146  0
C  C89  1  0.07112510  0.13730810  0.34672813  1  1.081101  0  0.193364  0.296923  0  4.095299  0
C  C90  1  0.26038862  0.88988164  0.40222346  1  -0.084061  0  -0.064057  -0.102886  0  4.131243  0
C  C91  1  0.07517076  0.56357782  0.67595155  1  -0.049979  0  -0.089634  -0.132203  0  3.98558  0
C  C92  1  0.91447390  0.42042581  0.57804732  1  -0.01751  0  -0.088162  -0.129821  0  3.980328  0
C  C93  1  0.05388417  0.20334341  0.58496565  1  0.440674  0  0.019001  -0.038916  0  3.940677  0
C  C94  1  0.95016264  0.76624623  0.55015308  1  0.434193  0  0.01824  -0.036694  0  3.959802  0
C  C95  1  0.00635223  0.56838852  0.62874364  1  0.114981  0  -0.006244  0.138345  0  4.131584  0
C  C96  1  0.98380167  0.41504657  0.62321727  1  0.050277  0  -0.004974  0.138677  0  4.121927  0
C  C97  1  0.92557915  0.49540612  0.58065268  1  -0.019934  0  -0.089988  -0.129765  0  3.979816  0
C  C98  1  0.06406370  0.48858474  0.67335134  1  -0.013396  0  -0.088068  -0.127467  0  3.976476  0
C  C99  1  0.01690832  0.64309560  0.62700587  1  0.10938  0  -0.060843  -0.134513  0  4.16878  0
C  C100  1  0.97839476  0.20157178  0.57140830  1  0.159846  0  -0.027569  0.042257  0  4.183472  0
C  C101  1  0.97554908  0.33783047  0.61373385  1  -0.174928  0  -0.05815  -0.131662  0  4.147706  0
C  C102  1  0.97254777  0.27181693  0.59781959  1  -0.162349  0  -0.053106  -0.095663  0  4.169199  0
C  C103  1  0.02294715  0.70539086  0.62124228  1  -0.500572  0  -0.059506  -0.105312  0  4.196686  0
C  C104  1  0.59750494  0.40456279  0.98410987  1  -0.017936  0  -0.089961  -0.128675  0  3.981902  0
C  C105  1  0.68780760  0.55209664  0.98136251  1  -0.04147  0  -0.08934  -0.130605  0  3.978987  0
C  C106  1  0.56745202  0.41121160  0.91166514  1  0.07657  0  -0.008869  0.133727  0  4.13816  0
C  C107  1  0.71419253  0.54760465  0.05519660  1  0.135722  0  -0.006071  0.141057  0  4.127966  0
C  C108  1  0.61594621  0.48540346  0.91122820  1  -0.013763  0  -0.089702  -0.131794  0  3.987518  0
C  C109  1  0.66944485  0.47117724  0.05421334  1  -0.004484  0  -0.090611  -0.134424  0  3.983756  0
C  C110  1  0.48848036  0.34743605  0.84335335  1  0.078777  0  -0.058767  -0.138169  0  4.15695  0
C  C111  1  0.02087047  0.77161916  0.60808874  1  0.113417  0  -0.03255  0.03551  0  4.214516  0
C  C112  1  0.77696500  0.61904931  0.12938091  1  0.011544  0  -0.062078  -0.149481  0  4.147262  0
C  C113  1  0.81765782  0.68069461  0.19451139  1  -0.446534  0  -0.054155  -0.078529  0  4.223031  0
C  C114  1  0.41685354  0.29541835  0.78725923  1  -0.481665  0  -0.059035  -0.08555  0  4.224044  0
C  C115  1  0.90382875  0.09413977  0.00338078  1  0.03145  0  -0.088966  -0.130169  0  3.982504  0
C  C116  1  0.04831024  0.19535549  0.00437783  1  -0.048366  0  -0.08824  -0.128664  0  3.97769  0
C  C117  1  0.27883908  0.16309500  0.72596562  1  0.457257  0  0.016164  -0.037857  0  3.993516  0
C  C118  1  0.89293212  0.83441558  0.28224523  1  0.453075  0  0.018329  -0.027028  0  3.959099  0
C  C119  1  0.98132422  0.14653112  0.07726191  1  0.05203  0  -0.008535  0.132646  0  4.139222  0
C  C120  1  0.97262371  0.13758427  0.92980047  1  0.054048  0  -0.004498  0.138897  0  4.123432  0
C  C121  1  0.05254876  0.19961389  0.07648693  1  -0.018231  0  -0.090235  -0.134709  0  3.991026  0
C  C122  1  0.33394026  0.23418962  0.72567312  1  0.138699  0  -0.042043  -0.082495  0  4.224966  0
C  C123  1  0.89956204  0.08990733  0.93126534  1  -0.017715  0  -0.088524  -0.128684  0  3.976956  0
C  C124  1  0.98851582  0.14100237  0.14853913  1  -0.069982  0  -0.057145  -0.135524  0  4.145331  0
C  C125  1  0.97209277  0.12191096  0.85614124  1  -0.016853  0  -0.059112  -0.140269  0  4.138578  0
C  C126  1  0.97557048  0.09975636  0.79469348  1  -0.399039  0  -0.05141  -0.068614  0  4.19225  0
C  C127  1  0.99624311  0.12874136  0.20727202  1  -0.321126  0  -0.056513  -0.081284  0  4.216973  0
C  C128  1  0.71935875  0.92991496  0.35469803  1  0.39644  0  0.008496  -0.064675  0  3.985684  0
C  C129  1  0.12902452  0.90944497  0.49136238  1  0.440455  0  0.014169  -0.041798  0  3.911348  0
C  C130  1  0.28511029  0.22566277  0.64841150  1  1.109858  0  0.191608  0.289078  0  4.111874  0
C  C131  1  0.85362318  0.75541326  0.33940475  1  1.084893  0  0.198439  0.306534  0  4.059144  0
C  C132  1  0.72289634  0.88316620  0.44511133  1  0.417069  0  0.017175  -0.035187  0  3.95076  0
C  C133  1  0.85503487  0.75069994  0.26731445  1  0.119052  0  -0.0413  -0.08505  0  4.202467  0
C  C134  1  0.13448770  0.97689097  0.41772828  1  0.442883  0  0.017154  -0.038825  0  3.935405  0
C  C135  1  0.91463875  0.11873128  0.51466302  1  0.357471  0  0.020586  -0.031521  0  3.895154  0
C  C136  1  0.08351465  0.85623419  0.64663434  1  0.416804  0  0.011269  -0.059434  0  3.973177  0
C  C137  1  0.04740281  0.09329207  0.71184396  1  0.457104  0  0.016935  -0.033584  0  3.955998  0
C  C138  1  0.93199468  0.05422714  0.27363674  1  0.463861  0  0.017226  -0.037727  0  3.99819  0
C  C139  1  0.97894974  0.06678613  0.72530972  1  0.141404  0  -0.035883  -0.069336  0  4.198998  0
C  C140  1  0.00057074  0.10935297  0.27108317  1  0.127246  0  -0.041373  -0.081994  0  4.218645  0
C  C141  1  0.82815965  0.88485887  0.67254025  1  0.380944  0  -0.061861  0.035577  0  3.865155  0
C  C142  1  0.83315930  0.81254355  0.62856191  1  -0.015758  0  -0.17598  -0.147786  0  4.000917  0
C  C143  1  0.82637764  0.75206718  0.66470882  1  -0.028548  0  -0.240532  -0.343367  0  3.972901  0
C  C144  1  0.67597929  0.90697049  0.39511967  1  0.120532  0  -0.031529  0.043153  0  4.20969  0
C  C145  1  0.18909337  0.19100265  0.32846708  1  0.326277  0  -0.062435  0.036405  0  3.869683  0
C  C146  1  0.18959547  0.11183224  0.29688721  1  0.005784  0  -0.168992  -0.141095  0  3.981452  0
C  C147  1  0.22400811  0.11054825  0.23930379  1  -0.085455  0  -0.23968  -0.345993  0  3.967314  0
C  C148  1  0.53308481  0.09316621  0.57220651  1  0.390938  0  -0.068786  0.037438  0  3.904543  0
C  C149  1  0.54979778  0.15606692  0.64865147  1  0.015543  0  -0.166776  -0.128293  0  3.992368  0
C  C150  1  0.64320822  0.22358994  0.70261977  1  -0.077152  0  -0.242113  -0.354631  0  3.98709  0
C  C151  1  0.27129533  0.69882119  0.21341381  1  0.422035  0  -0.066615  0.034903  0  3.898256  0
C  C152  1  0.25830990  0.62276098  0.22642270  1  0.003804  0  -0.169391  -0.13445  0  3.998832  0
C  C153  1  0.16801122  0.54950711  0.16811346  1  -0.023684  0  -0.242884  -0.352772  0  3.992539  0
C  C154  1  0.35297793  0.36095319  0.65889246  1  0.41053  0  -0.06143  0.094813  0  3.892412  0
C  C155  1  0.15650116  0.92118682  0.43676759  1  0.04954  0  -0.027159  0.048351  0  4.187671  0
C  C156  1  0.34152574  0.39845703  0.60129949  1  -0.054906  0  -0.24135  -0.397155  0  3.982395  0
C  C157  1  0.77217679  0.61147036  0.30353562  1  0.387903  0  -0.060545  0.093624  0  3.882609  0
C  C158  1  0.72967186  0.56242851  0.33878370  1  -0.060896  0  -0.240723  -0.398752  0  3.984237  0
C  C159  1  0.48284182  0.89511545  0.58607540  1  0.422141  0  -0.068584  0.090562  0  3.922358  0
C  C160  1  0.55332441  0.90314593  0.65696171  1  -0.073002  0  -0.243623  -0.393704  0  3.994539  0
C  C161  1  0.32404629  0.90286209  0.20400129  1  0.410493  0  -0.070045  0.089549  0  3.925038  0
C  C162  1  0.25691882  0.89532558  0.13068522  1  -0.07514  0  -0.243169  -0.393808  0  3.992291  0
C  C163  1  0.42498624  0.96496401  0.45932581  1  0.574854  0  0.08259  0.158177  0  3.747875  0
N  N164  1  0.94316184  0.97683636  0.60346465  1  -0.792999  0  -0.277573  -0.283377  0  3.570911  0
N  N165  1  0.88872038  0.83458555  0.39104415  1  -0.80061  0  -0.288592  -0.294658  0  3.578146  0
N  N166  1  0.78802185  0.89096843  0.43479113  1  -0.790696  0  -0.269159  -0.198848  0  3.541937  0
N  N167  1  0.09918680  0.99767077  0.45937602  1  -0.799101  0  -0.289234  -0.197045  0  3.67235  0
N  N168  1  0.95033332  0.07635085  0.49517453  1  -0.782749  0  -0.278782  -0.187737  0  3.604228  0
N  N169  1  0.05166377  0.89700757  0.61447075  1  -0.792605  0  -0.272023  -0.180597  0  3.562998  0
N  N170  1  0.02511507  0.03881139  0.63922682  1  -0.800089  0  -0.280367  -0.175735  0  3.628491  0
N  N171  1  0.95875594  0.05058345  0.34377141  1  -0.787626  0  -0.275918  -0.167982  0  3.586132  0
N  N172  1  0.04540065  0.10191210  0.38913573  1  -0.826551  0  -0.276433  -0.271292  0  3.501061  0
N  N173  1  0.03556116  0.12851641  0.53838278  1  -0.820331  0  -0.285992  -0.195308  0  3.669766  0
N  N174  1  0.96895041  0.84096170  0.55462230  1  -0.793216  0  -0.263356  -0.193398  0  3.532863  0
N  N175  1  0.20541110  0.11687954  0.65583090  1  -0.820014  0  -0.274396  -0.168047  0  3.582196  0
N  N176  1  0.91198016  0.88322343  0.35554948  1  -0.792315  0  -0.28203  -0.172272  0  3.629966  0
N  N177  1  0.78600318  0.91995435  0.37850552  1  -0.801347  0  -0.280142  -0.186451  0  3.56409  0
N  N178  1  0.09563619  0.95652988  0.50470431  1  -0.796677  0  -0.280102  -0.186243  0  3.606153  0
N  N179  1  0.20922891  0.15612441  0.60785464  1  -0.820388  0  -0.276048  -0.270418  0  3.517509  0
O  O180  1  0.83468943  0.93989291  0.63461816  1  -1.088285  0  -0.194875  -0.249236  0  2.503592  0
O  O181  1  0.15430791  0.19200951  0.38163855  1  -1.082628  0  -0.188115  -0.235245  0  2.522119  0
O  O182  1  0.44411780  0.03093602  0.52424800  1  -1.073691  0  -0.208622  -0.241273  0  2.503444  0
O  O183  1  0.35880662  0.76515535  0.26334222  1  -1.07921  0  -0.210295  -0.243995  0  2.509956  0
O  O184  1  0.30142142  0.27168742  0.61002902  1  -1.095224  0  -0.185356  -0.228686  0  2.529487  0
O  O185  1  0.82263180  0.69782984  0.36281136  1  -1.089746  0  -0.176258  -0.221578  0  2.547843  0
O  O186  1  0.50844946  0.89976555  0.52721592  1  -1.070766  0  -0.208235  -0.239768  0  2.497991  0
O  O187  1  0.29305980  0.89470332  0.25884422  1  -1.074981  0  -0.210727  -0.24062  0  2.482262  0
