# generated using pymatgen
data_CuH2CN2Cl
_symmetry_space_group_name_H-M   'P 1'
_cell_length_a   3.66808178
_cell_length_b   15.91226267
_cell_length_c   17.29201213
_cell_angle_alpha   90.00023813
_cell_angle_beta   89.99970491
_cell_angle_gamma   90.00081808
_symmetry_Int_Tables_number   1
_chemical_formula_structural   CuH2CN2Cl
_chemical_formula_sum   'Cu12 H24 C12 N24 Cl12'
_cell_volume   1009.29118400
_cell_formula_units_Z   12
loop_
 _symmetry_equiv_pos_site_id
 _symmetry_equiv_pos_as_xyz
  1  'x, y, z'
loop_
 _atom_site_type_symbol
 _atom_site_label
 _atom_site_symmetry_multiplicity
 _atom_site_fract_x
 _atom_site_fract_y
 _atom_site_fract_z
 _atom_site_occupancy
 _atom_site_hle17_bader_spin_density
 _atom_site_hle17_ddec_charge
 _atom_site_hle17_ddec_spin_density
 _atom_site_hle17_ddec_sum_bond_order
 _atom_site_hle17_magmom
 _atom_site_hse06_10hf_bader_spin_density
 _atom_site_hse06_10hf_ddec_charge
 _atom_site_hse06_10hf_ddec_spin_density
 _atom_site_hse06_10hf_ddec_sum_bond_order
 _atom_site_hse06_10hf_magmom
 _atom_site_hse06_bader_spin_density
 _atom_site_hse06_ddec_charge
 _atom_site_hse06_ddec_spin_density
 _atom_site_hse06_ddec_sum_bond_order
 _atom_site_hse06_magmom
 _atom_site_pbe_bader_spin_density
 _atom_site_pbe_cm5_charge
 _atom_site_pbe_ddec_charge
 _atom_site_pbe_ddec_spin_density
 _atom_site_pbe_ddec_sum_bond_order
 _atom_site_pbe_magmom
Cu  Cu0  1  0.09719991  0.85216303  0.80692903  1  0  0.470078  0  1.900088  0  0  0.382398  0  2.386281  0  0  0.389496  0  2.333213  0  0  0.347587  0.378994  0  2.422765  0
Cu  Cu1  1  0.90278617  0.35215984  0.19306615  1  0  0.469991  0  1.900227  0  0  0.382304  0  2.386464  0  0  0.389407  0  2.333379  0  0  0.347547  0.378917  0  2.42295  0
Cu  Cu2  1  0.40278752  0.85216363  0.30692804  1  0  0.470063  0  1.899964  0  0  0.382379  0  2.386217  0  0  0.389497  0  2.33312  0  0  0.347616  0.379015  0  2.422683  0
Cu  Cu3  1  0.59722310  0.35216239  0.69307349  1  0  0.470014  0  1.899926  0  0  0.382316  0  2.386183  0  0  0.389434  0  2.33307  0  0  0.347524  0.378921  0  2.422641  0
Cu  Cu4  1  0.77473131  0.83832994  0.99885075  1  0  0.490737  0  1.778592  0  0  0.386093  0  2.259786  0  0  0.40036  0  2.202914  0  0  0.364331  0.377152  0  2.299357  0
Cu  Cu5  1  0.22527024  0.33832560  0.00114843  1  0  0.490699  0  1.778726  0  0  0.386042  0  2.259898  0  0  0.4003  0  2.203073  0  0  0.36435  0.377112  0  2.299497  0
Cu  Cu6  1  0.72525595  0.83832494  0.49885055  1  0  0.490706  0  1.778461  0  0  0.386059  0  2.259577  0  0  0.400298  0  2.202739  0  0  0.364318  0.377117  0  2.299185  0
Cu  Cu7  1  0.27473470  0.33832368  0.50114631  1  0  0.490744  0  1.778528  0  0  0.386127  0  2.259659  0  0  0.400366  0  2.202824  0  0  0.364298  0.377184  0  2.299219  0
Cu  Cu8  1  0.56150879  0.65042899  0.89074164  1  0  0.473474  0  1.885923  0  0  0.38493  0  2.366947  0  0  0.392719  0  2.31594  0  0  0.344175  0.381162  0  2.401577  0
Cu  Cu9  1  0.43849983  0.15042896  0.10925625  1  0  0.473408  0  1.885952  0  0  0.384844  0  2.367004  0  0  0.392684  0  2.315996  0  0  0.344174  0.381073  0  2.401646  0
Cu  Cu10  1  0.93847975  0.65042592  0.39073714  1  0  0.473397  0  1.885757  0  0  0.384817  0  2.366795  0  0  0.392688  0  2.315775  0  0  0.344146  0.381037  0  2.40142  0
Cu  Cu11  1  0.06149888  0.15043014  0.60926017  1  0  0.473373  0  1.885822  0  0  0.38482  0  2.366853  0  0  0.392659  0  2.315847  0  0  0.344147  0.381042  0  2.4015  0
H  H12  1  0.40453300  0.75805726  0.71016261  1  0  0.329653  0  0.920111  0  0  0.30989  0  0.989968  0  0  0.318514  0  0.981528  0  0  0.280745  0.303555  0  0.996354  0
H  H13  1  0.59544979  0.25805165  0.28983280  1  0  0.329661  0  0.920046  0  0  0.309929  0  0.989857  0  0  0.318556  0  0.981409  0  0  0.280734  0.303596  0  0.996245  0
H  H14  1  0.09545055  0.75805750  0.21015736  1  0  0.329647  0  0.920177  0  0  0.309964  0  0.989935  0  0  0.318575  0  0.981507  0  0  0.280814  0.303628  0  0.996325  0
H  H15  1  0.90454859  0.25806210  0.78984499  1  0  0.329559  0  0.920316  0  0  0.309896  0  0.990039  0  0  0.3185  0  0.981622  0  0  0.280829  0.303561  0  0.996424  0
H  H16  1  0.59826187  0.75392783  0.61603463  1  0  0.334389  0  0.912064  0  0  0.316236  0  0.97658  0  0  0.324247  0  0.969845  0  0  0.282263  0.310449  0  0.981542  0
H  H17  1  0.40173156  0.25393084  0.38396365  1  0  0.334378  0  0.912118  0  0  0.316228  0  0.976623  0  0  0.324242  0  0.96989  0  0  0.282259  0.310437  0  0.981586  0
H  H18  1  0.90173938  0.75393533  0.11603422  1  0  0.334276  0  0.911991  0  0  0.316121  0  0.976505  0  0  0.324134  0  0.969771  0  0  0.282195  0.310315  0  0.98148  0
H  H19  1  0.09827586  0.25392460  0.88396811  1  0  0.33437  0  0.911925  0  0  0.31621  0  0.976442  0  0  0.324225  0  0.969715  0  0  0.282229  0.310401  0  0.981419  0
H  H20  1  0.83764234  0.08918708  0.73542189  1  0  0.329856  0  0.922399  0  0  0.311584  0  0.988717  0  0  0.319592  0  0.981641  0  0  0.280642  0.305838  0  0.993872  0
H  H21  1  0.16233237  0.58917729  0.26458040  1  0  0.329861  0  0.922427  0  0  0.311501  0  0.988859  0  0  0.319502  0  0.9818  0  0  0.280663  0.305755  0  0.994012  0
H  H22  1  0.66236280  0.08919004  0.23541541  1  0  0.329594  0  0.922512  0  0  0.311365  0  0.988828  0  0  0.319377  0  0.981746  0  0  0.280509  0.30562  0  0.993981  0
H  H23  1  0.33765553  0.58919255  0.76458515  1  0  0.329664  0  0.92243  0  0  0.311417  0  0.988762  0  0  0.31943  0  0.981681  0  0  0.280547  0.305666  0  0.993916  0
H  H24  1  0.84928175  0.99871470  0.79499156  1  0  0.328101  0  0.917968  0  0  0.310415  0  0.984303  0  0  0.318551  0  0.976647  0  0  0.282738  0.304556  0  0.989888  0
H  H25  1  0.15072734  0.49870477  0.20500128  1  0  0.328196  0  0.917646  0  0  0.310484  0  0.984024  0  0  0.318623  0  0.976367  0  0  0.282745  0.304629  0  0.989614  0
H  H26  1  0.65073392  0.99871449  0.29499492  1  0  0.328254  0  0.917738  0  0  0.310441  0  0.984245  0  0  0.318575  0  0.976599  0  0  0.282748  0.304585  0  0.989838  0
H  H27  1  0.34931879  0.49870938  0.70501527  1  0  0.328199  0  0.917932  0  0  0.310433  0  0.984358  0  0  0.318564  0  0.976715  0  0  0.282819  0.304577  0  0.989948  0
H  H28  1  0.58269354  0.99102133  0.46164588  1  0  0.330034  0  0.925002  0  0  0.312294  0  0.988747  0  0  0.31954  0  0.983236  0  0  0.279271  0.307089  0  0.992809  0
H  H29  1  0.41728234  0.49102258  0.53835792  1  0  0.330005  0  0.924882  0  0  0.312249  0  0.988658  0  0  0.319496  0  0.98315  0  0  0.279248  0.30704  0  0.992721  0
H  H30  1  0.91728796  0.99102113  0.96164591  1  0  0.330118  0  0.925024  0  0  0.312402  0  0.98871  0  0  0.319648  0  0.983198  0  0  0.279321  0.307191  0  0.992771  0
H  H31  1  0.08271791  0.49102467  0.03836309  1  0  0.330067  0  0.924898  0  0  0.312311  0  0.988658  0  0  0.319556  0  0.98315  0  0  0.279267  0.307105  0  0.992723  0
H  H32  1  0.37430457  0.08460693  0.49618569  1  0  0.332869  0  0.917767  0  0  0.311682  0  0.989382  0  0  0.320797  0  0.980205  0  0  0.280382  0.305041  0  0.996199  0
H  H33  1  0.62568347  0.58460726  0.50381138  1  0  0.332849  0  0.917846  0  0  0.311677  0  0.989449  0  0  0.32079  0  0.980275  0  0  0.280416  0.305039  0  0.996261  0
H  H34  1  0.12570316  0.08461146  0.99619069  1  0  0.33281  0  0.917792  0  0  0.311648  0  0.9894  0  0  0.320762  0  0.980227  0  0  0.28036  0.305006  0  0.996216  0
H  H35  1  0.87430942  0.58461153  0.00381737  1  0  0.332831  0  0.91773  0  0  0.311633  0  0.989351  0  0  0.320747  0  0.980177  0  0  0.280375  0.304992  0  0.996167  0
C  C36  1  0.11043862  0.98841180  0.69176859  1  0  0.690376  0  3.818796  0  0  0.633944  0  4.096071  0  0  0.664123  0  4.101936  0  0  0.340414  0.61359  0  4.091712  0
C  C37  1  0.88955073  0.48841475  0.30823346  1  0  0.690441  0  3.818596  0  0  0.63402  0  4.095854  0  0  0.664217  0  4.1017  0  0  0.340473  0.613665  0  4.0915  0
C  C38  1  0.38954917  0.98841926  0.19176010  1  0  0.690237  0  3.81854  0  0  0.634053  0  4.095456  0  0  0.664161  0  4.101425  0  0  0.340595  0.613731  0  4.091091  0
C  C39  1  0.61046471  0.48840540  0.80823327  1  0  0.690592  0  3.818217  0  0  0.63439  0  4.09518  0  0  0.664476  0  4.101156  0  0  0.340563  0.614049  0  4.090821  0
C  C40  1  0.37859989  0.86634400  0.64783867  1  0  0.690682  0  3.818986  0  0  0.633071  0  4.097932  0  0  0.664642  0  4.100651  0  0  0.340857  0.61164  0  4.095838  0
C  C41  1  0.62138982  0.36634002  0.35216408  1  0  0.690652  0  3.818993  0  0  0.633115  0  4.097902  0  0  0.664686  0  4.100624  0  0  0.340747  0.61169  0  4.095793  0
C  C42  1  0.12140833  0.86634433  0.14784033  1  0  0.690646  0  3.818855  0  0  0.633053  0  4.09789  0  0  0.664625  0  4.100614  0  0  0.340799  0.611626  0  4.095796  0
C  C43  1  0.87858684  0.36633970  0.85215663  1  0  0.690511  0  3.819104  0  0  0.632932  0  4.098069  0  0  0.664506  0  4.100793  0  0  0.340866  0.611494  0  4.095984  0
C  C44  1  0.36371937  0.98451870  0.56976355  1  0  0.68961  0  3.819573  0  0  0.631094  0  4.101381  0  0  0.662798  0  4.103504  0  0  0.34042  0.609582  0  4.099779  0
C  C45  1  0.63629154  0.48452769  0.43023271  1  0  0.689841  0  3.819187  0  0  0.631514  0  4.100743  0  0  0.663232  0  4.102859  0  0  0.340691  0.609989  0  4.099132  0
C  C46  1  0.13627360  0.98452472  0.06975825  1  0  0.689625  0  3.819541  0  0  0.631419  0  4.100958  0  0  0.66313  0  4.103075  0  0  0.340555  0.60989  0  4.099364  0
C  C47  1  0.86372368  0.48452418  0.93023858  1  0  0.689553  0  3.81989  0  0  0.631261  0  4.101376  0  0  0.662958  0  4.103495  0  0  0.340521  0.609749  0  4.099786  0
N  N48  1  0.18445010  0.02928669  0.62481503  1  0  -0.613294  0  3.215312  0  0  -0.538158  0  3.5215  0  0  -0.564349  0  3.520785  0  0  -0.398924  -0.521065  0  3.521877  0
N  N49  1  0.81553168  0.52928264  0.37518414  1  0  -0.613379  0  3.216021  0  0  -0.538283  0  3.522143  0  0  -0.564509  0  3.521454  0  0  -0.399043  -0.52117  0  3.522493  0
N  N50  1  0.31555413  0.02929266  0.12481530  1  0  -0.613266  0  3.21559  0  0  -0.538258  0  3.521577  0  0  -0.564429  0  3.520884  0  0  -0.399004  -0.521172  0  3.52196  0
N  N51  1  0.68446581  0.52929238  0.87519602  1  0  -0.613617  0  3.21556  0  0  -0.538632  0  3.521689  0  0  -0.564746  0  3.520933  0  0  -0.399144  -0.521546  0  3.522083  0
N  N52  1  0.47606505  0.78682627  0.65961327  1  0  -0.662569  0  3.115827  0  0  -0.622802  0  3.349887  0  0  -0.642671  0  3.341096  0  0  -0.572035  -0.609436  0  3.356395  0
N  N53  1  0.52393593  0.28682821  0.34038629  1  0  -0.662593  0  3.116011  0  0  -0.622845  0  3.350008  0  0  -0.642718  0  3.341213  0  0  -0.572034  -0.609485  0  3.356511  0
N  N54  1  0.02394327  0.78683068  0.15961562  1  0  -0.662396  0  3.115845  0  0  -0.622665  0  3.349775  0  0  -0.642524  0  3.34101  0  0  -0.572006  -0.609287  0  3.356314  0
N  N55  1  0.97606590  0.28682882  0.84038394  1  0  -0.662347  0  3.115986  0  0  -0.622654  0  3.349922  0  0  -0.642507  0  3.341163  0  0  -0.572059  -0.609267  0  3.356469  0
N  N56  1  0.20164158  0.90722742  0.70577023  1  0  -0.616214  0  3.217486  0  0  -0.541416  0  3.52566  0  0  -0.567663  0  3.524931  0  0  -0.400729  -0.52415  0  3.525897  0
N  N57  1  0.79835893  0.40722436  0.29422805  1  0  -0.616082  0  3.216944  0  0  -0.541369  0  3.525186  0  0  -0.56762  0  3.524452  0  0  -0.400668  -0.524132  0  3.52545  0
N  N58  1  0.29834071  0.90722831  0.20576358  1  0  -0.61596  0  3.217276  0  0  -0.541351  0  3.525483  0  0  -0.567575  0  3.524788  0  0  -0.40074  -0.524129  0  3.525765  0
N  N59  1  0.70165435  0.40723227  0.79423990  1  0  -0.615988  0  3.217949  0  0  -0.541364  0  3.526152  0  0  -0.567582  0  3.525454  0  0  -0.400704  -0.52409  0  3.526384  0
N  N60  1  0.46477220  0.90264240  0.57880103  1  0  -0.62805  0  3.230173  0  0  -0.549974  0  3.548384  0  0  -0.576091  0  3.543133  0  0  -0.40421  -0.532727  0  3.551884  0
N  N61  1  0.53521712  0.40263972  0.42119954  1  0  -0.628347  0  3.229688  0  0  -0.550406  0  3.54794  0  0  -0.576526  0  3.542679  0  0  -0.404328  -0.533141  0  3.551406  0
N  N62  1  0.03520989  0.90264811  0.07879296  1  0  -0.62825  0  3.22987  0  0  -0.550337  0  3.548111  0  0  -0.576466  0  3.542865  0  0  -0.404284  -0.533064  0  3.551583  0
N  N63  1  0.96480669  0.40263904  0.92120587  1  0  -0.628079  0  3.229743  0  0  -0.550085  0  3.54788  0  0  -0.576221  0  3.542662  0  0  -0.404228  -0.532833  0  3.551389  0
N  N64  1  0.94102408  0.03112953  0.74794774  1  0  -0.665022  0  3.077552  0  0  -0.623272  0  3.303656  0  0  -0.643296  0  3.296443  0  0  -0.575648  -0.609702  0  3.308764  0
N  N65  1  0.05897145  0.53112690  0.25205144  1  0  -0.66512  0  3.07727  0  0  -0.623256  0  3.303475  0  0  -0.643283  0  3.296266  0  0  -0.575654  -0.609694  0  3.308595  0
N  N66  1  0.55896616  0.03112274  0.24795005  1  0  -0.664903  0  3.07728  0  0  -0.623143  0  3.303299  0  0  -0.643151  0  3.296137  0  0  -0.575589  -0.60958  0  3.308404  0
N  N67  1  0.44103482  0.53112363  0.75205433  1  0  -0.664994  0  3.077148  0  0  -0.623247  0  3.30317  0  0  -0.643253  0  3.296024  0  0  -0.575657  -0.609678  0  3.308275  0
N  N68  1  0.44503976  0.02299546  0.50367974  1  0  -0.663069  0  3.114303  0  0  -0.622161  0  3.349644  0  0  -0.642044  0  3.341083  0  0  -0.571966  -0.608835  0  3.355995  0
N  N69  1  0.55494161  0.52299867  0.49632346  1  0  -0.663028  0  3.114215  0  0  -0.62219  0  3.349518  0  0  -0.642079  0  3.340956  0  0  -0.572066  -0.60887  0  3.355861  0
N  N70  1  0.05493677  0.02299745  0.00367280  1  0  -0.663099  0  3.114503  0  0  -0.622344  0  3.349682  0  0  -0.642232  0  3.341118  0  0  -0.572113  -0.609012  0  3.356023  0
N  N71  1  0.94505551  0.52299605  0.99632461  1  0  -0.66304  0  3.114346  0  0  -0.622153  0  3.349656  0  0  -0.64204  0  3.341101  0  0  -0.57204  -0.608823  0  3.356009  0
Cl  Cl72  1  0.08988348  0.70844810  0.81710225  1  0  -0.545607  0  1.602298  0  0  -0.478602  0  2.027017  0  0  -0.487648  0  1.979486  0  0  -0.275765  -0.472457  0  2.060336  0
Cl  Cl73  1  0.91012339  0.20844928  0.18289586  1  0  -0.545585  0  1.602339  0  0  -0.478592  0  2.027118  0  0  -0.487656  0  1.979589  0  0  -0.275768  -0.472442  0  2.060435  0
Cl  Cl74  1  0.41010816  0.70844997  0.31709778  1  0  -0.545669  0  1.602256  0  0  -0.478631  0  2.026956  0  0  -0.487707  0  1.979442  0  0  -0.275808  -0.472492  0  2.060277  0
Cl  Cl75  1  0.58987418  0.20844930  0.68289917  1  0  -0.5456  0  1.602279  0  0  -0.478596  0  2.027022  0  0  -0.487664  0  1.979501  0  0  -0.27576  -0.472451  0  2.060339  0
Cl  Cl76  1  0.62107661  0.90054748  0.88385393  1  0  -0.538526  0  1.635343  0  0  -0.46748  0  2.069848  0  0  -0.476563  0  2.018468  0  0  -0.268446  -0.461355  0  2.106173  0
Cl  Cl77  1  0.37891257  0.40054353  0.11614548  1  0  -0.538426  0  1.635439  0  0  -0.467366  0  2.069956  0  0  -0.476447  0  2.018573  0  0  -0.268372  -0.46124  0  2.106298  0
Cl  Cl78  1  0.87890355  0.90054360  0.38385297  1  0  -0.538535  0  1.635344  0  0  -0.46745  0  2.06984  0  0  -0.47653  0  2.01845  0  0  -0.26843  -0.461331  0  2.106187  0
Cl  Cl79  1  0.12109381  0.40054678  0.61614644  1  0  -0.538534  0  1.635259  0  0  -0.467452  0  2.069715  0  0  -0.476526  0  2.01832  0  0  -0.268415  -0.461329  0  2.106038  0
Cl  Cl80  1  0.53931807  0.70905718  0.01094190  1  0  -0.557383  0  1.456469  0  0  -0.479629  0  1.840746  0  0  -0.49493  0  1.799805  0  0  -0.296056  -0.468789  0  1.869084  0
Cl  Cl81  1  0.46068339  0.20905499  0.98905621  1  0  -0.557351  0  1.456594  0  0  -0.479584  0  1.840889  0  0  -0.494892  0  1.799964  0  0  -0.296038  -0.468746  0  1.869239  0
Cl  Cl82  1  0.96067173  0.70905272  0.51094072  1  0  -0.557395  0  1.45649  0  0  -0.479634  0  1.840773  0  0  -0.494942  0  1.799842  0  0  -0.296053  -0.468785  0  1.869116  0
Cl  Cl83  1  0.03932428  0.20905568  0.48905855  1  0  -0.557375  0  1.456603  0  0  -0.479624  0  1.8409  0  0  -0.494928  0  1.799968  0  0  -0.296049  -0.468785  0  1.869242  0
