# generated using pymatgen
data_SrH8C2(N4O3)2
_symmetry_space_group_name_H-M   'P 1'
_cell_length_a   5.61523880
_cell_length_b   6.63710282
_cell_length_c   15.19856447
_cell_angle_alpha   81.87948697
_cell_angle_beta   79.35365007
_cell_angle_gamma   64.96788368
_symmetry_Int_Tables_number   1
_chemical_formula_structural   SrH8C2(N4O3)2
_chemical_formula_sum   'Sr2 H16 C4 N16 O12'
_cell_volume   503.12736703
_cell_formula_units_Z   2
loop_
 _symmetry_equiv_pos_site_id
 _symmetry_equiv_pos_as_xyz
  1  'x, y, z'
loop_
 _atom_site_type_symbol
 _atom_site_label
 _atom_site_symmetry_multiplicity
 _atom_site_fract_x
 _atom_site_fract_y
 _atom_site_fract_z
 _atom_site_occupancy
 _atom_site_hle17_bader_spin_density
 _atom_site_hle17_ddec_charge
 _atom_site_hle17_ddec_spin_density
 _atom_site_hle17_ddec_sum_bond_order
 _atom_site_hle17_magmom
 _atom_site_hse06_10hf_bader_spin_density
 _atom_site_hse06_10hf_ddec_charge
 _atom_site_hse06_10hf_ddec_spin_density
 _atom_site_hse06_10hf_ddec_sum_bond_order
 _atom_site_hse06_10hf_magmom
 _atom_site_hse06_bader_spin_density
 _atom_site_hse06_ddec_charge
 _atom_site_hse06_ddec_spin_density
 _atom_site_hse06_ddec_sum_bond_order
 _atom_site_hse06_magmom
 _atom_site_pbe_bader_spin_density
 _atom_site_pbe_cm5_charge
 _atom_site_pbe_ddec_charge
 _atom_site_pbe_ddec_spin_density
 _atom_site_pbe_ddec_sum_bond_order
 _atom_site_pbe_magmom
Sr  Sr0  1  0.97657761  0.24997638  0.75000561  1  0  1.599639  0  1.149991  0  0  1.448858  0  1.535566  0  0  1.482827  0  1.492145  0  0  0.962682  1.423828  0  1.566461  0
Sr  Sr1  1  0.02341854  0.75002545  0.24999426  1  0  1.599603  0  1.150026  0  0  1.44884  0  1.535562  0  0  1.482806  0  1.492146  0  0  0.962678  1.423807  0  1.566453  0
H  H2  1  0.20675321  0.42794415  0.88535352  1  0  0.395685  0  0.918584  0  0  0.352961  0  1.002717  0  0  0.363816  0  0.98671  0  0  0.290751  0.345286  0  1.014009  0
H  H3  1  0.52021545  0.07207721  0.61463343  1  0  0.394679  0  0.919798  0  0  0.35213  0  1.003642  0  0  0.362979  0  0.987648  0  0  0.290417  0.344455  0  1.014935  0
H  H4  1  0.79324455  0.57205434  0.11464646  1  0  0.39569  0  0.918576  0  0  0.352962  0  1.002717  0  0  0.363817  0  0.986709  0  0  0.290753  0.345287  0  1.01401  0
H  H5  1  0.47978743  0.92792463  0.38536695  1  0  0.394697  0  0.919781  0  0  0.352147  0  1.003626  0  0  0.362994  0  0.987633  0  0  0.290418  0.344472  0  1.014919  0
H  H6  1  0.65499517  0.94106714  0.78261645  1  0  0.421823  0  0.875183  0  0  0.39035  0  0.940142  0  0  0.400851  0  0.924734  0  0  0.304564  0.382908  0  0.951059  0
H  H7  1  0.37848086  0.55896956  0.71739154  1  0  0.422058  0  0.87509  0  0  0.390443  0  0.940235  0  0  0.400956  0  0.924832  0  0  0.304719  0.382991  0  0.951145  0
H  H8  1  0.34500415  0.05893301  0.21738295  1  0  0.421838  0  0.875167  0  0  0.390369  0  0.940119  0  0  0.400867  0  0.924714  0  0  0.304553  0.382926  0  0.951036  0
H  H9  1  0.62151617  0.44103394  0.28260841  1  0  0.422113  0  0.875009  0  0  0.390442  0  0.940227  0  0  0.400952  0  0.92483  0  0  0.304723  0.382989  0  0.951139  0
H  H10  1  0.89411235  0.57810881  0.89522256  1  0  0.394649  0  0.916041  0  0  0.355643  0  0.99401  0  0  0.36569  0  0.979193  0  0  0.290682  0.348541  0  1.004475  0
H  H11  1  0.36756996  0.92190473  0.60480922  1  0  0.394905  0  0.915496  0  0  0.356007  0  0.993378  0  0  0.366041  0  0.978561  0  0  0.290831  0.348908  0  1.003842  0
H  H12  1  0.10588529  0.42189134  0.10477671  1  0  0.394655  0  0.916031  0  0  0.355647  0  0.994006  0  0  0.365694  0  0.97919  0  0  0.290683  0.348545  0  1.004472  0
H  H13  1  0.63243393  0.07809713  0.39519194  1  0  0.394872  0  0.915538  0  0  0.355978  0  0.993419  0  0  0.36601  0  0.978602  0  0  0.290824  0.348878  0  1.003886  0
H  H14  1  0.91074454  0.80798893  0.71757495  1  0  0.420736  0  0.880291  0  0  0.388371  0  0.946561  0  0  0.398906  0  0.931138  0  0  0.301422  0.380947  0  0.957434  0
H  H15  1  0.43628345  0.69197835  0.78242922  1  0  0.420694  0  0.880496  0  0  0.388305  0  0.946729  0  0  0.398853  0  0.93129  0  0  0.30147  0.380881  0  0.957602  0
H  H16  1  0.08925478  0.19201122  0.28242445  1  0  0.420719  0  0.880306  0  0  0.388334  0  0.946601  0  0  0.398868  0  0.931179  0  0  0.301401  0.380909  0  0.957473  0
H  H17  1  0.56371513  0.30802681  0.21757014  1  0  0.420727  0  0.880423  0  0  0.388313  0  0.946694  0  0  0.398857  0  0.931257  0  0  0.30147  0.380888  0  0.957565  0
C  C18  1  0.13760952  0.92936718  0.00207776  1  0  0.154206  0  3.73842  0  0  0.122736  0  4.023937  0  0  0.13177  0  4.034555  0  0  0.232999  0.11665  0  4.017161  0
C  C19  1  0.06915542  0.57049000  0.49792732  1  0  0.153036  0  3.740921  0  0  0.121978  0  4.025307  0  0  0.131089  0  4.035739  0  0  0.232049  0.115867  0  4.01859  0
C  C20  1  0.86239363  0.07063136  0.99792404  1  0  0.15445  0  3.738189  0  0  0.122976  0  4.023694  0  0  0.131994  0  4.034329  0  0  0.233067  0.116888  0  4.016918  0
C  C21  1  0.93084040  0.42951180  0.50207111  1  0  0.152772  0  3.741029  0  0  0.121739  0  4.025417  0  0  0.130852  0  4.035838  0  0  0.231989  0.115631  0  4.018687  0
N  N22  1  0.33614131  0.87940250  0.93038772  1  0  0.282284  0  3.709665  0  0  0.314854  0  3.996876  0  0  0.316063  0  4.016827  0  0  -0.00282  0.313418  0  3.983541  0
N  N23  1  0.14599746  0.62044456  0.56963922  1  0  0.282948  0  3.708438  0  0  0.315553  0  3.995247  0  0  0.316719  0  4.015195  0  0  -0.001564  0.314125  0  3.981921  0
N  N24  1  0.66385948  0.12059605  0.06961461  1  0  0.282304  0  3.709434  0  0  0.314879  0  3.996646  0  0  0.316086  0  4.016599  0  0  -0.00276  0.313445  0  3.983307  0
N  N25  1  0.85400004  0.37955724  0.43035934  1  0  0.283033  0  3.708412  0  0  0.315639  0  3.995216  0  0  0.316805  0  4.015163  0  0  -0.001526  0.314212  0  3.981888  0
N  N26  1  0.56606398  0.74587283  0.96184657  1  0  -0.164954  0  2.901453  0  0  -0.153928  0  3.189997  0  0  -0.154649  0  3.198629  0  0  -0.076692  -0.153295  0  3.18448  0
N  N27  1  0.27371888  0.75406507  0.53819556  1  0  -0.165608  0  2.899623  0  0  -0.154732  0  3.188295  0  0  -0.15545  0  3.196901  0  0  -0.077119  -0.154109  0  3.182797  0
N  N28  1  0.43393358  0.25412398  0.03815268  1  0  -0.164921  0  2.901302  0  0  -0.153902  0  3.189854  0  0  -0.15462  0  3.198485  0  0  -0.076736  -0.153268  0  3.184334  0
N  N29  1  0.72628044  0.24593508  0.46180383  1  0  -0.165583  0  2.899578  0  0  -0.154717  0  3.188253  0  0  -0.155433  0  3.196858  0  0  -0.077128  -0.154093  0  3.182757  0
N  N30  1  0.50860313  0.71465699  0.04912658  1  0  -0.057594  0  3.068804  0  0  -0.041278  0  3.371147  0  0  -0.041411  0  3.380477  0  0  -0.067665  -0.040932  0  3.364869  0
N  N31  1  0.27233461  0.78530994  0.45091080  1  0  -0.057816  0  3.065876  0  0  -0.041384  0  3.36817  0  0  -0.041519  0  3.377481  0  0  -0.067235  -0.041052  0  3.361921  0
N  N32  1  0.49140190  0.28533483  0.95087322  1  0  -0.057633  0  3.068744  0  0  -0.041314  0  3.371079  0  0  -0.041446  0  3.380407  0  0  -0.067704  -0.040968  0  3.364803  0
N  N33  1  0.72766457  0.21469186  0.54908788  1  0  -0.057881  0  3.065925  0  0  -0.041444  0  3.368217  0  0  -0.041582  0  3.377529  0  0  -0.067273  -0.041111  0  3.361967  0
N  N34  1  0.24901115  0.82419721  0.07610566  1  0  -0.308581  0  3.05778  0  0  -0.285786  0  3.357894  0  0  -0.293432  0  3.367536  0  0  -0.232122  -0.280549  0  3.351476  0
N  N35  1  0.14934403  0.67575303  0.42390074  1  0  -0.307629  0  3.055549  0  0  -0.285057  0  3.355512  0  0  -0.292728  0  3.365132  0  0  -0.232172  -0.279817  0  3.349104  0
N  N36  1  0.75099690  0.17579466  0.92389648  1  0  -0.308736  0  3.057738  0  0  -0.285953  0  3.357884  0  0  -0.293597  0  3.367529  0  0  -0.23215  -0.280718  0  3.351472  0
N  N37  1  0.85065368  0.32425045  0.57609855  1  0  -0.30747  0  3.055549  0  0  -0.284896  0  3.355482  0  0  -0.292565  0  3.365105  0  0  -0.232095  -0.279657  0  3.349077  0
O  O38  1  0.32987825  0.93808956  0.84487885  1  0  -0.572036  0  1.869106  0  0  -0.517774  0  2.094861  0  0  -0.541323  0  2.092755  0  0  -0.233462  -0.500879  0  2.096032  0
O  O39  1  0.11299170  0.56157399  0.65514297  1  0  -0.571932  0  1.868647  0  0  -0.518125  0  2.095097  0  0  -0.541628  0  2.092955  0  0  -0.233936  -0.501218  0  2.096256  0
O  O40  1  0.67011971  0.06191062  0.15512186  1  0  -0.572079  0  1.869061  0  0  -0.517819  0  2.094833  0  0  -0.541353  0  2.092716  0  0  -0.233473  -0.500922  0  2.095996  0
O  O41  1  0.88700506  0.43842449  0.34485622  1  0  -0.571932  0  1.868706  0  0  -0.518123  0  2.095154  0  0  -0.541615  0  2.093001  0  0  -0.23393  -0.501215  0  2.096309  0
O  O42  1  0.04586284  0.47776410  0.85595043  1  0  -0.88457  0  1.90697  0  0  -0.825091  0  2.106735  0  0  -0.843026  0  2.074938  0  0  -0.646957  -0.812207  0  2.128985  0
O  O43  1  0.37988067  0.02214368  0.64408496  1  0  -0.883476  0  1.907349  0  0  -0.824257  0  2.106782  0  0  -0.842203  0  2.075126  0  0  -0.646557  -0.811331  0  2.128945  0
O  O44  1  0.95413580  0.52223606  0.14404962  1  0  -0.884593  0  1.906964  0  0  -0.825116  0  2.106726  0  0  -0.843051  0  2.074931  0  0  -0.646967  -0.812234  0  2.128975  0
O  O45  1  0.62012254  0.97785819  0.35591686  1  0  -0.883477  0  1.907403  0  0  -0.824242  0  2.106779  0  0  -0.842202  0  2.075163  0  0  -0.64657  -0.811321  0  2.128932  0
O  O46  1  0.81790011  0.94842964  0.74790489  1  0  -0.881416  0  1.829483  0  0  -0.825314  0  2.015197  0  0  -0.844491  0  1.982935  0  0  -0.641998  -0.81165  0  2.037788  0
O  O47  1  0.51401452  0.55147590  0.75213999  1  0  -0.881716  0  1.829202  0  0  -0.825463  0  2.015393  0  0  -0.844695  0  1.983059  0  0  -0.642292  -0.811762  0  2.038033  0
O  O48  1  0.18210338  0.05156884  0.25209482  1  0  -0.881409  0  1.829483  0  0  -0.825301  0  2.015237  0  0  -0.844476  0  1.982982  0  0  -0.641954  -0.811635  0  2.037828  0
O  O49  1  0.48598427  0.44853093  0.24786010  1  0  -0.88177  0  1.829028  0  0  -0.825441  0  2.015352  0  0  -0.844669  0  1.983028  0  0  -0.64229  -0.811741  0  2.037989  0
