# generated using pymatgen
data_KH9C12S(NO2)2
_symmetry_space_group_name_H-M   'P 1'
_cell_length_a   6.93562747
_cell_length_b   13.16160527
_cell_length_c   14.54750000
_cell_angle_alpha   96.24028757
_cell_angle_beta   103.10630178
_cell_angle_gamma   90.07649169
_symmetry_Int_Tables_number   1
_chemical_formula_structural   KH9C12S(NO2)2
_chemical_formula_sum   'K4 H36 C48 S4 N8 O16'
_cell_volume   1285.23548756
_cell_formula_units_Z   4
loop_
 _symmetry_equiv_pos_site_id
 _symmetry_equiv_pos_as_xyz
  1  'x, y, z'
loop_
 _atom_site_type_symbol
 _atom_site_label
 _atom_site_symmetry_multiplicity
 _atom_site_fract_x
 _atom_site_fract_y
 _atom_site_fract_z
 _atom_site_occupancy
 _atom_site_hle17_bader_spin_density
 _atom_site_hle17_ddec_charge
 _atom_site_hle17_ddec_spin_density
 _atom_site_hle17_ddec_sum_bond_order
 _atom_site_hle17_magmom
 _atom_site_hse06_10hf_bader_spin_density
 _atom_site_hse06_10hf_ddec_charge
 _atom_site_hse06_10hf_ddec_spin_density
 _atom_site_hse06_10hf_ddec_sum_bond_order
 _atom_site_hse06_10hf_magmom
 _atom_site_hse06_bader_spin_density
 _atom_site_hse06_ddec_charge
 _atom_site_hse06_ddec_spin_density
 _atom_site_hse06_ddec_sum_bond_order
 _atom_site_hse06_magmom
 _atom_site_pbe_bader_charge
 _atom_site_pbe_bader_spin_density
 _atom_site_pbe_cm5_charge
 _atom_site_pbe_ddec_charge
 _atom_site_pbe_ddec_spin_density
 _atom_site_pbe_ddec_sum_bond_order
 _atom_site_pbe_magmom
K  K0  1  0.15154023  0.36416421  0.49551805  1  0  0.954368  0  0.437825  0  0  0.916542  0  0.608048  0  0  0.929716  0  0.585925  0  0.89745  0  0.786432  0.90649  0  0.623964  0
K  K1  1  0.65606267  0.13678207  0.50615942  1  0  0.954011  0  0.442885  0  0  0.916553  0  0.613771  0  0  0.92961  0  0.591751  0  0.896781  0  0.791256  0.906502  0  0.629682  0
K  K2  1  0.84844429  0.63583140  0.50448033  1  0  0.954384  0  0.437848  0  0  0.916598  0  0.608004  0  0  0.929757  0  0.585888  0  0.897472  0  0.786501  0.906524  0  0.623958  0
K  K3  1  0.34397166  0.86323190  0.49384202  1  0  0.954067  0  0.442786  0  0  0.916572  0  0.613698  0  0  0.929614  0  0.591691  0  0.89676  0  0.791282  0.906538  0  0.629568  0
H  H4  1  0.75816065  0.19652636  0.28363346  1  0  0.104227  0  0.96412  0  0  0.111607  0  1.028911  0  0  0.114989  0  1.027335  0  0.111585  0  0.110324  0.10915  0  1.030133  0
H  H5  1  0.46702815  0.30549265  0.72105257  1  0  0.10503  0  0.96196  0  0  0.113321  0  1.025503  0  0  0.116649  0  1.02403  0  0.119675  0  0.111012  0.110887  0  1.026638  0
H  H6  1  0.24185908  0.80346314  0.71637362  1  0  0.104339  0  0.96407  0  0  0.11173  0  1.028822  0  0  0.115111  0  1.027248  0  0.111472  0  0.110379  0.109274  0  1.030043  0
H  H7  1  0.53294588  0.69452897  0.27894998  1  0  0.105061  0  0.961803  0  0  0.113321  0  1.025388  0  0  0.116652  0  1.023909  0  0.119959  0  0.110962  0.110886  0  1.026523  0
H  H8  1  0.61832694  0.21417997  0.11343569  1  0  0.086939  0  0.968068  0  0  0.097709  0  1.029212  0  0  0.099697  0  1.030429  0  0.082844  0  0.097775  0.096182  0  1.028681  0
H  H9  1  0.49504100  0.28608583  0.89131563  1  0  0.086532  0  0.970137  0  0  0.097816  0  1.030665  0  0  0.099767  0  1.031859  0  0.092578  0  0.097226  0.096345  0  1.030114  0
H  H10  1  0.38167047  0.78580723  0.88658112  1  0  0.086879  0  0.967999  0  0  0.097655  0  1.02917  0  0  0.099633  0  1.030396  0  0.083255  0  0.097771  0.096129  0  1.028634  0
H  H11  1  0.50493923  0.71394114  0.10868742  1  0  0.086686  0  0.969949  0  0  0.097923  0  1.030517  0  0  0.099882  0  1.031691  0  0.082479  0  0.09722  0.09645  0  1.02997  0
H  H12  1  0.80442383  0.14772947  0.99153156  1  0  0.089664  0  0.964606  0  0  0.096994  0  1.0313  0  0  0.099824  0  1.029772  0  0.086941  0  0.099135  0.094948  0  1.032419  0
H  H13  1  0.80276465  0.34834638  0.01143754  1  0  0.090041  0  0.964639  0  0  0.097673  0  1.03109  0  0  0.100393  0  1.029796  0  0.063562  0  0.099288  0.095681  0  1.032093  0
H  H14  1  0.19554673  0.85225392  0.00848610  1  0  0.089658  0  0.964771  0  0  0.096988  0  1.031463  0  0  0.0998  0  1.029981  0  0.086552  0  0.099157  0.094957  0  1.032536  0
H  H15  1  0.19721718  0.65168288  0.98856867  1  0  0.090043  0  0.9645  0  0  0.097727  0  1.030926  0  0  0.100447  0  1.02963  0  0.063571  0  0.099261  0.095708  0  1.031966  0
H  H16  1  0.12594829  0.06270019  0.04247411  1  0  0.098425  0  0.985295  0  0  0.103856  0  1.057681  0  0  0.106748  0  1.056189  0  0.102154  0  0.10455  0.101734  0  1.058903  0
H  H17  1  0.07493565  0.43285420  0.95901034  1  0  0.10066  0  0.980665  0  0  0.105492  0  1.053031  0  0  0.108539  0  1.051362  0  0.115322  0  0.104895  0.103299  0  1.054342  0
H  H18  1  0.87402972  0.93728396  0.95752725  1  0  0.098433  0  0.985112  0  0  0.103876  0  1.057499  0  0  0.106774  0  1.055997  0  0.102234  0  0.104513  0.101751  0  1.058719  0
H  H19  1  0.92505326  0.56716894  0.04098984  1  0  0.100582  0  0.980935  0  0  0.105498  0  1.053151  0  0  0.108543  0  1.05145  0  0.115395  0  0.104912  0.103298  0  1.054485  0
H  H20  1  0.59975042  0.92496335  0.04380126  1  0  0.100011  0  0.94929  0  0  0.107147  0  1.018815  0  0  0.110159  0  1.016048  0  0.107017  0  0.104839  0.10493  0  1.0208  0
H  H21  1  0.54611508  0.57100565  0.95492065  1  0  0.098685  0  0.952176  0  0  0.106843  0  1.02088  0  0  0.109671  0  1.018382  0  0.074759  0  0.104263  0.10476  0  1.022655  0
H  H22  1  0.40031736  0.07503914  0.95622535  1  0  0.099942  0  0.949347  0  0  0.107152  0  1.018791  0  0  0.110166  0  1.016018  0  0.106818  0  0.104837  0.104935  0  1.020773  0
H  H23  1  0.45390476  0.42901443  0.04504890  1  0  0.098673  0  0.952248  0  0  0.106928  0  1.02079  0  0  0.109778  0  1.018252  0  0.074059  0  0.104262  0.104846  0  1.022567  0
H  H24  1  0.90546770  0.82117946  0.08469814  1  0  0.086546  0  0.968737  0  0  0.099257  0  1.029138  0  0  0.101072  0  1.030452  0  0.062386  0  0.095115  0.097963  0  1.02831  0
H  H25  1  0.81066642  0.67596473  0.91325797  1  0  0.089301  0  0.964127  0  0  0.102082  0  1.023453  0  0  0.104043  0  1.024577  0  0.070069  0  0.095947  0.100704  0  1.022726  0
H  H26  1  0.09460647  0.17883222  0.91534244  1  0  0.086513  0  0.968865  0  0  0.099203  0  1.029299  0  0  0.101019  0  1.03061  0  0.061781  0  0.094988  0.097886  0  1.028496  0
H  H27  1  0.18937468  0.32400872  0.08667354  1  0  0.089201  0  0.964309  0  0  0.102129  0  1.023483  0  0  0.104093  0  1.024606  0  0.069172  0  0.096036  0.100721  0  1.022791  0
H  H28  1  0.03032780  0.78419471  0.25212106  1  0  0.089947  0  0.970515  0  0  0.098413  0  1.034174  0  0  0.100543  0  1.033748  0  0.095366  0  0.103406  0.096828  0  1.034613  0
H  H29  1  0.77015599  0.71596042  0.74628003  1  0  0.088701  0  0.97231  0  0  0.097108  0  1.035893  0  0  0.099286  0  1.035379  0  0.097686  0  0.103423  0.095516  0  1.036334  0
H  H30  1  0.96968801  0.21580473  0.74792163  1  0  0.089625  0  0.970563  0  0  0.098098  0  1.034221  0  0  0.100223  0  1.033792  0  0.095556  0  0.103296  0.096524  0  1.034641  0
H  H31  1  0.22983246  0.28399697  0.25364352  1  0  0.088591  0  0.972571  0  0  0.0973  0  1.035754  0  0  0.099478  0  1.035241  0  0.098693  0  0.103523  0.095708  0  1.036196  0
H  H32  1  0.85747029  0.84740718  0.37729800  1  0  0.13045  0  0.932334  0  0  0.139978  0  0.991205  0  0  0.144641  0  0.988074  0  0.130181  0  0.124209  0.136532  0  0.993752  0
H  H33  1  0.47402630  0.65485822  0.62259333  1  0  0.128648  0  0.932987  0  0  0.137831  0  0.992155  0  0  0.142555  0  0.988921  0  0.132016  0  0.124027  0.134379  0  0.994679  0
H  H34  1  0.14251435  0.15259073  0.62273017  1  0  0.130187  0  0.932519  0  0  0.139872  0  0.991258  0  0  0.144538  0  0.988128  0  0.126393  0  0.124147  0.136428  0  0.993802  0
H  H35  1  0.52592099  0.34510452  0.37735173  1  0  0.12833  0  0.9332  0  0  0.137569  0  0.992384  0  0  0.142295  0  0.989148  0  0.132543  0  0.123974  0.134117  0  0.994903  0
H  H36  1  0.41158309  0.98994508  0.31612728  1  0  0.335713  0  0.971286  0  0  0.290989  0  1.078592  0  0  0.303513  0  1.065633  0  0.62413  0  0.299686  0.282186  0  1.087495  0
H  H37  1  0.08868189  0.51127360  0.68488896  1  0  0.337083  0  0.970456  0  0  0.29211  0  1.078265  0  0  0.304625  0  1.065262  0  0.633963  0  0.299592  0.283307  0  1.087206  0
H  H38  1  0.58842091  0.01005512  0.68387846  1  0  0.335668  0  0.971378  0  0  0.290928  0  1.078716  0  0  0.303473  0  1.065732  0  0.623915  0  0.299653  0.282118  0  1.087631  0
H  H39  1  0.91126342  0.48873655  0.31509974  1  0  0.33696  0  0.970488  0  0  0.292003  0  1.078251  0  0  0.304514  0  1.065259  0  0.633946  0  0.299553  0.283201  0  1.087188  0
C  C40  1  0.01630992  0.11902447  0.25878004  1  0  -0.171713  0  3.657413  0  0  -0.14688  0  3.89821  0  0  -0.153685  0  3.918681  0  -0.183364  0  -0.00668  -0.142529  0  3.884718  0
C  C41  1  0.75077773  0.38124133  0.74427483  1  0  -0.168881  0  3.653173  0  0  -0.14677  0  3.897053  0  0  -0.153543  0  3.917486  0  -0.21141  0  -0.005806  -0.142362  0  3.883509  0
C  C42  1  0.98369341  0.88096274  0.74122573  1  0  -0.171709  0  3.657478  0  0  -0.147086  0  3.898381  0  0  -0.153794  0  3.918735  0  -0.183363  0  -0.006884  -0.142728  0  3.884896  0
C  C43  1  0.24920770  0.61877187  0.25572537  1  0  -0.168697  0  3.653313  0  0  -0.146644  0  3.897182  0  0  -0.153425  0  3.917629  0  -0.211861  0  -0.005845  -0.142238  0  3.883629  0
C  C44  1  0.83674283  0.16696349  0.23006846  1  0  -0.059457  0  3.74892  0  0  -0.087461  0  4.000738  0  0  -0.087243  0  4.021364  0  -0.006232  0  -0.081453  -0.087439  0  3.986959  0
C  C45  1  0.59894393  0.33379012  0.77387121  1  0  -0.06062  0  3.748103  0  0  -0.088704  0  4.00078  0  0  -0.088524  0  4.021494  0  0.030624  0  -0.082723  -0.088679  0  3.986969  0
C  C46  1  0.16327222  0.83302142  0.76994110  1  0  -0.059695  0  3.749379  0  0  -0.087619  0  4.001189  0  0  -0.087436  0  4.021813  0  -0.005787  0  -0.081402  -0.087606  0  3.987414  0
C  C47  1  0.40103126  0.66622538  0.22613705  1  0  -0.060569  0  3.74789  0  0  -0.088622  0  4.00052  0  0  -0.08844  0  4.021236  0  0.030476  0  -0.082583  -0.088589  0  3.986706  0
C  C48  1  0.75973731  0.17736038  0.13435214  1  0  -0.054566  0  3.737234  0  0  -0.069897  0  3.98933  0  0  -0.073375  0  4.012305  0  -0.026639  0  -0.086532  -0.067894  0  3.974056  0
C  C49  1  0.61638209  0.32218211  0.86960301  1  0  -0.054751  0  3.734652  0  0  -0.070451  0  3.987072  0  0  -0.07389  0  4.010042  0  -0.016581  0  -0.08711  -0.068515  0  3.971823  0
C  C50  1  0.24028138  0.82263753  0.86565909  1  0  -0.054251  0  3.737099  0  0  -0.069577  0  3.989165  0  0  -0.073042  0  4.012143  0  -0.043855  0  -0.086479  -0.067576  0  3.973897  0
C  C51  1  0.38359209  0.67784256  0.13040055  1  0  -0.054893  0  3.734581  0  0  -0.070507  0  3.986919  0  0  -0.073948  0  4.009888  0  -0.00634  0  -0.087068  -0.068571  0  3.971662  0
C  C52  1  0.86440458  0.14068836  0.06649421  1  0  -0.065422  0  3.783288  0  0  -0.078494  0  4.034892  0  0  -0.079486  0  4.055413  0  -0.117319  0  -0.08962  -0.077517  0  4.020887  0
C  C53  1  0.78857754  0.35679510  0.93653360  1  0  -0.067273  0  3.778187  0  0  -0.080863  0  4.030506  0  0  -0.081787  0  4.050994  0  -0.068921  0  -0.090236  -0.079933  0  4.016575  0
C  C54  1  0.13560823  0.85931032  0.93352127  1  0  -0.06566  0  3.78356  0  0  -0.078752  0  4.035248  0  0  -0.079745  0  4.055755  0  -0.100967  0  -0.08973  -0.077769  0  4.021251  0
C  C55  1  0.21140221  0.64322269  0.06347332  1  0  -0.06737  0  3.778496  0  0  -0.08105  0  4.030921  0  0  -0.081974  0  4.051409  0  -0.070093  0  -0.090337  -0.080102  0  4.016999  0
C  C56  1  0.04327355  0.09290379  0.09416320  1  0  -0.132916  0  3.720016  0  0  -0.151904  0  3.967699  0  0  -0.155708  0  3.989523  0  0.044382  0  -0.084744  -0.149504  0  3.95304  0
C  C57  1  0.94059472  0.40432812  0.90802369  1  0  -0.132111  0  3.717906  0  0  -0.150539  0  3.965683  0  0  -0.154396  0  3.987271  0  -0.048345  0  -0.083935  -0.148164  0  3.951241  0
C  C58  1  0.95673286  0.90708571  0.90584244  1  0  -0.13284  0  3.720301  0  0  -0.151855  0  3.967927  0  0  -0.155649  0  3.989758  0  0.044386  0  -0.084751  -0.14945  0  3.953263  0
C  C59  1  0.05937811  0.59569885  0.09197788  1  0  -0.131927  0  3.718209  0  0  -0.150467  0  3.96604  0  0  -0.154305  0  3.98762  0  -0.04695  0  -0.083847  -0.148094  0  3.951586  0
C  C60  1  0.12036794  0.08020089  0.19008373  1  0  0.179646  0  3.789276  0  0  0.169616  0  4.037047  0  0  0.17206  0  4.060719  0  0.33136  0  0.096603  0.16808  0  4.021108  0
C  C61  1  0.92276570  0.41866953  0.81215550  1  0  0.175904  0  3.79097  0  0  0.167566  0  4.038468  0  0  0.170033  0  4.06208  0  0.367908  0  0.095983  0.166001  0  4.022572  0
C  C62  1  0.87963919  0.91977408  0.80992812  1  0  0.179455  0  3.789556  0  0  0.16962  0  4.0372  0  0  0.172037  0  4.060915  0  0.331513  0  0.096754  0.168081  0  4.021263  0
C  C63  1  0.07721433  0.58135361  0.18784785  1  0  0.175649  0  3.791132  0  0  0.167375  0  4.038457  0  0  0.169832  0  4.062065  0  0.368041  0  0.095846  0.16582  0  4.022559  0
C  C64  1  0.55662603  0.94209781  0.18632480  1  0  0.027074  0  3.82128  0  0  0.031903  0  4.070753  0  0  0.02226  0  4.09861  0  0.411587  0  0.079105  0.038051  0  4.052041  0
C  C65  1  0.36217532  0.55646392  0.81355008  1  0  0.023486  0  3.825274  0  0  0.028197  0  4.075233  0  0  0.018597  0  4.102939  0  0.399311  0  0.077989  0.034326  0  4.056633  0
C  C66  1  0.44340614  0.05790316  0.81369851  1  0  0.027069  0  3.821408  0  0  0.031594  0  4.071141  0  0  0.021949  0  4.098991  0  0.41058  0  0.078998  0.037745  0  4.052425  0
C  C67  1  0.63780388  0.44354317  0.18642273  1  0  0.023387  0  3.825526  0  0  0.028155  0  4.075512  0  0  0.018549  0  4.103229  0  0.399483  0  0.078046  0.034285  0  4.056914  0
C  C68  1  0.65886561  0.90625461  0.11595906  1  0  -0.103815  0  3.760024  0  0  -0.125391  0  4.012626  0  0  -0.123912  0  4.035314  0  -0.072868  0  -0.082151  -0.125827  0  3.996773  0
C  C69  1  0.53366285  0.59121376  0.88306135  1  0  -0.103731  0  3.762761  0  0  -0.126247  0  4.016123  0  0  -0.124769  0  4.039171  0  -0.048174  0  -0.082436  -0.12665  0  4.000005  0
C  C70  1  0.34115681  0.09372954  0.88406153  1  0  -0.103893  0  3.760177  0  0  -0.12545  0  4.012862  0  0  -0.123974  0  4.035571  0  -0.074501  0  -0.082188  -0.125887  0  3.996999  0
C  C71  1  0.46636020  0.40878262  0.11689727  1  0  -0.103447  0  3.762119  0  0  -0.126006  0  4.01552  0  0  -0.12455  0  4.03856  0  -0.022635  0  -0.082343  -0.126409  0  3.999393  0
C  C72  1  0.82743420  0.84967801  0.13893131  1  0  -0.109745  0  3.794074  0  0  -0.126055  0  4.049229  0  0  -0.133761  0  4.074745  0  -0.009669  0  -0.107286  -0.120882  0  4.031833  0
C  C73  1  0.67909902  0.64855953  0.85965325  1  0  -0.111462  0  3.795172  0  0  -0.12767  0  4.051057  0  0  -0.135436  0  4.07639  0  -0.042246  0  -0.107706  -0.122474  0  4.033821  0
C  C74  1  0.17258889  0.15031913  0.86110369  1  0  -0.109869  0  3.793608  0  0  -0.126209  0  4.048811  0  0  -0.133922  0  4.074326  0  -0.006841  0  -0.10711  -0.121016  0  4.031422  0
C  C75  1  0.32093409  0.35140244  0.14028383  1  0  -0.111374  0  3.794849  0  0  -0.127743  0  4.050858  0  0  -0.135514  0  4.076192  0  -0.068017  0  -0.107814  -0.122523  0  4.033635  0
C  C76  1  0.89758235  0.82845529  0.23330703  1  0  0.005823  0  3.709073  0  0  -0.01505  0  3.967861  0  0  -0.011085  0  3.986713  0  -0.096303  0  -0.069964  -0.017744  0  3.955299  0
C  C77  1  0.65610159  0.67138101  0.76555124  1  0  0.00797  0  3.710178  0  0  -0.012754  0  3.968583  0  0  -0.008739  0  3.98733  0  -0.061276  0  -0.069815  -0.015488  0  3.956112  0
C  C78  1  0.10243033  0.17154109  0.76672540  1  0  0.006762  0  3.707971  0  0  -0.014026  0  3.96675  0  0  -0.010042  0  3.985588  0  -0.097473  0  -0.069674  -0.016724  0  3.954184  0
C  C79  1  0.34390463  0.32857638  0.23438523  1  0  0.007729  0  3.71046  0  0  -0.013205  0  3.968991  0  0  -0.009193  0  3.987744  0  -0.062403  0  -0.069841  -0.015934  0  3.956511  0
C  C80  1  0.80069946  0.86274409  0.30408869  1  0  -0.174365  0  3.691273  0  0  -0.196282  0  3.947292  0  0  -0.203094  0  3.963663  0  -0.00538  0  -0.087538  -0.191848  0  3.936685  0
C  C81  1  0.48957544  0.63818022  0.69561234  1  0  -0.173095  0  3.695152  0  0  -0.19458  0  3.950893  0  0  -0.201398  0  3.967177  0  -0.016147  0  -0.087075  -0.190139  0  3.940353  0
C  C82  1  0.19931122  0.13727064  0.69594533  1  0  -0.174385  0  3.69159  0  0  -0.196616  0  3.947643  0  0  -0.20342  0  3.963983  0  -0.001462  0  -0.087652  -0.192182  0  3.93704  0
C  C83  1  0.51037331  0.36181081  0.30434322  1  0  -0.172507  0  3.694443  0  0  -0.194074  0  3.950372  0  0  -0.200883  0  3.966641  0  -0.014935  0  -0.087152  -0.189632  0  3.939832  0
C  C84  1  0.62941888  0.91974962  0.28210275  1  0  0.30186  0  3.75499  0  0  0.293292  0  4.008355  0  0  0.307024  0  4.024813  0  0.539174  0  0.10757  0.283754  0  3.997476  0
C  C85  1  0.34027744  0.58061655  0.71808452  1  0  0.302192  0  3.75882  0  0  0.293863  0  4.011614  0  0  0.307557  0  4.028149  0  0.542549  0  0.107843  0.284348  0  4.000693  0
C  C86  1  0.37058844  0.08025747  0.71792190  1  0  0.301689  0  3.755054  0  0  0.293427  0  4.008178  0  0  0.307164  0  4.024636  0  0.540369  0  0.10765  0.283887  0  3.9973  0
C  C87  1  0.65968679  0.41938748  0.28187812  1  0  0.302215  0  3.75808  0  0  0.293785  0  4.011047  0  0  0.30748  0  4.027579  0  0.54213  0  0.107803  0.284271  0  4.00013  0
S  S88  1  0.11744239  0.11832946  0.38380275  1  0  1.317974  0  5.729499  0  0  1.225271  0  6.255757  0  0  1.274065  0  6.228441  0  3.220673  0  0.48652  1.191544  0  6.273508  0
S  S89  1  0.73007001  0.38232399  0.61902593  1  0  1.317514  0  5.731062  0  0  1.225727  0  6.257423  0  0  1.274494  0  6.230137  0  3.196504  0  0.4875  1.191994  0  6.275169  0
S  S90  1  0.88258134  0.88165163  0.61620187  1  0  1.318069  0  5.729136  0  0  1.22545  0  6.255352  0  0  1.274224  0  6.22802  0  3.22075  0  0.486766  1.191715  0  6.27311  0
S  S91  1  0.26993775  0.61769151  0.38097760  1  0  1.317495  0  5.731058  0  0  1.225708  0  6.257428  0  0  1.274476  0  6.230139  0  3.196925  0  0.4875  1.191981  0  6.275165  0
N  N92  1  0.29648573  0.02859260  0.22052535  1  0  -0.178122  0  3.119301  0  0  -0.127043  0  3.377693  0  0  -0.13065  0  3.384497  0  -0.569289  0  -0.155465  -0.124466  0  3.373043  0
N  N93  1  0.06866324  0.47044756  0.78080845  1  0  -0.179779  0  3.122678  0  0  -0.129792  0  3.38189  0  0  -0.133323  0  3.388618  0  -0.579642  0  -0.157579  -0.127278  0  3.377311  0
N  N94  1  0.70354617  0.97140301  0.77950496  1  0  -0.1779  0  3.119302  0  0  -0.126934  0  3.377736  0  0  -0.130623  0  3.384645  0  -0.568667  0  -0.155477  -0.124356  0  3.373087  0
N  N95  1  0.93130171  0.52957023  0.21918793  1  0  -0.179853  0  3.122336  0  0  -0.129719  0  3.381269  0  0  -0.133221  0  3.387974  0  -0.579345  0  -0.15754  -0.127225  0  3.376702  0
N  N96  1  0.38810372  0.99663142  0.15600214  1  0  -0.124927  0  3.026395  0  0  -0.105179  0  3.299641  0  0  -0.097915  0  3.306764  0  -0.536149  0  -0.153765  -0.109488  0  3.294574  0
N  N97  1  0.22401011  0.50121159  0.84442614  1  0  -0.121392  0  3.028622  0  0  -0.101011  0  3.301697  0  0  -0.09382  0  3.308841  0  -0.528936  0  -0.15163  -0.105304  0  3.296638  0
N  N98  1  0.61191769  0.00336190  0.84402268  1  0  -0.12495  0  3.026718  0  0  -0.105077  0  3.300032  0  0  -0.097789  0  3.30718  0  -0.536508  0  -0.153788  -0.109381  0  3.294962  0
N  N99  1  0.77597228  0.49880008  0.15555503  1  0  -0.121445  0  3.028306  0  0  -0.101145  0  3.301338  0  0  -0.093966  0  3.308474  0  -0.529672  0  -0.15169  -0.105432  0  3.296287  0
O  O100  1  0.29537241  0.18608359  0.40371440  1  0  -0.753139  0  1.974823  0  0  -0.711015  0  2.236199  0  0  -0.732556  0  2.221471  0  -1.359556  0  -0.455891  -0.695442  0  2.245656  0
O  O101  1  0.88692489  0.31382668  0.59818195  1  0  -0.752659  0  1.975666  0  0  -0.710718  0  2.237171  0  0  -0.732313  0  2.222585  0  -1.348504  0  -0.454592  -0.695088  0  2.246483  0
O  O102  1  0.70465356  0.81391203  0.59630495  1  0  -0.753074  0  1.975209  0  0  -0.710889  0  2.236465  0  0  -0.732426  0  2.221747  0  -1.35962  0  -0.45581  -0.695316  0  2.245921  0
O  O103  1  0.11309884  0.68618270  0.40183645  1  0  -0.752677  0  1.975923  0  0  -0.710741  0  2.237434  0  0  -0.732309  0  2.222801  0  -1.348675  0  -0.454546  -0.695112  0  2.246748  0
O  O104  1  0.16297076  0.01301867  0.40189456  1  0  -0.703213  0  1.98915  0  0  -0.659944  0  2.246638  0  0  -0.680655  0  2.232076  0  -1.34515  0  -0.413307  -0.645096  0  2.25609  0
O  O105  1  0.76031598  0.48750020  0.60082267  1  0  -0.704899  0  1.992538  0  0  -0.66134  0  2.249888  0  0  -0.682067  0  2.235253  0  -1.34307  0  -0.412048  -0.64648  0  2.259374  0
O  O106  1  0.83702164  0.98698612  0.59810350  1  0  -0.703551  0  1.988023  0  0  -0.660321  0  2.245519  0  0  -0.681041  0  2.230969  0  -1.344689  0  -0.413562  -0.645463  0  2.254965  0
O  O107  1  0.23968026  0.51249312  0.39916919  1  0  -0.704952  0  1.991716  0  0  -0.661383  0  2.249039  0  0  -0.682114  0  2.2344  0  -1.343274  0  -0.412028  -0.646526  0  2.25852  0
O  O108  1  0.96394044  0.16290505  0.42956865  1  0  -0.738936  0  1.98433  0  0  -0.69414  0  2.240768  0  0  -0.713627  0  2.223999  0  -1.360347  0  -0.458125  -0.680198  0  2.251842  0
O  O109  1  0.53163763  0.33876989  0.57403075  1  0  -0.739039  0  1.979472  0  0  -0.694473  0  2.235293  0  0  -0.713906  0  2.218414  0  -1.357356  0  -0.45713  -0.680551  0  2.24638  0
O  O110  1  0.03607920  0.83711121  0.57044380  1  0  -0.738741  0  1.9848  0  0  -0.69397  0  2.24125  0  0  -0.713446  0  2.224464  0  -1.360581  0  -0.458035  -0.680029  0  2.252327  0
O  O111  1  0.46836881  0.66122037  0.42595916  1  0  -0.739016  0  1.980121  0  0  -0.694454  0  2.235945  0  0  -0.71389  0  2.219081  0  -1.357374  0  -0.457172  -0.680531  0  2.247032  0
O  O112  1  0.53415082  0.95229591  0.35049065  1  0  -0.537246  0  2.16027  0  0  -0.487249  0  2.39196  0  0  -0.508942  0  2.383732  0  -1.157959  0  -0.367391  -0.471906  0  2.397157  0
O  O113  1  0.17770651  0.54934482  0.65043743  1  0  -0.537143  0  2.160989  0  0  -0.486952  0  2.392733  0  0  -0.508621  0  2.384419  0  -1.163693  0  -0.365915  -0.471636  0  2.398014  0
O  O114  1  0.46583530  0.04770200  0.64952531  1  0  -0.537091  0  2.160144  0  0  -0.487127  0  2.391745  0  0  -0.508828  0  2.383503  0  -1.157673  0  -0.367313  -0.47178  0  2.396953  0
O  O115  1  0.82223080  0.45065385  0.34954308  1  0  -0.537014  0  2.160449  0  0  -0.486817  0  2.392253  0  0  -0.508489  0  2.383946  0  -1.163133  0  -0.365791  -0.471501  0  2.397533  0
