# generated using pymatgen
data_Cu2H26C51(O2F3)6
_symmetry_space_group_name_H-M   'P 1'
_cell_length_a   7.24830914
_cell_length_b   18.86995071
_cell_length_c   20.61654878
_cell_angle_alpha   107.23544371
_cell_angle_beta   89.99999610
_cell_angle_gamma   90.00003708
_symmetry_Int_Tables_number   1
_chemical_formula_structural   Cu2H26C51(O2F3)6
_chemical_formula_sum   'Cu4 H52 C102 O24 F36'
_cell_volume   2693.20942294
_cell_formula_units_Z   2
loop_
 _symmetry_equiv_pos_site_id
 _symmetry_equiv_pos_as_xyz
  1  'x, y, z'
loop_
 _atom_site_type_symbol
 _atom_site_label
 _atom_site_symmetry_multiplicity
 _atom_site_fract_x
 _atom_site_fract_y
 _atom_site_fract_z
 _atom_site_occupancy
 _atom_site_pbe_bader_charge
 _atom_site_pbe_bader_spin_density
 _atom_site_pbe_cm5_charge
 _atom_site_pbe_ddec_charge
 _atom_site_pbe_ddec_spin_density
 _atom_site_pbe_ddec_sum_bond_order
 _atom_site_pbe_magmom
Cu  Cu0  1  0.85528395  0.47311342  0.52118943  1  1.100048  0.554124  0.694063  0.844495  0.70797  2.27893  0.551
Cu  Cu1  1  0.14471591  0.97311617  0.02119027  1  1.100071  0.554121  0.694101  0.84457  0.70796  2.278955  0.551
Cu  Cu2  1  0.14471689  0.52688550  0.47880901  1  1.100388  -0.55413  0.694084  0.844535  -0.707971  2.278846  -0.551
Cu  Cu3  1  0.85528217  0.02688663  0.97880922  1  1.100411  -0.554133  0.693998  0.844318  -0.70798  2.278968  -0.551
H  H4  1  0.89461301  0.33432046  0.53341656  1  0.666996  -7e-06  0.307095  0.363979  3.4e-05  0.981819  0.0
H  H5  1  0.10538524  0.83431821  0.03341557  1  0.667047  -7e-06  0.307085  0.363943  3.4e-05  0.981808  0.0
H  H6  1  0.10538232  0.66568068  0.46658344  1  0.667002  7e-06  0.3071  0.363999  -3.4e-05  0.98175  0.0
H  H7  1  0.89461560  0.16568127  0.96658254  1  0.667013  7e-06  0.307085  0.363976  -3.4e-05  0.981683  0.0
H  H8  1  0.48059257  0.65923743  0.58181175  1  0.137775  0.000264  0.110756  0.122004  0.000229  1.016674  0.0
H  H9  1  0.51940816  0.15924192  0.08181165  1  0.137319  0.000264  0.11073  0.121988  0.000229  1.016695  0.0
H  H10  1  0.51940965  0.34076149  0.41818766  1  0.137765  -0.000263  0.11075  0.121964  -0.000229  1.016678  0.0
H  H11  1  0.48059821  0.84075866  0.91818724  1  0.137846  -0.000263  0.110733  0.121968  -0.000229  1.016745  0.0
H  H12  1  0.33873199  0.78413815  0.62134723  1  0.092466  -0.000169  0.104954  0.113686  -8.9e-05  0.992981  0.0
H  H13  1  0.66126340  0.28414269  0.12134908  1  0.092256  -0.000169  0.104973  0.113697  -8.9e-05  0.993006  0.0
H  H14  1  0.66126885  0.21586021  0.37865154  1  0.092455  0.000169  0.104975  0.11372  8.9e-05  0.992922  0.0
H  H15  1  0.33873744  0.71585845  0.87864947  1  0.092395  0.000169  0.104969  0.1137  8.9e-05  0.992932  0.0
H  H16  1  0.82191649  0.87729804  0.55483346  1  0.088984  0.000195  0.096777  0.108031  0.000103  1.02944  0.0
H  H17  1  0.17808045  0.37730022  0.05483469  1  0.08893  0.000195  0.096797  0.1081  0.000103  1.029427  0.0
H  H18  1  0.17808298  0.12270199  0.44516624  1  0.088978  -0.000195  0.096792  0.108046  -0.000103  1.029441  0.0
H  H19  1  0.82192039  0.62270203  0.94516707  1  0.088923  -0.000195  0.096789  0.108115  -0.000103  1.029442  0.0
H  H20  1  0.96542710  0.75576228  0.52079302  1  0.069745  -0.000171  0.106396  0.112236  -0.000141  1.029168  0.0
H  H21  1  0.03457516  0.25576276  0.02079234  1  0.069751  -0.000171  0.106398  0.112246  -0.000141  1.029197  0.0
H  H22  1  0.03457650  0.24423886  0.47920795  1  0.069722  0.000171  0.106374  0.112213  0.000141  1.029217  0.0
H  H23  1  0.96542844  0.74423838  0.97920912  1  0.06972  0.000171  0.106389  0.112231  0.000141  1.029137  0.0
H  H24  1  0.61608227  0.88814939  0.72624308  1  0.09331  -0.000222  0.104106  0.112568  -0.000117  0.996659  0.0
H  H25  1  0.38391604  0.38814997  0.22624435  1  0.093284  -0.000222  0.1041  0.112548  -0.000117  0.996644  0.0
H  H26  1  0.38391857  0.11185231  0.27375805  1  0.09332  0.000222  0.104102  0.112538  0.000117  0.99666  0.0
H  H27  1  0.61608342  0.61184951  0.77375472  1  0.093308  0.000222  0.104112  0.112535  0.000117  0.996701  0.0
H  H28  1  0.48058309  0.91076381  0.84078470  1  0.112339  0.000259  0.112576  0.123515  0.000211  0.999354  0.0
H  H29  1  0.51941937  0.41076221  0.34078538  1  0.112339  0.000259  0.112565  0.123477  0.000211  0.999382  0.0
H  H30  1  0.51942051  0.08923844  0.15921609  1  0.112363  -0.000258  0.112577  0.123526  -0.000211  0.999379  0.0
H  H31  1  0.48058147  0.58923671  0.65921354  1  0.112326  -0.000258  0.112558  0.12348  -0.000211  0.999362  0.0
H  H32  1  0.97397271  0.98061695  0.77012314  1  0.10823  -0.000307  0.106003  0.116784  -0.000268  0.999245  0.0
H  H33  1  0.02603264  0.48061798  0.27012212  1  0.108203  -0.000307  0.106038  0.116878  -0.000268  0.99907  0.0
H  H34  1  0.02603090  0.01938253  0.22987642  1  0.108193  0.000307  0.106035  0.11684  0.000268  0.99917  0.0
H  H35  1  0.97396820  0.51938539  0.72987897  1  0.108199  0.000307  0.106034  0.116834  0.000268  0.999221  0.0
H  H36  1  0.11059479  0.96373010  0.65732482  1  0.1031  0.000179  0.092145  0.100465  9.6e-05  1.049602  0.0
H  H37  1  0.88940227  0.46373248  0.15732462  1  0.103101  0.000179  0.092155  0.100472  9.6e-05  1.049597  0.0
H  H38  1  0.88940881  0.03626882  0.34267508  1  0.103079  -0.000179  0.092128  0.10044  -9.6e-05  1.049615  0.0
H  H39  1  0.11059581  0.53627143  0.84267516  1  0.103121  -0.000179  0.092158  0.100487  -9.6e-05  1.049588  0.0
H  H40  1  0.66793522  0.22225640  0.60718706  1  0.126444  0.0  0.099502  0.109919  0.0  1.031951  0.0
H  H41  1  0.33206008  0.72225367  0.10719078  1  0.126372  -0.0  0.09949  0.109835  0.0  1.032044  0.0
H  H42  1  0.33206286  0.77774363  0.39281313  1  0.126446  0.0  0.099515  0.10991  -0.0  1.031974  0.0
H  H43  1  0.66793386  0.27774581  0.89281023  1  0.126418  0.0  0.099486  0.109862  0.0  1.03204  0.0
H  H44  1  0.45798553  0.18224724  0.68345625  1  0.11057  1e-06  0.097716  0.110697  1e-06  1.023567  0.0
H  H45  1  0.54201108  0.68224678  0.18346009  1  0.110914  1e-06  0.097706  0.110677  1e-06  1.023665  0.0
H  H46  1  0.54201394  0.81775335  0.31654507  1  0.110574  -0.0  0.0977  0.110675  -1e-06  1.023593  0.0
H  H47  1  0.45798286  0.31775159  0.81654014  1  0.110803  -1e-06  0.097708  0.110713  -1e-06  1.023607  0.0
H  H48  1  0.12389121  0.37747293  0.70397233  1  0.099073  1.1e-05  0.096055  0.103402  5e-06  1.036261  0.0
H  H49  1  0.87610846  0.87747145  0.20397249  1  0.099157  1.1e-05  0.096031  0.103385  5e-06  1.036253  0.0
H  H50  1  0.87610825  0.62252710  0.29602786  1  0.099066  -1e-05  0.09606  0.103428  -5e-06  1.036334  0.0
H  H51  1  0.12388962  0.12252748  0.79602740  1  0.099126  -1.1e-05  0.096076  0.103452  -5e-06  1.036277  0.0
H  H52  1  0.34259881  0.41832389  0.63077472  1  0.12524  -5e-06  0.103265  0.105229  1.2e-05  1.030421  0.0
H  H53  1  0.65739818  0.91832123  0.13077457  1  0.125364  -5e-06  0.103259  0.105228  1.1e-05  1.030364  0.0
H  H54  1  0.65740065  0.58167503  0.36922468  1  0.12526  6e-06  0.103263  0.10521  -1.1e-05  1.030408  0.0
H  H55  1  0.34259852  0.08167714  0.86922565  1  0.125327  6e-06  0.103251  0.105209  -1.1e-05  1.030347  0.0
C  C56  1  0.82293997  0.62459215  0.53023677  1  1.499763  -0.001493  0.225635  0.587696  -0.000975  4.136268  -0.002
C  C57  1  0.17706622  0.12459433  0.03023557  1  1.499342  -0.001493  0.225652  0.587757  -0.000974  4.136405  -0.002
C  C58  1  0.17706225  0.37540733  0.46976327  1  1.49966  0.001495  0.225642  0.587653  0.000977  4.136423  0.002
C  C59  1  0.82294152  0.87540737  0.96976410  1  1.49936  0.001496  0.225685  0.587704  0.000977  4.136222  0.002
C  C60  1  0.73377441  0.69904561  0.54977721  1  -0.002055  0.001758  -0.015329  -0.03364  0.00125  3.973661  0.001
C  C61  1  0.26622914  0.19904670  0.04977523  1  -0.001955  0.001758  -0.015317  -0.033627  0.00125  3.973866  0.001
C  C62  1  0.26622781  0.30095221  0.45022287  1  -0.00191  -0.001758  -0.015296  -0.033605  -0.00125  3.973698  -0.001
C  C63  1  0.73377860  0.80095222  0.95022370  1  -0.001691  -0.001759  -0.015334  -0.033619  -0.00125  3.973649  -0.001
C  C64  1  0.55556595  0.70768697  0.57745955  1  -0.069341  -0.001159  -0.077298  -0.078056  -0.000702  3.941623  -0.001
C  C65  1  0.44443209  0.20768922  0.07745981  1  -0.068876  -0.001159  -0.077307  -0.078155  -0.000702  3.941729  -0.001
C  C66  1  0.44443903  0.29231307  0.42254065  1  -0.069436  0.00116  -0.077309  -0.07802  0.000703  3.941648  0.001
C  C67  1  0.55557013  0.79231136  0.92253907  1  -0.069779  0.001161  -0.077327  -0.07819  0.000703  3.941776  0.001
C  C68  1  0.47585500  0.77776729  0.59874675  1  -0.006679  -0.000411  -0.087965  -0.123339  -0.000323  3.959159  0.0
C  C69  1  0.52414315  0.27777179  0.09874859  1  -0.006373  -0.000411  -0.087974  -0.123242  -0.000323  3.959151  0.0
C  C70  1  0.52414584  0.22223274  0.40125345  1  -0.006632  0.000411  -0.087979  -0.123386  0.000323  3.959171  0.0
C  C71  1  0.47586045  0.72222990  0.90125157  1  -0.00631  0.000411  -0.087891  -0.123168  0.000323  3.959117  0.0
C  C72  1  0.57046747  0.84015796  0.59195317  1  -0.055831  -0.000322  -0.012761  0.087593  -0.000211  3.953628  0.0
C  C73  1  0.42953079  0.34016077  0.09195407  1  -0.055634  -0.000321  -0.01283  0.08756  -0.00021  3.953469  0.0
C  C74  1  0.42953476  0.15984152  0.40804590  1  -0.055931  0.000322  -0.012751  0.087625  0.000211  3.95361  0.0
C  C75  1  0.57047557  0.65983871  0.90804500  1  -0.056382  0.000322  -0.012824  0.087561  0.000211  3.953466  0.0
C  C76  1  0.74580490  0.83077468  0.56239900  1  -0.017009  0.000756  -0.095581  -0.13448  0.00052  3.977386  0.001
C  C77  1  0.25419334  0.33077689  0.06239975  1  -0.016914  0.000756  -0.095591  -0.134602  0.00052  3.977444  0.001
C  C78  1  0.25419732  0.16922368  0.43759977  1  -0.016904  -0.000757  -0.095598  -0.134486  -0.00052  3.977537  -0.001
C  C79  1  0.74581026  0.66922315  0.93760093  1  -0.016478  -0.000757  -0.095601  -0.134648  -0.00052  3.977494  -0.001
C  C80  1  0.82739353  0.76094981  0.54221183  1  0.029228  0.00087  -0.079803  -0.073948  0.00057  3.944868  0.001
C  C81  1  0.17260736  0.26095143  0.04221097  1  0.029132  0.000871  -0.079808  -0.073931  0.00057  3.944955  0.001
C  C82  1  0.17261007  0.23904911  0.45778806  1  0.029174  -0.00087  -0.079818  -0.073966  -0.00057  3.945049  -0.001
C  C83  1  0.82739348  0.73904860  0.95778923  1  0.029378  -0.00087  -0.079817  -0.073916  -0.00057  3.944899  -0.001
C  C84  1  0.47304480  0.91578198  0.61548658  1  0.055605  -7e-06  -0.010132  -0.270107  -7e-06  3.852019  0.0
C  C85  1  0.52694529  0.41578815  0.11549081  1  0.055206  -7e-06  -0.010024  -0.27016  -7e-06  3.851885  0.0
C  C86  1  0.52695604  0.08421694  0.38451331  1  0.055642  7e-06  -0.010159  -0.270321  7e-06  3.852052  0.0
C  C87  1  0.47305417  0.58421355  0.88451032  1  0.055321  7e-06  -0.010068  -0.270167  7e-06  3.851833  0.0
C  C88  1  0.37419416  0.92473024  0.68339516  1  -0.056684  6.4e-05  -0.014449  0.085864  4.2e-05  3.95422  0.0
C  C89  1  0.62580007  0.42473254  0.18339544  1  -0.056544  6.4e-05  -0.014481  0.085803  4.2e-05  3.954271  0.0
C  C90  1  0.62580116  0.07526813  0.31660410  1  -0.05667  -6.4e-05  -0.014449  0.085944  -4.2e-05  3.954115  0.0
C  C91  1  0.37420077  0.57526749  0.81660330  1  -0.056497  -6.4e-05  -0.014444  0.08591  -4.2e-05  3.954143  0.0
C  C92  1  0.47537085  0.90887611  0.73559160  1  -0.000463  -0.000756  -0.088709  -0.126319  -0.000539  3.964331  -0.001
C  C93  1  0.52462611  0.40887783  0.23559269  1  -0.000448  -0.000755  -0.08871  -0.126261  -0.000539  3.964192  -0.001
C  C94  1  0.52462861  0.09112448  0.26440729  1  -0.000475  0.000755  -0.088669  -0.1262  0.000539  3.964217  0.001
C  C95  1  0.47537059  0.59112331  0.76440635  1  -0.000487  0.000755  -0.08867  -0.126182  0.000539  3.964248  0.001
C  C96  1  0.39912962  0.92016589  0.79968307  1  -0.038337  -0.001092  -0.074881  -0.072367  -0.000686  3.938245  -0.001
C  C97  1  0.60087424  0.42016486  0.29968293  1  -0.038345  -0.001092  -0.074877  -0.072359  -0.000687  3.938177  -0.001
C  C98  1  0.60087674  0.07983526  0.20031694  1  -0.038359  0.001092  -0.074895  -0.072454  0.000687  3.938291  0.001
C  C99  1  0.39912246  0.57983573  0.70031644  1  -0.038298  0.001092  -0.074862  -0.072348  0.000687  3.93819  0.001
C  C100  1  0.21760455  0.94610115  0.81212074  1  -0.059613  -0.000317  -0.014132  -0.030855  -0.000221  3.97435  0.0
C  C101  1  0.78240074  0.44610073  0.31212173  1  -0.059905  -0.000316  -0.014067  -0.030678  -0.00022  3.97435  0.0
C  C102  1  0.78240319  0.05389888  0.18787945  1  -0.060059  0.000316  -0.014113  -0.030812  0.00022  3.974372  0.0
C  C103  1  0.21759597  0.55389986  0.68787861  1  -0.060054  0.000316  -0.014136  -0.030879  0.000221  3.974432  0.0
C  C104  1  0.11475989  0.96028509  0.75991528  1  0.019144  0.001011  -0.080634  -0.07595  0.000649  3.951953  0.001
C  C105  1  0.88524129  0.46028747  0.25991654  1  0.019448  0.001011  -0.080687  -0.07616  0.000649  3.95189  0.001
C  C106  1  0.88524233  0.03971439  0.24008476  1  0.019487  -0.00101  -0.080686  -0.07604  -0.000649  3.951965  -0.001
C  C107  1  0.11475541  0.53971590  0.74008504  1  0.019443  -0.00101  -0.08065  -0.075968  -0.000649  3.952023  -0.001
C  C108  1  0.19277118  0.95034241  0.69614936  1  -0.064482  0.000666  -0.097805  -0.141027  0.000473  3.988126  0.001
C  C109  1  0.80722585  0.45034366  0.19615031  1  -0.064407  0.000666  -0.097843  -0.141004  0.000473  3.98817  0.001
C  C110  1  0.80722690  0.04965762  0.30385132  1  -0.064458  -0.000667  -0.09781  -0.141052  -0.000474  3.988097  -0.001
C  C111  1  0.19277361  0.54965748  0.80385018  1  -0.064466  -0.000667  -0.097889  -0.141158  -0.000474  3.988201  -0.001
C  C112  1  0.13656083  0.96278401  0.88159637  1  1.526217  -0.000279  0.214146  0.567137  -0.000249  4.179396  0.0
C  C113  1  0.86344171  0.46278305  0.38159527  1  1.526145  -0.00028  0.214092  0.567027  -0.00025  4.179702  0.0
C  C114  1  0.86343863  0.03721713  0.11840413  1  1.526539  0.000285  0.214074  0.567063  0.000253  4.179617  0.0
C  C115  1  0.13655637  0.53721754  0.61840410  1  1.526279  0.000282  0.214065  0.567014  0.000252  4.179742  0.0
C  C116  1  0.60949047  0.98281009  0.62821599  1  1.723175  5e-06  0.303419  0.674876  5e-06  3.970593  0.0
C  C117  1  0.39050111  0.48281289  0.12821932  1  1.723075  5e-06  0.30338  0.67476  5e-06  3.970308  0.0
C  C118  1  0.39050761  0.01718995  0.37178614  1  1.723209  -5e-06  0.303482  0.675005  -5e-06  3.970434  0.0
C  C119  1  0.60949836  0.51718659  0.87178170  1  1.723171  -5e-06  0.30337  0.674707  -5e-06  3.970457  0.0
C  C120  1  0.33969923  0.91834131  0.55672222  1  1.710548  -1.4e-05  0.302178  0.675295  -8e-06  3.973235  0.0
C  C121  1  0.66029226  0.41834752  0.05672548  1  1.711039  -1.4e-05  0.302169  0.675478  -8e-06  3.973232  0.0
C  C122  1  0.66030437  0.08165816  0.44327637  1  1.710958  1.4e-05  0.302276  0.675696  8e-06  3.972807  0.0
C  C123  1  0.33970721  0.58165307  0.94327583  1  1.710992  1.4e-05  0.30222  0.675529  8e-06  3.973118  0.0
C  C124  1  0.65712177  0.35308248  0.57628620  1  1.498067  -0.0004  0.235112  0.588797  -0.000287  4.103057  0.0
C  C125  1  0.34287651  0.85307752  0.07628544  1  1.497772  -0.0004  0.23514  0.588777  -0.000287  4.103072  0.0
C  C126  1  0.34287631  0.64692089  0.42371538  1  1.497938  0.000401  0.23513  0.58878  0.000287  4.103147  0.0
C  C127  1  0.65712158  0.14692196  0.92371412  1  1.498046  0.000401  0.235083  0.588734  0.000287  4.103104  0.0
C  C128  1  0.52079615  0.32393062  0.61552486  1  -0.067554  0.000134  -0.017976  -0.048172  0.0001  3.993195  0.0
C  C129  1  0.47920207  0.82392792  0.11552762  1  -0.067453  0.000135  -0.018111  -0.048464  0.0001  3.993597  0.0
C  C130  1  0.47920331  0.67606886  0.38447469  1  -0.067575  -0.000134  -0.017972  -0.048231  -0.0001  3.99333  0.0
C  C131  1  0.52079188  0.17607156  0.88447291  1  -0.06747  -0.000134  -0.018024  -0.048319  -0.0001  3.993511  0.0
C  C132  1  0.54968008  0.25627182  0.62897192  1  0.00406  -8.9e-05  -0.081285  -0.071172  -5.7e-05  3.949693  0.0
C  C133  1  0.45031528  0.75626857  0.12897549  1  0.003516  -8.9e-05  -0.081149  -0.070856  -5.7e-05  3.949515  0.0
C  C134  1  0.45031663  0.74372765  0.37102764  1  0.004064  8.9e-05  -0.081301  -0.07115  5.7e-05  3.949625  0.0
C  C135  1  0.54968005  0.24373036  0.87102489  1  0.003488  8.9e-05  -0.081132  -0.070874  5.7e-05  3.94968  0.0
C  C136  1  0.43021909  0.23376508  0.67170129  1  -0.03541  2.3e-05  -0.090875  -0.125154  1.4e-05  3.952024  0.0
C  C137  1  0.56977484  0.73376352  0.17170532  1  -0.015649  2.3e-05  -0.090848  -0.125157  1.4e-05  3.951963  0.0
C  C138  1  0.56977761  0.76623440  0.32829875  1  -0.035443  -2.3e-05  -0.090848  -0.125132  -1.4e-05  3.951911  0.0
C  C139  1  0.43022186  0.26623429  0.82829476  1  -0.01562  -2.3e-05  -0.090845  -0.125187  -1.4e-05  3.951991  0.0
C  C140  1  0.27811331  0.27760083  0.70102141  1  -0.058829  -8.5e-05  -0.011425  0.092009  -5.5e-05  3.935005  0.0
C  C141  1  0.72188345  0.77759931  0.20102448  1  -0.078688  -8.5e-05  -0.011381  0.092133  -5.4e-05  3.934933  0.0
C  C142  1  0.72188478  0.72239865  0.29897863  1  -0.058836  8.4e-05  -0.011407  0.092093  5.4e-05  3.934928  0.0
C  C143  1  0.27811187  0.22240017  0.79897556  1  -0.078553  8.4e-05  -0.011379  0.09215  5.4e-05  3.93481  0.0
C  C144  1  0.24326799  0.34303105  0.68404431  1  0.033151  2.7e-05  -0.094357  -0.131403  1.6e-05  3.961593  0.0
C  C145  1  0.75673301  0.84302843  0.18404611  1  0.033067  2.7e-05  -0.094409  -0.131546  1.6e-05  3.961515  0.0
C  C146  1  0.75673285  0.65696787  0.31595461  1  0.033151  -2.7e-05  -0.094394  -0.131513  -1.6e-05  3.961668  0.0
C  C147  1  0.24326645  0.15697105  0.81595393  1  0.033061  -2.7e-05  -0.094478  -0.131662  -1.6e-05  3.961579  0.0
C  C148  1  0.36497364  0.36623353  0.64218531  1  -0.071954  -8.2e-05  -0.078668  -0.067431  -4.9e-05  3.943077  0.0
C  C149  1  0.63502051  0.86623144  0.14218823  1  -0.07188  -8.2e-05  -0.078681  -0.067376  -4.9e-05  3.943121  0.0
C  C150  1  0.63502168  0.63376539  0.35781361  1  -0.071961  8.2e-05  -0.07869  -0.06741  4.9e-05  3.943108  0.0
C  C151  1  0.36497757  0.13376693  0.85781152  1  -0.071923  8.2e-05  -0.078688  -0.067423  4.9e-05  3.943066  0.0
C  C152  1  0.15666013  0.25000076  0.74999880  1  0.052913  0.0  -0.010076  -0.272934  0.0  3.840733  0.0
C  C153  1  0.84333796  0.75000094  0.25000184  1  0.05291  0.0  -0.010021  -0.272975  0.0  3.840786  0.0
C  C154  1  0.03157997  0.31254418  0.79542108  1  1.718017  4e-06  0.302122  0.677828  3e-06  3.970791  0.0
C  C155  1  0.96841821  0.81254272  0.29542319  1  1.717661  4e-06  0.302112  0.677873  3e-06  3.970808  0.0
C  C156  1  0.96842225  0.68745641  0.20457975  1  1.718026  -4e-06  0.30221  0.677979  -3e-06  3.970551  0.0
C  C157  1  0.03158125  0.18745509  0.70457641  1  1.717967  -4e-06  0.30218  0.677754  -3e-06  3.970845  0.0
O  O158  1  0.73601207  0.57153582  0.54211131  1  -1.074331  0.091694  -0.287196  -0.470768  0.059228  2.3294  0.083
O  O159  1  0.26398714  0.07153636  0.04211064  1  -1.074283  0.091698  -0.287191  -0.470793  0.05923  2.329474  0.083
O  O160  1  0.26399153  0.42846255  0.45788940  1  -1.074237  -0.0917  -0.287177  -0.470723  -0.05923  2.329487  -0.083
O  O161  1  0.73601232  0.92846145  0.95788993  1  -1.074187  -0.091693  -0.28724  -0.470727  -0.059226  2.329532  -0.083
O  O162  1  0.98512952  0.61919546  0.50360749  1  -1.143368  -0.066958  -0.313011  -0.564482  -0.044038  2.470178  -0.061
O  O163  1  0.01487391  0.11919871  0.00360756  1  -1.143079  -0.066964  -0.312995  -0.564425  -0.044042  2.470159  -0.061
O  O164  1  0.01487270  0.38080512  0.49639236  1  -1.143344  0.066965  -0.313031  -0.56447  0.044043  2.4703  0.061
O  O165  1  0.98513383  0.88080576  0.99639286  1  -1.14313  0.066966  -0.312971  -0.564444  0.044043  2.47003  0.061
O  O166  1  0.23217621  0.94529915  0.92654730  1  -1.088193  0.087743  -0.305242  -0.505301  0.056699  2.351479  0.079
O  O167  1  0.76782629  0.44529594  0.42654415  1  -1.088141  0.087749  -0.305171  -0.505249  0.056703  2.351544  0.079
O  O168  1  0.76782187  0.05470533  0.07345651  1  -1.088495  -0.087752  -0.305121  -0.505201  -0.056702  2.351571  -0.079
O  O169  1  0.23217317  0.55470465  0.57345522  1  -1.088156  -0.087748  -0.30516  -0.505209  -0.056701  2.351541  -0.079
O  O170  1  0.97942501  0.99487817  0.88999531  1  -1.098517  -0.088884  -0.315094  -0.52238  -0.05744  2.365225  -0.08
O  O171  1  0.02057758  0.49487698  0.38999466  1  -1.09858  -0.088886  -0.31513  -0.5224  -0.057442  2.365212  -0.08
O  O172  1  0.02057307  0.00512129  0.11000085  1  -1.098504  0.088891  -0.315121  -0.522394  0.057446  2.365255  0.08
O  O173  1  0.97942326  0.50512193  0.61000329  1  -1.098551  0.088887  -0.315117  -0.522403  0.057444  2.365319  0.08
O  O174  1  0.63610726  0.41257673  0.56306542  1  -1.144183  -0.000611  -0.288947  -0.497804  -0.000253  2.226628  0.0
O  O175  1  0.36389249  0.91257289  0.06306545  1  -1.143974  -0.000611  -0.288919  -0.497708  -0.000253  2.226588  0.0
O  O176  1  0.36389082  0.58742441  0.43693652  1  -1.144028  0.00061  -0.288948  -0.49778  0.000253  2.226567  0.0
O  O177  1  0.63610559  0.08742604  0.93693493  1  -1.144024  0.00061  -0.28896  -0.497742  0.000252  2.226543  0.0
O  O178  1  0.80570397  0.30999286  0.55813402  1  -1.182279  0.000125  -0.334907  -0.483614  8.5e-05  2.314107  0.0
O  O179  1  0.19429286  0.80998897  0.05813258  1  -1.182147  0.000125  -0.334934  -0.48361  8.6e-05  2.314161  0.0
O  O180  1  0.19429411  0.69000828  0.44186648  1  -1.182304  -0.000125  -0.334901  -0.483591  -8.5e-05  2.314157  0.0
O  O181  1  0.80570523  0.19000995  0.94186538  1  -1.182321  -0.000125  -0.334871  -0.483588  -8.5e-05  2.31413  0.0
F  F182  1  0.75216236  0.97565776  0.66913160  1  -0.62465  -7e-06  -0.087634  -0.199313  6e-06  1.354103  0.0
F  F183  1  0.24783472  0.47566053  0.16913734  1  -0.62481  -7e-06  -0.087593  -0.199228  6e-06  1.354158  0.0
F  F184  1  0.24783710  0.02434283  0.33086875  1  -0.62464  7e-06  -0.087642  -0.199319  -6e-06  1.354047  0.0
F  F185  1  0.75216612  0.52434006  0.83086348  1  -0.624784  7e-06  -0.087613  -0.199231  -6e-06  1.354081  0.0
F  F186  1  0.52394839  0.04792375  0.66008486  1  -0.615212  1e-06  -0.093215  -0.196721  -0.0  1.348964  0.0
F  F187  1  0.47604662  0.54792604  0.16008944  1  -0.615243  1e-06  -0.093217  -0.196717  0.0  1.348753  0.0
F  F188  1  0.47605107  0.95207573  0.33991519  1  -0.615236  -1e-06  -0.093225  -0.196752  -0.0  1.348916  0.0
F  F189  1  0.52395008  0.45207288  0.83990948  1  -0.615165  -1e-06  -0.093219  -0.196718  -0.0  1.34879  0.0
F  F190  1  0.68589175  0.99058861  0.57046328  1  -0.610937  2e-05  -0.098208  -0.207763  1.2e-05  1.364272  0.0
F  F191  1  0.31409433  0.49059195  0.07046772  1  -0.610778  2e-05  -0.098216  -0.207709  1.2e-05  1.364207  0.0
F  F192  1  0.31410633  0.00941197  0.42953706  1  -0.610978  -2e-05  -0.098233  -0.207803  -1.2e-05  1.3643  0.0
F  F193  1  0.68589961  0.50940697  0.92953120  1  -0.61095  -2e-05  -0.098192  -0.207677  -1.2e-05  1.364371  0.0
F  F194  1  0.19835588  0.86893222  0.55087486  1  -0.616547  1e-05  -0.087291  -0.195814  1.2e-05  1.340935  0.0
F  F195  1  0.80163829  0.36893790  0.05087701  1  -0.616915  1e-05  -0.087339  -0.195918  1.2e-05  1.340964  0.0
F  F196  1  0.80164496  0.13106892  0.44912418  1  -0.61674  -1e-05  -0.087311  -0.195936  -1.3e-05  1.340788  0.0
F  F197  1  0.19836118  0.63106102  0.94912385  1  -0.616846  -1e-05  -0.087333  -0.195921  -1.3e-05  1.340924  0.0
F  F198  1  0.26225639  0.98625311  0.56539556  1  -0.610371  8e-06  -0.097566  -0.199272  4e-06  1.334772  0.0
F  F199  1  0.73772968  0.48625878  0.06539916  1  -0.610484  8e-06  -0.097456  -0.199226  4e-06  1.33496  0.0
F  F200  1  0.73774859  0.01374692  0.43460270  1  -0.610511  -8e-06  -0.097563  -0.199322  -4e-06  1.334674  0.0
F  F201  1  0.26226978  0.51374126  0.93460249  1  -0.610503  -8e-06  -0.097479  -0.199263  -4e-06  1.33492  0.0
F  F202  1  0.42829367  0.89947274  0.49599108  1  -0.613539  -3e-06  -0.093851  -0.197277  -2e-06  1.36047  0.0
F  F203  1  0.57169495  0.39947602  0.99599333  1  -0.613499  -4e-06  -0.093893  -0.197342  -2e-06  1.360324  0.0
F  F204  1  0.57171131  0.10052562  0.50400769  1  -0.613591  3e-06  -0.093919  -0.197415  2e-06  1.360364  0.0
F  F205  1  0.42830175  0.60052457  0.00400798  1  -0.613535  3e-06  -0.093941  -0.197382  2e-06  1.360342  0.0
F  F206  1  0.95580791  0.29168313  0.84720872  1  -0.616133  2e-06  -0.091315  -0.199049  1e-06  1.362058  0.0
F  F207  1  0.04418884  0.79168475  0.34721313  1  -0.616245  2e-06  -0.091318  -0.199049  1e-06  1.36207  0.0
F  F208  1  0.04418879  0.70831524  0.15279054  1  -0.616129  -2e-06  -0.091358  -0.199115  -1e-06  1.362018  0.0
F  F209  1  0.95581062  0.20831417  0.65278579  1  -0.61626  -2e-06  -0.091313  -0.19901  -1e-06  1.362072  0.0
F  F210  1  0.88928071  0.33197917  0.76071439  1  -0.617538  2e-06  -0.099473  -0.207026  0.0  1.31509  0.0
F  F211  1  0.11072302  0.83197638  0.26071810  1  -0.617455  1e-06  -0.099445  -0.207018  0.0  1.314979  0.0
F  F212  1  0.11072151  0.66801975  0.23928599  1  -0.617584  -2e-06  -0.09949  -0.207068  -1e-06  1.315028  0.0
F  F213  1  0.88927644  0.16802088  0.73928135  1  -0.61749  -2e-06  -0.099491  -0.207021  -1e-06  1.314978  0.0
F  F214  1  0.13075763  0.37528219  0.82438813  1  -0.617855  -0.0  -0.092005  -0.197643  -1e-06  1.348428  0.0
F  F215  1  0.86924202  0.87528347  0.32438855  1  -0.617486  -0.0  -0.092017  -0.197661  -1e-06  1.348447  0.0
F  F216  1  0.86924459  0.62471729  0.17561386  1  -0.617814  0.0  -0.09203  -0.197665  1e-06  1.348346  0.0
F  F217  1  0.13075606  0.12471656  0.67561116  1  -0.617758  0.0  -0.091996  -0.197586  1e-06  1.348493  0.0
