# generated using pymatgen
data_CuH23C23N5O4
_symmetry_space_group_name_H-M   'P 1'
_cell_length_a   8.51396448
_cell_length_b   10.76304069
_cell_length_c   16.33812119
_cell_angle_alpha   82.38977848
_cell_angle_beta   74.90799757
_cell_angle_gamma   66.70202467
_symmetry_Int_Tables_number   1
_chemical_formula_structural   CuH23C23N5O4
_chemical_formula_sum   'Cu2 H46 C46 N10 O8'
_cell_volume   1326.92379412
_cell_formula_units_Z   2
loop_
 _symmetry_equiv_pos_site_id
 _symmetry_equiv_pos_as_xyz
  1  'x, y, z'
loop_
 _atom_site_type_symbol
 _atom_site_label
 _atom_site_symmetry_multiplicity
 _atom_site_fract_x
 _atom_site_fract_y
 _atom_site_fract_z
 _atom_site_occupancy
 _atom_site_hle17_ddec_charge
 _atom_site_hle17_ddec_spin_density
 _atom_site_hle17_ddec_sum_bond_order
 _atom_site_hle17_magmom
 _atom_site_hse06_10hf_ddec_charge
 _atom_site_hse06_10hf_ddec_spin_density
 _atom_site_hse06_10hf_ddec_sum_bond_order
 _atom_site_hse06_10hf_magmom
 _atom_site_hse06_ddec_charge
 _atom_site_hse06_ddec_spin_density
 _atom_site_hse06_ddec_sum_bond_order
 _atom_site_hse06_magmom
 _atom_site_pbe_bader_charge
 _atom_site_pbe_bader_spin_density
 _atom_site_pbe_cm5_charge
 _atom_site_pbe_ddec_charge
 _atom_site_pbe_ddec_spin_density
 _atom_site_pbe_ddec_sum_bond_order
 _atom_site_pbe_magmom
Cu  Cu0  1  0.99999912  0.99999878  0.49999972  1  0.816111  0.678727  1.760131  0.494  0.778536  0.761896  2.14815  0.603  0.870898  0.826488  2.079322  0.684  1.025868  0.553215  0.726102  0.721209  0.719553  2.197618  0.554
Cu  Cu1  1  0.49999971  0.50000040  0.00000026  1  0.8171  0.67913  1.758863  0.494  0.779518  0.76238  2.147791  0.603  0.872329  0.8269  2.078472  0.684  1.032427  0.553554  0.726016  0.722014  0.719936  2.197487  0.554
H  H2  1  0.13607734  0.23883873  0.54880971  1  0.314283  5.4e-05  0.935019  0.0  0.295137  1.2e-05  1.002671  0.0  0.303384  -4e-06  0.995774  0.0  0.53031  4.5e-05  0.307511  0.289305  3.3e-05  1.007565  0.0
H  H3  1  0.92317327  0.26144912  0.95124172  1  0.314654  5.3e-05  0.935207  0.0  0.29438  1.3e-05  1.004109  0.0  0.302671  -3e-06  0.997162  0.0  0.528063  4.7e-05  0.307249  0.288554  3.3e-05  1.008997  0.0
H  H4  1  0.86392167  0.76116410  0.45118959  1  0.314249  5.4e-05  0.935086  0.0  0.295099  1.2e-05  1.002744  0.0  0.303345  -4e-06  0.99585  0.0  0.530323  4.5e-05  0.307496  0.289268  3.3e-05  1.007637  0.0
H  H5  1  0.07682650  0.73854966  0.04875889  1  0.314607  5.3e-05  0.935337  0.0  0.294425  1.3e-05  1.004102  0.0  0.302725  -3e-06  0.997153  0.0  0.528147  4.7e-05  0.307247  0.288602  3.3e-05  1.008981  0.0
H  H6  1  0.73452083  0.04379668  0.66369912  1  0.084054  0.000482  0.954185  0.001  0.094508  0.000494  1.01285  0.001  0.096822  0.000336  1.010639  0.001  0.11212  0.001514  0.117734  0.09259  0.000627  1.014736  0.001
H  H7  1  0.44175316  0.45616526  0.83632334  1  0.084391  0.000486  0.953158  0.001  0.094162  0.000495  1.012634  0.001  0.09642  0.000336  1.010477  0.001  0.131021  0.001492  0.117614  0.092361  0.000626  1.014323  0.001
H  H8  1  0.26548061  0.95620210  0.33630104  1  0.084034  0.000482  0.954211  0.001  0.094485  0.000494  1.012884  0.001  0.096798  0.000336  1.010675  0.001  0.112123  0.001514  0.11773  0.092566  0.000627  1.01477  0.001
H  H9  1  0.55824853  0.54383352  0.16367898  1  0.084382  0.000486  0.953111  0.001  0.09415  0.000496  1.012586  0.001  0.096409  0.000336  1.010428  0.001  0.130989  0.001492  0.117595  0.092327  0.000627  1.014299  0.001
H  H10  1  0.40875327  0.13701051  0.71283111  1  0.123695  0.000447  0.975046  0.001  0.128987  0.000377  1.039076  0.0  0.133197  0.000281  1.037452  0.0  0.108283  0.000885  0.108263  0.125977  0.000458  1.040433  0.001
H  H11  1  0.25824175  0.36298483  0.78723587  1  0.123217  0.00045  0.976448  0.001  0.128425  0.000381  1.040589  0.0  0.132644  0.000283  1.038951  0.0  0.100703  0.000887  0.107886  0.125393  0.000459  1.041992  0.001
H  H12  1  0.59124642  0.86299434  0.28716770  1  0.123662  0.000447  0.97505  0.001  0.128965  0.000378  1.039073  0.0  0.133175  0.000281  1.037449  0.0  0.108246  0.000885  0.108261  0.125954  0.000458  1.040429  0.001
H  H13  1  0.74176088  0.63701294  0.21276725  1  0.123182  0.000451  0.976501  0.001  0.128391  0.000381  1.040643  0.0  0.132611  0.000283  1.039002  0.0  0.100677  0.000887  0.107882  0.125357  0.000459  1.042046  0.001
H  H14  1  0.38452791  0.21277085  0.44862491  1  0.121849  0.000462  0.947419  0.0  0.133773  0.000412  1.003858  0.0  0.137156  0.00031  1.003536  0.0  0.092185  0.000966  0.112605  0.131362  0.000493  1.004255  0.001
H  H15  1  0.04522261  0.28775284  0.05146191  1  0.121973  0.000463  0.947064  0.0  0.13434  0.000413  1.003009  0.0  0.137718  0.000311  1.002654  0.0  0.08751  0.000965  0.113023  0.131946  0.000493  1.003363  0.001
H  H16  1  0.61547259  0.78722895  0.55137445  1  0.121878  0.000462  0.947397  0.0  0.1338  0.000412  1.003841  0.0  0.137182  0.00031  1.003519  0.0  0.09219  0.000966  0.11262  0.13139  0.000493  1.004235  0.001
H  H17  1  0.95477649  0.71224695  0.94854006  1  0.12199  0.000463  0.947058  0.0  0.134365  0.000413  1.00299  0.0  0.137743  0.000311  1.002636  0.0  0.087536  0.000966  0.113025  0.131966  0.000493  1.00336  0.001
H  H18  1  0.71144212  0.12274630  0.41138840  1  0.087705  0.000444  0.950715  0.001  0.096929  0.00047  1.01232  0.001  0.099769  0.000312  1.009208  0.001  0.115515  0.001501  0.117237  0.094692  0.000605  1.014684  0.001
H  H19  1  0.24519000  0.37748993  0.08866250  1  0.086389  0.000444  0.952396  0.001  0.095693  0.00047  1.01398  0.001  0.098459  0.000312  1.010958  0.001  0.104933  0.001509  0.116587  0.093563  0.000606  1.016195  0.001
H  H20  1  0.28855832  0.87725147  0.58861084  1  0.087665  0.000444  0.95073  0.001  0.096834  0.00047  1.012402  0.001  0.09968  0.000312  1.009283  0.001  0.11553  0.001501  0.117203  0.094598  0.000605  1.014762  0.001
H  H21  1  0.75480755  0.62251087  0.91133928  1  0.086381  0.000444  0.952362  0.001  0.095681  0.00047  1.013959  0.001  0.098449  0.000311  1.010927  0.001  0.104963  0.001509  0.116582  0.093552  0.000606  1.016172  0.001
H  H22  1  0.87348217  0.23815148  0.61290391  1  0.123974  -0.000258  0.97836  0.0  0.127251  -0.000315  1.049091  0.0  0.131458  -0.000318  1.047024  0.0  0.124274  -0.000197  0.104132  0.124088  -0.000289  1.05097  0.0
H  H23  1  0.72423968  0.26194912  0.88698731  1  0.123631  -0.000257  0.977436  0.0  0.126675  -0.000312  1.048334  0.0  0.130837  -0.000316  1.046296  0.0  0.113522  -0.000197  0.104466  0.123519  -0.00029  1.050238  0.0
H  H24  1  0.12651845  0.76185236  0.38709569  1  0.124019  -0.000258  0.978274  0.0  0.127265  -0.000315  1.049038  0.0  0.131467  -0.000318  1.046972  0.0  0.124274  -0.000197  0.104141  0.1241  -0.000289  1.050917  0.0
H  H25  1  0.27576298  0.73805270  0.11301250  1  0.12362  -0.000257  0.977455  0.0  0.126662  -0.000312  1.048357  0.0  0.130826  -0.000316  1.046316  0.0  0.113521  -0.000197  0.104458  0.123506  -0.00029  1.050261  0.0
H  H26  1  0.64831536  0.25001994  0.74989863  1  0.083035  2.3e-05  0.953698  0.0  0.096218  3.7e-05  1.010151  0.0  0.098186  3.7e-05  1.00883  0.0  0.079902  2.7e-05  0.102751  0.094831  3.9e-05  1.011006  0.0
H  H27  1  0.35168625  0.74998492  0.25010189  1  0.083  2.1e-05  0.953655  0.0  0.096181  3.7e-05  1.010111  0.0  0.098155  3.7e-05  1.008794  0.0  0.079705  2.7e-05  0.102752  0.094797  3.9e-05  1.010955  0.0
H  H28  1  0.11300715  0.75477643  0.74454160  1  0.10934  0.000191  0.961418  0.0  0.130733  0.000148  1.022701  0.0  0.131246  0.000105  1.023774  0.0  0.065761  0.000244  0.089314  0.130338  0.00019  1.021904  0.0
H  H29  1  0.61258661  0.74495049  0.75530768  1  0.108896  0.00019  0.96112  0.0  0.130022  0.000149  1.022743  0.0  0.130552  0.000105  1.023797  0.0  0.06369  0.000246  0.08894  0.129612  0.00019  1.021983  0.0
H  H30  1  0.88699413  0.24522337  0.25545576  1  0.109314  0.00019  0.961438  0.0  0.130698  0.000149  1.02273  0.0  0.13121  0.000104  1.023806  0.0  0.065748  0.000244  0.089294  0.130306  0.00019  1.021935  0.0
H  H31  1  0.38741432  0.25504627  0.24469157  1  0.108899  0.000189  0.961096  0.0  0.130015  0.000149  1.022729  0.0  0.130545  0.000105  1.023783  0.0  0.063686  0.000246  0.088947  0.129609  0.00019  1.021972  0.0
H  H32  1  0.01195674  0.64305951  0.80268756  1  0.096624  -8.9e-05  0.96585  0.0  0.116913  -5.2e-05  1.030888  0.0  0.11715  -3.5e-05  1.0323  0.0  0.035809  -7e-06  0.085387  0.116664  -6.1e-05  1.029936  0.0
H  H33  1  0.45788199  0.85665627  0.69723581  1  0.096578  -9e-05  0.965733  0.0  0.11642  -5.2e-05  1.031171  0.0  0.116678  -3.5e-05  1.032559  0.0  0.038057  -5e-06  0.085217  0.116185  -6e-05  1.030218  0.0
H  H34  1  0.98804425  0.35693927  0.19731182  1  0.09661  -9.1e-05  0.965869  0.0  0.116888  -5.2e-05  1.030925  0.0  0.11714  -3.5e-05  1.032321  0.0  0.036214  -7e-06  0.085391  0.11664  -6.1e-05  1.029975  0.0
H  H35  1  0.54211844  0.14334150  0.30276342  1  0.096581  -9e-05  0.965744  0.0  0.116412  -5.2e-05  1.031195  0.0  0.11667  -3.5e-05  1.032582  0.0  0.038053  -5e-06  0.085207  0.116181  -6e-05  1.030241  0.0
H  H36  1  0.88393937  0.81589806  0.78152158  1  0.104955  0.000123  0.931419  0.0  0.129447  3.4e-05  0.986288  0.0  0.130065  3.2e-05  0.986432  0.0  0.044585  9.7e-05  0.092045  0.128843  4.5e-05  0.986451  0.0
H  H37  1  0.48154290  0.68381671  0.71837976  1  0.104882  0.000121  0.931636  0.0  0.129436  3.4e-05  0.986409  0.0  0.130049  3.2e-05  0.986555  0.0  0.032203  0.0001  0.09209  0.128932  4.5e-05  0.986377  0.0
H  H38  1  0.11606268  0.18410072  0.21847797  1  0.10493  0.000121  0.931415  0.0  0.129443  3.4e-05  0.986257  0.0  0.130062  3.2e-05  0.986401  0.0  0.044565  9.7e-05  0.092051  0.128843  4.5e-05  0.986421  0.0
H  H39  1  0.51845925  0.31618004  0.28161827  1  0.104892  0.000121  0.93167  0.0  0.129441  3.4e-05  0.986444  0.0  0.130054  3.2e-05  0.986589  0.0  0.031896  0.0001  0.092108  0.128943  4.5e-05  0.986412  0.0
H  H40  1  0.94557558  0.50404191  0.72207780  1  0.12438  0.000668  0.979429  0.001  0.136215  0.000341  1.042282  0.0  0.138418  0.000206  1.04242  0.0  0.065301  0.000916  0.093483  0.134563  0.000462  1.042328  0.001
H  H41  1  0.17206498  0.99579128  0.77800868  1  0.124391  0.000665  0.978381  0.001  0.135867  0.000338  1.041862  0.0  0.137986  0.000204  1.042074  0.0  0.074093  0.000906  0.093585  0.134292  0.000459  1.041831  0.001
H  H42  1  0.05441954  0.49595991  0.27792225  1  0.124373  0.000667  0.979325  0.001  0.136203  0.000341  1.042198  0.0  0.138407  0.000206  1.042337  0.0  0.065331  0.000916  0.093496  0.134555  0.000462  1.042243  0.001
H  H43  1  0.82793706  0.00420447  0.22198998  1  0.124406  0.000665  0.978329  0.001  0.135874  0.000338  1.041813  0.0  0.137993  0.000204  1.042026  0.0  0.074055  0.000906  0.09358  0.134303  0.000459  1.041782  0.001
H  H44  1  0.94247206  0.54913921  0.60780617  1  0.136829  0.000131  0.950464  0.0  0.14725  1e-06  1.012688  0.0  0.151436  -2e-06  1.00948  0.0  0.094916  5.7e-05  0.097431  0.144239  1.6e-05  1.015018  0.0
H  H45  1  0.10001559  0.95058366  0.89226855  1  0.136725  0.000132  0.951137  0.0  0.14723  6e-06  1.013313  0.0  0.15141  2e-06  1.01008  0.0  0.070708  5.4e-05  0.097263  0.144216  1.5e-05  1.015638  0.0
H  H46  1  0.05752166  0.45085958  0.39219561  1  0.136787  0.00013  0.950476  0.0  0.147219  1e-06  1.012681  0.0  0.151414  -1e-06  1.009462  0.0  0.094658  5.8e-05  0.09743  0.144209  1.6e-05  1.015014  0.0
H  H47  1  0.89998152  0.04941411  0.10773158  1  0.136745  0.000132  0.951116  0.0  0.14721  6e-06  1.013347  0.0  0.15139  2e-06  1.010114  0.0  0.070678  5.4e-05  0.09726  0.144201  1.5e-05  1.01567  0.0
C  C48  1  0.65137047  0.08459842  0.61827551  1  0.13068  -0.007161  3.740296  -0.004  0.104474  -0.001297  3.991179  -0.001  0.116219  -0.002734  4.009944  -0.002  0.380647  0.000233  0.036656  0.097255  -0.000235  3.97828  0.0
C  C49  1  0.35383976  0.41552446  0.88176349  1  0.131047  -0.007167  3.739624  -0.004  0.105684  -0.001286  3.990334  -0.001  0.117466  -0.002728  4.009157  -0.002  0.41371  0.000114  0.037265  0.098394  -0.000231  3.977434  0.0
C  C50  1  0.34863058  0.91540239  0.38172399  1  0.130733  -0.007162  3.74021  -0.004  0.104523  -0.001297  3.991109  -0.001  0.116269  -0.002737  4.009873  -0.002  0.380643  0.000232  0.036651  0.097301  -0.000235  3.978213  0.0
C  C51  1  0.64616255  0.58447433  0.11823822  1  0.130963  -0.007163  3.739617  -0.004  0.1056  -0.001287  3.990334  -0.001  0.117377  -0.002727  4.009157  -0.002  0.413573  0.000116  0.037223  0.098327  -0.000231  3.977445  0.0
C  C52  1  0.47014644  0.13584957  0.64557147  1  -0.242025  0.007032  3.711975  0.008  -0.256125  0.003179  3.960402  0.004  -0.268274  0.002828  3.978834  0.004  0.068031  0.004918  -0.102327  -0.248291  0.00344  3.947964  0.004
C  C53  1  0.25108948  0.36429759  0.85449907  1  -0.242137  0.007023  3.711485  0.008  -0.256072  0.003167  3.960035  0.004  -0.268183  0.002822  3.978424  0.004  0.029782  0.005028  -0.102389  -0.248309  0.003436  3.947731  0.004
C  C54  1  0.52985578  0.86415224  0.35442757  1  -0.241976  0.007034  3.711902  0.008  -0.256113  0.003178  3.960307  0.004  -0.268266  0.00283  3.978735  0.004  0.068009  0.004918  -0.102297  -0.248282  0.00344  3.947872  0.004
C  C55  1  0.74891310  0.63569816  0.14550393  1  -0.242063  0.007019  3.711482  0.008  -0.256002  0.003168  3.960024  0.004  -0.268113  0.002822  3.978409  0.004  0.029545  0.005028  -0.102369  -0.24824  0.003436  3.947711  0.004
C  C56  1  0.36661135  0.18319789  0.58459557  1  0.324019  -0.007571  3.798665  -0.005  0.310997  -0.003039  4.046603  -0.002  0.328293  -0.00342  4.062609  -0.002  0.439864  -0.00242  0.125413  0.29952  -0.00273  4.035486  -0.002
C  C57  1  0.13383522  0.31708997  0.91547996  1  0.323598  -0.007579  3.798556  -0.005  0.309277  -0.003036  4.047182  -0.002  0.326518  -0.003422  4.063232  -0.002  0.41585  -0.002432  0.124987  0.297864  -0.002731  4.036046  -0.002
C  C58  1  0.63338883  0.81680596  0.41540325  1  0.323995  -0.007571  3.798661  -0.005  0.311054  -0.003038  4.046494  -0.002  0.32836  -0.003421  4.062481  -0.002  0.439861  -0.00242  0.12543  0.299572  -0.002729  4.035382  -0.002
C  C59  1  0.86616604  0.68290882  0.08452159  1  0.323689  -0.007576  3.798592  -0.005  0.309374  -0.003037  4.047188  -0.002  0.326632  -0.00342  4.06324  -0.002  0.416161  -0.002432  0.125047  0.297958  -0.002731  4.036054  -0.002
C  C60  1  0.45768589  0.17815030  0.49841259  1  -0.233408  0.007171  3.713207  0.008  -0.249486  0.003157  3.962858  0.004  -0.261434  0.002861  3.982442  0.003  0.030646  0.004848  -0.095779  -0.241905  0.003367  3.949914  0.004
C  C61  1  0.13361574  0.32226205  0.00166150  1  -0.233645  0.007215  3.713308  0.008  -0.249956  0.003168  3.963393  0.004  -0.261864  0.002871  3.982949  0.003  0.02272  0.004949  -0.096083  -0.242321  0.003373  3.950229  0.004
C  C62  1  0.54231146  0.82185253  0.50158716  1  -0.233465  0.007172  3.713248  0.008  -0.249567  0.003157  3.962846  0.004  -0.261519  0.002862  3.98243  0.003  0.030692  0.004847  -0.095871  -0.241987  0.003367  3.949899  0.004
C  C63  1  0.86638298  0.67773977  0.99833981  1  -0.233683  0.007212  3.71342  0.008  -0.250016  0.003169  3.963521  0.004  -0.261924  0.00287  3.983072  0.003  0.022611  0.004949  -0.096096  -0.242383  0.003373  3.95035  0.004
C  C64  1  0.63865759  0.12723821  0.47720720  1  0.129928  -0.006824  3.741089  -0.004  0.099491  -0.001206  3.998905  -0.001  0.111349  -0.002621  4.01683  -0.002  0.386056  0.000381  0.03226  0.092119  -0.000156  3.986819  0.0
C  C65  1  0.24267882  0.37300713  0.02283957  1  0.132117  -0.006852  3.741903  -0.004  0.101608  -0.001204  4.000102  0.0  0.113515  -0.002623  4.018036  -0.002  0.449273  0.000249  0.033636  0.094217  -0.000154  3.987902  0.0
C  C66  1  0.36134069  0.87276057  0.52279246  1  0.130015  -0.006826  3.741152  -0.004  0.099632  -0.001205  3.99895  -0.001  0.111482  -0.002622  4.016874  -0.002  0.386033  0.000381  0.032365  0.09226  -0.000157  3.986859  0.0
C  C67  1  0.75731780  0.62699469  0.97716142  1  0.132061  -0.006847  3.741857  -0.004  0.101557  -0.001205  4.000058  0.0  0.113461  -0.002621  4.017992  -0.002  0.4487  0.000251  0.033607  0.094169  -0.000155  3.987855  0.0
C  C68  1  0.06412768  0.23994906  0.67768753  1  0.416013  0.000575  3.825094  0.001  0.393327  7.8e-05  4.087195  0.0  0.411016  0.000135  4.10216  0.0  0.902107  0.000151  0.223963  0.381592  5.9e-05  4.076616  0.0
C  C69  1  0.98148811  0.26013029  0.82235250  1  0.41537  0.000558  3.825824  0.001  0.390309  7.2e-05  4.09033  0.0  0.407968  0.000129  4.105379  0.0  0.945711  0.000151  0.223104  0.378675  5.7e-05  4.07971  0.0
C  C70  1  0.93587072  0.76005377  0.32231237  1  0.415982  0.000575  3.825141  0.001  0.393306  7.8e-05  4.087237  0.0  0.410994  0.000135  4.102203  0.0  0.902251  0.000151  0.22395  0.381568  5.9e-05  4.07666  0.0
C  C71  1  0.01851504  0.73987051  0.17764733  1  0.415467  0.000558  3.825799  0.001  0.390384  7.1e-05  4.090347  0.0  0.40806  0.00013  4.105395  0.0  0.945881  0.000151  0.223136  0.378747  5.8e-05  4.079732  0.0
C  C72  1  0.89937378  0.24309381  0.67396214  1  -0.245962  -0.002445  3.720577  -0.001  -0.265526  -0.001215  3.975927  -0.001  -0.277988  -0.00131  3.996957  -0.001  0.015882  -0.000929  -0.106715  -0.257626  -0.001099  3.962038  -0.001
C  C73  1  0.81620967  0.25702603  0.82596487  1  -0.243981  -0.002411  3.71927  -0.001  -0.262695  -0.001201  3.97494  -0.001  -0.275028  -0.0013  3.995852  -0.001  -0.041996  -0.000926  -0.106311  -0.2549  -0.001095  3.961307  -0.001
C  C74  1  0.10062307  0.75691004  0.32603758  1  -0.245961  -0.002449  3.720662  -0.001  -0.265496  -0.001216  3.976027  -0.001  -0.277953  -0.001313  3.997053  -0.001  0.015855  -0.000928  -0.106656  -0.257596  -0.001098  3.962139  -0.001
C  C75  1  0.18379354  0.74297680  0.17403509  1  -0.244001  -0.002411  3.71928  -0.001  -0.262699  -0.001198  3.974936  -0.001  -0.275031  -0.001303  3.995847  -0.001  -0.042108  -0.000925  -0.10629  -0.254905  -0.001094  3.961307  -0.001
C  C76  1  0.77626946  0.25006042  0.74993508  1  0.010664  0.000547  3.820847  0.001  -0.004333  8.3e-05  4.066331  0.0  0.002811  0.000145  4.085566  0.0  -0.085514  2.6e-05  -0.080189  -0.008523  4.2e-05  4.053022  0.0
C  C77  1  0.22372938  0.74994241  0.25006561  1  0.010705  0.000551  3.820927  0.001  -0.00429  8.2e-05  4.066392  0.0  0.002842  0.000146  4.085638  0.0  -0.085305  2.5e-05  -0.080236  -0.008484  4.2e-05  4.053087  0.0
C  C78  1  0.98833152  0.77962366  0.59780747  1  0.618  -0.008258  3.901167  -0.009  0.575805  -0.003016  4.193267  -0.004  0.612184  -0.003521  4.188605  -0.004  1.526037  -0.001751  0.198939  0.551366  -0.002427  4.195434  -0.004
C  C79  1  0.36634209  0.71995042  0.90208439  1  0.621551  -0.008286  3.895915  -0.009  0.57934  -0.003033  4.188304  -0.004  0.615733  -0.003532  4.183645  -0.004  1.540037  -0.001753  0.200942  0.554978  -0.002456  4.190329  -0.004
C  C80  1  0.01166693  0.22037512  0.40219080  1  0.617851  -0.008255  3.901074  -0.009  0.575668  -0.003017  4.193221  -0.004  0.612043  -0.00352  4.188566  -0.004  1.525999  -0.001751  0.198881  0.551228  -0.002427  4.195388  -0.004
C  C81  1  0.63366051  0.28004634  0.09791441  1  0.6215  -0.008284  3.895902  -0.009  0.579246  -0.003034  4.188359  -0.004  0.615639  -0.003531  4.183702  -0.004  1.540019  -0.001753  0.20093  0.554885  -0.002455  4.190387  -0.004
C  C82  1  0.98065939  0.68660619  0.67446620  1  0.025859  0.010712  3.774128  0.011  0.065213  0.005421  4.005397  0.006  0.057372  0.004161  4.029258  0.005  -0.060641  0.009115  -0.025444  0.070141  0.006412  3.989276  0.007
C  C83  1  0.34215767  0.81308935  0.82549816  1  0.023394  0.010649  3.773758  0.011  0.062086  0.005394  4.005941  0.006  0.054307  0.004135  4.029622  0.005  -0.010098  0.009034  -0.026598  0.066972  0.00638  3.989854  0.007
C  C84  1  0.01932938  0.31340271  0.32553537  1  0.02615  0.010678  3.77436  0.011  0.065374  0.005422  4.005793  0.006  0.057535  0.004157  4.029663  0.005  -0.060591  0.009115  -0.025324  0.070317  0.006412  3.989649  0.007
C  C85  1  0.65783962  0.18691146  0.17450146  1  0.023315  0.01064  3.773881  0.011  0.062033  0.005396  4.006037  0.006  0.054253  0.004135  4.029719  0.005  -0.010097  0.009035  -0.026658  0.066922  0.006381  3.989952  0.007
C  C86  1  0.99862185  0.72646663  0.75508783  1  -0.312256  -7e-06  3.764736  0.0  -0.393762  0.000376  3.996393  0.0  -0.393932  0.000231  4.007863  0.0  -0.07723  0.000482  -0.244281  -0.393181  0.00051  3.988467  0.0
C  C87  1  0.48039359  0.77323498  0.74481929  1  -0.311571  -1e-06  3.763225  0.0  -0.392132  0.000377  3.995389  0.0  -0.392313  0.000232  4.006736  0.0  -0.070274  0.000481  -0.243779  -0.391573  0.000511  3.98742  0.0
C  C88  1  0.00137765  0.27353215  0.24491060  1  -0.312246  -1e-06  3.764573  0.0  -0.39372  0.000375  3.996303  0.0  -0.393901  0.000231  4.007752  0.0  -0.07768  0.000482  -0.244268  -0.393145  0.000509  3.988381  0.0
C  C89  1  0.51960740  0.22676380  0.25518009  1  -0.311593  2e-06  3.763345  0.0  -0.392139  0.000377  3.995525  0.0  -0.392319  0.000232  4.006872  0.0  -0.069936  0.000481  -0.243798  -0.391584  0.000511  3.98756  0.0
C  C90  1  0.95460013  0.57366154  0.66791490  1  -0.2531  -0.007333  3.561188  -0.004  -0.314667  -0.001566  3.793647  0.0  -0.315452  -0.001934  3.808199  -0.001  -0.078301  -0.000943  -0.168746  -0.313762  -0.001358  3.78386  0.0
C  C91  1  0.19666662  0.92610485  0.83213743  1  -0.251844  -0.007284  3.560776  -0.004  -0.312949  -0.001568  3.794129  0.0  -0.313641  -0.00193  3.808669  -0.001  -0.108025  -0.000916  -0.168124  -0.312101  -0.001361  3.784243  0.0
C  C92  1  0.04539137  0.42633319  0.33208631  1  -0.253238  -0.007275  3.56161  -0.004  -0.31475  -0.001569  3.79411  0.0  -0.315545  -0.001924  3.808661  -0.001  -0.077971  -0.000943  -0.168869  -0.313845  -0.001357  3.784317  0.0
C  C93  1  0.80333513  0.07388989  0.16786325  1  -0.2518  -0.007267  3.560592  -0.004  -0.312863  -0.001569  3.793965  0.0  -0.313556  -0.00193  3.808506  -0.001  -0.107958  -0.000916  -0.168043  -0.312015  -0.001362  3.784077  0.0
N  N94  1  0.73738451  0.07958018  0.53584963  1  -0.332065  0.07447  3.3309  0.095  -0.284546  0.052237  3.630758  0.071  -0.317376  0.043301  3.651396  0.063  -1.225515  0.084923  -0.367365  -0.264519  0.057124  3.618337  0.074
N  N95  1  0.35248510  0.42054269  0.96419434  1  -0.333631  0.074536  3.329794  0.095  -0.286525  0.052272  3.630059  0.071  -0.319496  0.043326  3.650668  0.063  -1.221595  0.085098  -0.368437  -0.266484  0.057218  3.617658  0.074
N  N96  1  0.26261765  0.92041961  0.46414928  1  -0.33206  0.074471  3.330917  0.095  -0.28455  0.052237  3.630773  0.071  -0.317376  0.043301  3.65141  0.063  -1.225508  0.084926  -0.36735  -0.264524  0.057126  3.618351  0.074
N  N97  1  0.64751444  0.57945711  0.03580840  1  -0.333557  0.074533  3.329761  0.095  -0.286441  0.052272  3.630017  0.071  -0.319397  0.043325  3.650612  0.063  -1.220838  0.085095  -0.368418  -0.266409  0.057219  3.617616  0.074
N  N98  1  0.18765418  0.22782656  0.60122799  1  -0.43208  -0.002241  3.338521  -0.002  -0.373486  -0.001367  3.566754  -0.001  -0.396438  -0.001533  3.576254  -0.001  -1.262683  -0.001049  -0.392957  -0.357631  -0.001188  3.559689  -0.001
N  N99  1  0.01621359  0.27237729  0.89884831  1  -0.432036  -0.002227  3.340236  -0.002  -0.370192  -0.001363  3.567816  -0.001  -0.393161  -0.00153  3.577381  -0.001  -1.29814  -0.001053  -0.392207  -0.354492  -0.001189  3.560736  -0.001
N  N100  1  0.81234539  0.77217729  0.39877145  1  -0.432085  -0.002241  3.338639  -0.002  -0.373506  -0.001366  3.566835  -0.001  -0.396461  -0.001533  3.576335  -0.001  -1.262848  -0.001049  -0.392967  -0.357649  -0.001188  3.559766  -0.001
N  N101  1  0.98378828  0.72762149  0.10115262  1  -0.432109  -0.002228  3.340428  -0.002  -0.370295  -0.001363  3.567889  -0.001  -0.393312  -0.001531  3.57749  -0.001  -1.298229  -0.001053  -0.392269  -0.354598  -0.001189  3.560813  -0.001
N  N102  1  0.10473575  0.25000476  0.75006098  1  -0.487126  -0.000599  3.038362  0.0  -0.445574  -4.8e-05  3.298525  0.0  -0.461708  -0.000364  3.307746  0.0  -1.236279  0.000409  -0.327262  -0.434509  0.000247  3.291962  0.0
N  N103  1  0.89526536  0.74999504  0.24993777  1  -0.487128  -0.0006  3.038287  0.0  -0.445618  -4.8e-05  3.298489  0.0  -0.461748  -0.000365  3.307697  0.0  -1.236322  0.000409  -0.327288  -0.434553  0.000247  3.291926  0.0
O  O104  1  0.00893285  0.88912701  0.60827552  1  -0.589674  0.100799  2.052552  0.136  -0.557332  0.066691  2.326311  0.098  -0.600897  0.051433  2.320085  0.082  -1.10614  0.118639  -0.3217  -0.528274  0.076477  2.330494  0.107
O  O105  1  0.50690135  0.61046023  0.89160148  1  -0.590952  0.100751  2.051105  0.136  -0.558708  0.066575  2.325358  0.098  -0.602349  0.051342  2.319043  0.082  -1.109992  0.118429  -0.32232  -0.529575  0.076378  2.329409  0.107
O  O106  1  0.99106554  0.11087278  0.39172350  1  -0.589655  0.100791  2.052508  0.136  -0.557328  0.066687  2.326267  0.098  -0.600889  0.051429  2.320037  0.082  -1.106159  0.118628  -0.321702  -0.528272  0.07647  2.330454  0.107
O  O107  1  0.49310175  0.38953855  0.10839823  1  -0.590906  0.100766  2.051009  0.136  -0.558687  0.066581  2.325275  0.098  -0.602334  0.051345  2.318974  0.082  -1.109899  0.118435  -0.322333  -0.529552  0.076381  2.329324  0.107
O  O108  1  0.97413829  0.75163674  0.52835022  1  -0.643218  -0.00103  2.013749  0.002  -0.603809  -0.001413  2.251126  0.001  -0.629748  -0.002316  2.240777  0.0  -1.202484  0.000742  -0.32774  -0.585922  -0.000585  2.257794  0.002
O  O109  1  0.25475742  0.74784625  0.97156543  1  -0.64459  -0.001046  2.010857  0.002  -0.604779  -0.001422  2.248494  0.001  -0.630801  -0.002322  2.238187  0.0  -1.214104  0.000718  -0.328282  -0.586882  -0.000594  2.255122  0.002
O  O110  1  0.02587177  0.24835799  0.47164824  1  -0.64315  -0.001032  2.013701  0.002  -0.603723  -0.001411  2.251076  0.001  -0.629665  -0.002316  2.240733  0.0  -1.20247  0.000742  -0.32769  -0.585834  -0.000584  2.257746  0.002
O  O111  1  0.74524295  0.25214950  0.02843368  1  -0.644554  -0.001047  2.010911  0.002  -0.604674  -0.001422  2.248548  0.001  -0.630695  -0.002323  2.238246  0.0  -1.214126  0.000717  -0.328243  -0.586772  -0.000594  2.255178  0.002
