# generated using pymatgen
data_AgH10C15S2N2ClO4
_symmetry_space_group_name_H-M   'P 1'
_cell_length_a   7.21402811
_cell_length_b   10.48146088
_cell_length_c   13.04977779
_cell_angle_alpha   108.56467939
_cell_angle_beta   100.35465655
_cell_angle_gamma   97.08876882
_symmetry_Int_Tables_number   1
_chemical_formula_structural   AgH10C15S2N2ClO4
_chemical_formula_sum   'Ag2 H20 C30 S4 N4 Cl2 O8'
_cell_volume   902.73368032
_cell_formula_units_Z   2
loop_
 _symmetry_equiv_pos_site_id
 _symmetry_equiv_pos_as_xyz
  1  'x, y, z'
loop_
 _atom_site_type_symbol
 _atom_site_label
 _atom_site_symmetry_multiplicity
 _atom_site_fract_x
 _atom_site_fract_y
 _atom_site_fract_z
 _atom_site_occupancy
 _atom_site_pbe_bader_charge
 _atom_site_pbe_bader_spin_density
 _atom_site_pbe_cm5_charge
 _atom_site_pbe_ddec_charge
 _atom_site_pbe_ddec_spin_density
 _atom_site_pbe_ddec_sum_bond_order
 _atom_site_pbe_magmom
Ag  Ag0  1  0.49968468  0.66383749  0.95260970  1  0.597121  0  0.43677  0.408842  0  1.892592  0
Ag  Ag1  1  0.50030105  0.33616749  0.04741011  1  0.597129  0  0.436821  0.408886  0  1.892737  0
H  H2  1  0.38211375  0.90059105  0.15944085  1  0.533285  0  0.322624  0.261837  0  0.992006  0
H  H3  1  0.61789126  0.09944003  0.84055675  1  0.533195  0  0.322523  0.261737  0  0.992005  0
H  H4  1  0.32668728  0.98666573  0.31889532  1  0.121416  0  0.107904  0.128523  0  1.018143  0
H  H5  1  0.67334991  0.01334661  0.68109729  1  0.121634  0  0.107814  0.128477  0  1.018137  0
H  H6  1  0.23179834  0.87145563  0.67939886  1  0.076926  0  0.111435  0.130611  0  0.988455  0
H  H7  1  0.76820292  0.12851291  0.32058557  1  0.077312  0  0.111384  0.130474  0  0.988388  0
H  H8  1  0.17160494  0.62681149  0.52561004  1  0.064035  0  0.106658  0.12067  0  0.995756  0
H  H9  1  0.82837024  0.37314941  0.47439645  1  0.063752  0  0.106593  0.120555  0  0.995888  0
H  H10  1  0.13715079  0.43015574  0.61274770  1  0.149182  0  0.115662  0.145816  0  0.993962  0
H  H11  1  0.86282653  0.56983830  0.38728278  1  0.14938  0  0.115606  0.145735  0  0.993684  0
H  H12  1  0.35352705  0.42210431  0.48790607  1  0.128007  0  0.109588  0.136964  0  1.024689  0
H  H13  1  0.64645816  0.57790347  0.51209530  1  0.128118  0  0.109586  0.136922  0  1.024808  0
H  H14  1  0.36195648  0.18196474  0.51142560  1  0.144533  0  0.104623  0.126926  0  1.006972  0
H  H15  1  0.63807145  0.81803881  0.48857512  1  0.144427  0  0.104622  0.12687  0  1.007148  0
H  H16  1  0.09516046  0.03316025  0.75723917  1  0.09846  0  0.098591  0.114907  0  1.026955  0
H  H17  1  0.90487545  0.96684684  0.24275492  1  0.098432  0  0.098575  0.114898  0  1.027022  0
H  H18  1  0.06338480  0.28479788  0.87621755  1  0.113532  0  0.102552  0.127666  0  0.997107  0
H  H19  1  0.93662467  0.71521019  0.12376415  1  0.113427  0  0.102551  0.127707  0  0.997019  0
H  H20  1  0.15055152  0.31840168  0.09116409  1  0.106242  0  0.087946  0.109244  0  1.076135  0
H  H21  1  0.84941825  0.68159958  0.90881242  1  0.10629  0  0.087951  0.109207  0  1.076221  0
C  C22  1  0.28926487  0.06597058  0.12400904  1  0.465951  0  0.128531  0.156482  0  4.011562  0
C  C23  1  0.71074381  0.93405236  0.87598743  1  0.466446  0  0.128626  0.156625  0  4.011745  0
C  C24  1  0.32669532  0.09367425  0.32859876  1  -0.033079  0  -0.102189  -0.135655  0  3.985642  0
C  C25  1  0.67328931  0.90633080  0.67139336  1  -0.03356  0  -0.102123  -0.135675  0  3.985628  0
C  C26  1  0.20697531  0.77612939  0.69569318  1  0.037925  0  -0.096013  -0.122179  0  3.983968  0
C  C27  1  0.79302161  0.22385093  0.30430405  1  -0.035421  0  -0.096001  -0.122138  0  3.9836  0
C  C28  1  0.17664825  0.64406707  0.61293567  1  0.028942  0  -0.105689  -0.103192  0  4.056405  0
C  C29  1  0.82336182  0.35591588  0.38707974  1  0.102024  0  -0.105604  -0.103007  0  4.055533  0
C  C30  1  0.15800762  0.53994974  0.65547266  1  -0.315689  0  -0.098443  -0.173647  0  3.961634  0
C  C31  1  0.84200066  0.46003191  0.34454834  1  -0.316031  0  -0.098443  -0.173579  0  3.961057  0
C  C32  1  0.21186054  0.77117174  0.80069498  1  -0.171592  0  -0.023177  -0.065947  0  4.026495  0
C  C33  1  0.78813100  0.22882761  0.19931389  1  -0.172097  0  -0.023132  -0.06593  0  4.026726  0
C  C34  1  0.24286059  0.88064879  0.90777096  1  0.491766  0  0.113783  0.145065  0  4.065475  0
C  C35  1  0.75713835  0.11935734  0.09222752  1  0.492019  0  0.11378  0.145042  0  4.065205  0
C  C36  1  0.20230892  0.01272681  0.92157646  1  -0.00079  0  -0.028202  -0.008402  0  4.009056  0
C  C37  1  0.79768664  0.98727109  0.07841938  1  -0.000747  0  -0.028104  -0.008259  0  4.008751  0
C  C38  1  0.23094590  0.10976280  0.03438510  1  0.024965  0  -0.035281  -0.033082  0  4.037578  0
C  C39  1  0.76908261  0.89026051  0.96561273  1  0.024716  0  -0.035274  -0.033194  0  4.037611  0
C  C40  1  0.34205917  0.32481922  0.42222854  1  -0.2677  0  -0.096264  -0.174034  0  3.946191  0
C  C41  1  0.65796567  0.67518326  0.57777157  1  -0.267916  0  -0.096269  -0.173901  0  3.945955  0
C  C42  1  0.30924224  0.14271776  0.24058057  1  -0.216289  0  -0.022399  -0.073013  0  4.035765  0
C  C43  1  0.69074950  0.85729349  0.75941552  1  -0.215825  0  -0.022416  -0.07293  0  4.035675  0
C  C44  1  0.34546684  0.19772256  0.43207891  1  -0.038823  0  -0.109453  -0.093568  0  4.033086  0
C  C45  1  0.65452242  0.80227836  0.56791560  1  -0.038801  0  -0.109438  -0.093541  0  4.033122  0
C  C46  1  0.13241652  0.07743881  0.84715526  1  -0.071927  0  -0.125973  -0.183202  0  3.981294  0
C  C47  1  0.86756500  0.92255361  0.15284146  1  -0.080079  0  -0.126008  -0.18319  0  3.981019  0
C  C48  1  0.11871791  0.21087751  0.90987099  1  -0.042502  0  -0.099727  -0.047919  0  3.91808  0
C  C49  1  0.88126369  0.78911454  0.09010954  1  -0.033831  0  -0.099976  -0.048292  0  3.918609  0
C  C50  1  0.18056270  0.23452911  0.02574781  1  -0.174201  0  -0.168244  -0.239559  0  4.072809  0
C  C51  1  0.81944783  0.76547774  0.97423902  1  -0.17482  0  -0.168153  -0.239377  0  4.072783  0
S  S52  1  0.17438746  0.60148565  0.79564389  1  0.236778  0  0.077985  0.157626  0  3.198852  0
S  S53  1  0.82562446  0.39852280  0.20438032  1  0.237265  0  0.078027  0.157635  0  3.198917  0
S  S54  1  0.31651299  0.31773941  0.28810845  1  0.286243  0  0.107967  0.181683  0  3.080886  0
S  S55  1  0.68348690  0.68227076  0.71189277  1  0.286451  0  0.107969  0.181649  0  3.080833  0
N  N56  1  0.32978964  0.93794017  0.09800763  1  -0.809088  0  -0.254714  -0.079471  0  3.693723  0
N  N57  1  0.67020025  0.06207512  0.90198940  1  -0.809192  0  -0.254686  -0.07953  0  3.694035  0
N  N58  1  0.31080007  0.84658495  0.99617208  1  -0.686664  0  -0.227612  -0.198213  0  3.39733  0
N  N59  1  0.68921191  0.15342855  0.00382978  1  -0.686726  0  -0.227601  -0.198165  0  3.397275  0
Cl  Cl60  1  0.42607231  0.66390056  0.21804413  1  2.979346  0  0.723931  1.294404  0  6.744796  0
Cl  Cl61  1  0.57392932  0.33608782  0.78196042  1  2.979474  0  0.724019  1.294483  0  6.744121  0
O  O62  1  0.48729839  0.81295758  0.24667402  1  -0.966154  0  -0.314949  -0.512345  0  2.108435  0
O  O63  1  0.51272880  0.18702486  0.75331233  1  -0.966007  0  -0.315015  -0.512375  0  2.108379  0
O  O64  1  0.51155874  0.62508648  0.31009443  1  -0.985073  0  -0.30096  -0.48859  0  2.153949  0
O  O65  1  0.48844112  0.37491215  0.68991126  1  -0.984673  0  -0.301002  -0.488634  0  2.153391  0
O  O66  1  0.21828265  0.62701723  0.19128722  1  -0.974854  0  -0.310859  -0.487025  0  2.069201  0
O  O67  1  0.78171157  0.37298186  0.80872952  1  -0.974857  0  -0.310835  -0.486973  0  2.069339  0
O  O68  1  0.49882558  0.59318451  0.11916306  1  -0.930318  0  -0.336408  -0.528216  0  2.296106  0
O  O69  1  0.50114284  0.40678290  0.88083228  1  -0.930826  0  -0.336361  -0.528216  0  2.295889  0
