# generated using pymatgen
data_CoH36C42(SN5)2
_symmetry_space_group_name_H-M   'P 1'
_cell_length_a   9.48113078
_cell_length_b   9.98595676
_cell_length_c   10.34998803
_cell_angle_alpha   92.36292274
_cell_angle_beta   100.77346822
_cell_angle_gamma   109.78306849
_symmetry_Int_Tables_number   1
_chemical_formula_structural   CoH36C42(SN5)2
_chemical_formula_sum   'Co1 H36 C42 S2 N10'
_cell_volume   900.02490740
_cell_formula_units_Z   1
loop_
 _symmetry_equiv_pos_site_id
 _symmetry_equiv_pos_as_xyz
  1  'x, y, z'
loop_
 _atom_site_type_symbol
 _atom_site_label
 _atom_site_symmetry_multiplicity
 _atom_site_fract_x
 _atom_site_fract_y
 _atom_site_fract_z
 _atom_site_occupancy
 _atom_site_pbe_cm5_charge
 _atom_site_pbe_ddec_charge
 _atom_site_pbe_ddec_spin_density
 _atom_site_pbe_ddec_sum_bond_order
 _atom_site_pbe_magmom
Co  Co0  1  0.50000236  0.00000205  0.50000057  1  0.705917  0.560765  1.017164  3.258991  0.918
H  H1  1  0.22717254  0.38823514  0.01752131  1  0.104277  0.104453  -3.3e-05  1.013018  0.0
H  H2  1  0.77282864  0.61176640  0.98248649  1  0.104302  0.104435  -3.3e-05  1.013109  0.0
H  H3  1  0.69872930  0.62496070  0.20116609  1  0.093964  0.09114  -6.9e-05  1.04985  0.0
H  H4  1  0.30126998  0.37503868  0.79883939  1  0.093987  0.091156  -6.9e-05  1.049827  0.0
H  H5  1  0.50919712  0.58988105  0.33137835  1  0.100935  0.060227  -5.3e-05  1.027055  0.0
H  H6  1  0.49079973  0.41010871  0.66862828  1  0.100908  0.060223  -5.3e-05  1.027048  0.0
H  H7  1  0.15858395  0.47544481  0.40058779  1  0.098621  0.091367  1.6e-05  1.01201  0.0
H  H8  1  0.84141559  0.52455243  0.59941571  1  0.098633  0.091394  1.6e-05  1.011964  0.0
H  H9  1  0.35770602  0.53740903  0.47287542  1  0.096278  0.072858  -9e-06  1.000049  0.0
H  H10  1  0.64229287  0.46258928  0.52712995  1  0.09629  0.072869  -9e-06  1.000042  0.0
H  H11  1  0.41064717  0.25471709  0.38949467  1  0.110045  0.082602  0.000594  1.043536  0.001
H  H12  1  0.58935355  0.74528337  0.61050915  1  0.110013  0.082578  0.000594  1.043532  0.001
H  H13  1  0.06421914  0.33240441  0.56517637  1  0.09583  0.093356  -0.000145  1.056849  0.0
H  H14  1  0.93577891  0.66758857  0.43483155  1  0.095812  0.093321  -0.000145  1.056885  0.0
H  H15  1  0.04093954  0.10611973  0.67677080  1  0.10407  0.108894  0.000378  1.017041  0.0
H  H16  1  0.95906272  0.89387327  0.32323199  1  0.104079  0.108905  0.000378  1.016979  0.0
H  H17  1  0.20652719  0.96883690  0.63523601  1  0.111732  0.080361  0.000573  1.032975  0.001
H  H18  1  0.79347585  0.03115824  0.36476699  1  0.111643  0.080213  0.000573  1.033009  0.001
H  H19  1  0.13801814  0.18135435  0.19529806  1  0.094025  0.091409  -2.4e-05  1.074984  0.0
H  H20  1  0.86197906  0.81864820  0.80470530  1  0.094021  0.091418  -2.4e-05  1.075043  0.0
H  H21  1  0.14726374  0.92977467  0.85079430  1  0.098741  0.094697  -1.2e-05  1.041471  0.0
H  H22  1  0.85273324  0.07023321  0.14920731  1  0.098765  0.094727  -1.2e-05  1.04137  0.0
H  H23  1  0.38004281  0.19510591  0.15274353  1  0.105829  0.07028  7e-06  0.997265  0.0
H  H24  1  0.61995932  0.80489562  0.84725670  1  0.105837  0.070276  7e-06  0.997283  0.0
H  H25  1  0.61972622  0.12061437  0.07747589  1  0.110202  0.096805  9e-06  1.02128  0.0
H  H26  1  0.38026875  0.87938277  0.92251143  1  0.110167  0.096768  9e-06  1.021372  0.0
H  H27  1  0.60719178  0.29221806  0.06790863  1  0.095202  0.076584  -7.7e-05  1.044732  0.0
H  H28  1  0.39280775  0.70778236  0.93208824  1  0.095191  0.076599  -7.7e-05  1.044732  0.0
H  H29  1  0.44600696  0.05291558  0.76230710  1  0.116117  0.081751  -0.000299  1.079921  0.0
H  H30  1  0.55399186  0.94708908  0.23768210  1  0.116115  0.081712  -0.000299  1.079992  0.0
H  H31  1  0.87037767  0.34418440  0.99785611  1  0.108617  0.112722  -0.000214  0.985621  0.0
H  H32  1  0.12962112  0.65581707  0.00213779  1  0.108688  0.112781  -0.000214  0.985507  0.0
H  H33  1  0.98661201  0.34274777  0.79789333  1  0.106207  0.116329  -6.2e-05  0.995098  0.0
H  H34  1  0.01339827  0.65724957  0.20210994  1  0.106213  0.11635  -6.2e-05  0.995112  0.0
H  H35  1  0.82390099  0.19158002  0.58966709  1  0.116869  0.086623  -0.00025  1.042505  0.0
H  H36  1  0.17610902  0.80842264  0.41033153  1  0.116887  0.086668  -0.00025  1.042491  0.0
C  C37  1  0.45836381  0.50686236  0.12261478  1  -0.008968  0.063076  2e-05  4.012052  0.0
C  C38  1  0.54164205  0.49314030  0.87739284  1  -0.008907  0.063199  2e-05  4.011851  0.0
C  C39  1  0.30179691  0.76131089  0.63178948  1  0.136362  0.233284  -0.008148  4.337791  -0.005
C  C40  1  0.69818528  0.23866906  0.36819509  1  0.136354  0.233418  -0.008147  4.337664  -0.005
C  C41  1  0.34612076  0.43697581  0.00853522  1  -0.081404  -0.109002  -4.5e-05  3.962713  0.0
C  C42  1  0.65388482  0.56302897  0.99147245  1  -0.081452  -0.109022  -4.5e-05  3.962793  0.0
C  C43  1  0.61230297  0.57024445  0.11245109  1  -0.082771  -0.1118  -4e-05  3.967159  0.0
C  C44  1  0.38770171  0.42975499  0.88755622  1  -0.082774  -0.111789  -4e-05  3.96717  0.0
C  C45  1  0.41942306  0.51370532  0.25244169  1  0.070447  0.069163  0.000189  3.973772  0.0
C  C46  1  0.58057678  0.48628980  0.74756273  1  0.070444  0.069127  0.000189  3.973599  0.0
C  C47  1  0.26331865  0.44935375  0.40664027  1  -0.064256  -0.083426  0.000362  4.005147  0.001
C  C48  1  0.73668010  0.55064135  0.59336302  1  -0.064304  -0.083444  0.000363  4.005245  0.001
C  C49  1  0.32684699  0.22646048  0.45227277  1  0.04009  0.021399  -0.001614  3.921697  -0.001
C  C50  1  0.67315402  0.77353785  0.54773101  1  0.040065  0.021359  -0.001614  3.921724  -0.001
C  C51  1  0.23960491  0.31158793  0.46937261  1  -0.001775  0.064961  0.001713  3.93954  0.002
C  C52  1  0.76039687  0.68840936  0.53063608  1  -0.00176  0.064997  0.001713  3.939356  0.002
C  C53  1  0.13394097  0.26793765  0.55094805  1  -0.075961  -0.106147  -0.003045  3.970867  -0.002
C  C54  1  0.86605928  0.73205854  0.44905745  1  -0.076026  -0.106203  -0.003046  3.970706  -0.002
C  C55  1  0.12143039  0.14408951  0.61222700  1  -0.088369  -0.122042  0.001907  3.989784  0.003
C  C56  1  0.87857062  0.85590882  0.38777678  1  -0.088294  -0.121966  0.001907  3.989759  0.003
C  C57  1  0.21423732  0.06692816  0.58975926  1  0.043272  0.078346  -0.001685  3.953759  -0.001
C  C58  1  0.78576357  0.93306696  0.41024340  1  0.043367  0.078493  -0.001685  3.953755  -0.001
C  C59  1  0.16070015  0.06160457  0.02662695  1  -0.011263  0.064197  -2.6e-05  4.019346  0.0
C  C60  1  0.83929709  0.93840118  0.97337268  1  -0.011291  0.064063  -2.6e-05  4.019385  0.0
C  C61  1  0.07688150  0.09962310  0.11132921  1  -0.089423  -0.126463  -0.000108  3.9726  0.0
C  C62  1  0.92311416  0.90037836  0.88866998  1  -0.089369  -0.126361  -0.000108  3.97251  0.0
C  C63  1  0.08200187  0.96095600  0.91504683  1  -0.086192  -0.111032  -0.000118  3.969385  0.0
C  C64  1  0.91799310  0.03904652  0.08495230  1  -0.086179  -0.110954  -0.000118  3.969428  0.0
C  C65  1  0.32774903  0.12952134  0.05588039  1  0.0726  0.075085  -0.000131  3.969538  0.0
C  C66  1  0.67224666  0.87048331  0.94411508  1  0.072636  0.07516  -0.000131  3.969208  0.0
C  C67  1  0.57262424  0.18633936  0.01085002  1  -0.066819  -0.096921  -0.000204  3.981782  0.0
C  C68  1  0.42737252  0.81366530  0.98914465  1  -0.066784  -0.097  -0.000204  3.981978  0.0
C  C69  1  0.56594798  0.11778324  0.77288887  1  0.043032  0.023911  -0.005879  3.876638  -0.003
C  C70  1  0.43405130  0.88222250  0.22710431  1  0.043028  0.023967  -0.005878  3.87675  -0.003
C  C71  1  0.64793917  0.19733051  0.89400864  1  0.001649  0.07506  0.000323  3.929706  0.001
C  C72  1  0.35205578  0.80267519  0.10598289  1  0.001599  0.074995  0.000323  3.929794  0.001
C  C73  1  0.80237432  0.28062754  0.90447737  1  -0.067103  -0.084041  -0.007465  3.934443  -0.004
C  C74  1  0.19762001  0.71937923  0.09551797  1  -0.067211  -0.084122  -0.007464  3.934382  -0.004
C  C75  1  0.86685589  0.27911200  0.79433878  1  -0.085976  -0.11983  0.000471  3.987138  0.001
C  C76  1  0.13314791  0.72088846  0.20565683  1  -0.085952  -0.119769  0.000471  3.987171  0.001
C  C77  1  0.77740083  0.19533025  0.67733395  1  0.039794  0.06771  -0.006445  3.914554  -0.004
C  C78  1  0.22260162  0.80467233  0.32266251  1  0.039791  0.067672  -0.006446  3.914459  -0.004
S  S79  1  0.16789174  0.63873546  0.68150097  1  -0.172265  -0.340242  -0.00576  2.285642  -0.002
S  S80  1  0.83210230  0.36125634  0.31848404  1  -0.172306  -0.340368  -0.005756  2.285149  -0.002
N  N81  1  0.39819337  0.85318901  0.59460021  1  -0.416605  -0.463695  0.000124  3.536804  0.002
N  N82  1  0.60181173  0.14681469  0.40540251  1  -0.416602  -0.463743  0.000122  3.537152  0.002
N  N83  1  0.28997037  0.43527008  0.27436445  1  -0.321512  -0.248281  -0.000196  3.316677  0.0
N  N84  1  0.71002844  0.56472821  0.72563608  1  -0.321502  -0.248315  -0.000196  3.316734  0.0
N  N85  1  0.31594284  0.10696560  0.51139593  1  -0.303582  -0.215604  0.035933  3.486665  0.058
N  N86  1  0.68405776  0.89303165  0.48860677  1  -0.303539  -0.215582  0.035932  3.486666  0.058
N  N87  1  0.40783406  0.11587805  0.97288714  1  -0.321223  -0.239867  -0.000198  3.333932  0.0
N  N88  1  0.59216068  0.88412980  0.02710928  1  -0.321244  -0.239815  -0.000198  3.333728  0.0
N  N89  1  0.62785541  0.11568897  0.66582589  1  -0.322295  -0.150682  -0.00885  3.640293  -0.006
N  N90  1  0.37215175  0.88431473  0.33417136  1  -0.322304  -0.150734  -0.00885  3.640227  -0.006
