# generated using pymatgen
data_CuH6C8N3
_symmetry_space_group_name_H-M   'P 1'
_cell_length_a   32.98610464
_cell_length_b   33.96395726
_cell_length_c   34.37621553
_cell_angle_alpha   92.72289734
_cell_angle_beta   92.00604756
_cell_angle_gamma   91.21899579
_symmetry_Int_Tables_number   1
_chemical_formula_structural   CuH6C8N3
_chemical_formula_sum   'Cu12 H72 C96 N36'
_cell_volume   38435.79416476
_cell_formula_units_Z   12
loop_
 _symmetry_equiv_pos_site_id
 _symmetry_equiv_pos_as_xyz
  1  'x, y, z'
loop_
 _atom_site_type_symbol
 _atom_site_label
 _atom_site_symmetry_multiplicity
 _atom_site_fract_x
 _atom_site_fract_y
 _atom_site_fract_z
 _atom_site_occupancy
 _atom_site_pbe_bader_charge
 _atom_site_pbe_bader_spin_density
 _atom_site_pbe_cm5_charge
 _atom_site_pbe_ddec_charge
 _atom_site_pbe_ddec_spin_density
 _atom_site_pbe_ddec_sum_bond_order
 _atom_site_pbe_magmom
Cu  Cu0  1  0.62466961  0.33740961  0.41380639  1  0.545128  0  0.489715  0.206596  0  2.122758  0
Cu  Cu1  1  0.66561310  0.41205866  0.37733079  1  0.546993  0  0.486604  0.209172  0  2.096672  0
Cu  Cu2  1  0.58569096  0.37057149  0.33720798  1  0.544087  0  0.488024  0.206705  0  2.10897  0
Cu  Cu3  1  0.38230810  0.82632622  0.08635617  1  0.545878  0  0.488241  0.207642  0  2.111513  0
Cu  Cu4  1  0.34384654  0.90579047  0.11728220  1  0.545404  0  0.48888  0.208249  0  2.113695  0
Cu  Cu5  1  0.42351278  0.87500817  0.15957132  1  0.546968  0  0.487249  0.207929  0  2.103513  0
Cu  Cu6  1  0.12409590  0.15847315  0.58340585  1  0.546006  0  0.489206  0.207407  0  2.115368  0
Cu  Cu7  1  0.15840837  0.07987016  0.61622628  1  0.541706  0  0.487217  0.206134  0  2.111595  0
Cu  Cu8  1  0.08253204  0.12047991  0.65531872  1  0.545618  0  0.487735  0.210511  0  2.09753  0
Cu  Cu9  1  0.87333621  0.67774360  0.91799612  1  0.545116  0  0.488943  0.207557  0  2.115733  0
Cu  Cu10  1  0.82520352  0.60170941  0.88308211  1  0.545136  0  0.487585  0.207507  0  2.109562  0
Cu  Cu11  1  0.90439141  0.63197900  0.84236508  1  0.545424  0  0.488646  0.208144  0  2.10992  0
H  H12  1  0.68566852  0.32489041  0.48481537  1  0.109729  0  0.12219  0.112008  0  0.989245  0
H  H13  1  0.73825815  0.43071785  0.43969158  1  0.078425  0  0.122891  0.115228  0  0.983748  0
H  H14  1  0.51323845  0.30785467  0.31900019  1  0.112983  0  0.122755  0.113011  0  0.987731  0
H  H15  1  0.56274406  0.26733484  0.42813817  1  0.105458  0  0.123105  0.116096  0  0.982635  0
H  H16  1  0.68216130  0.47858432  0.31731143  1  0.103667  0  0.122653  0.113313  0  0.987403  0
H  H17  1  0.56912818  0.42724918  0.26838202  1  0.089786  0  0.122642  0.115035  0  0.983764  0
H  H18  1  0.31588126  0.79807207  0.02079412  1  0.114176  0  0.122425  0.114326  0  0.985693  0
H  H19  1  0.27132930  0.91331518  0.05491632  1  0.107457  0  0.122658  0.113808  0  0.986687  0
H  H20  1  0.49739948  0.81988100  0.17906540  1  0.096244  0  0.12292  0.115097  0  0.983864  0
H  H21  1  0.44467771  0.75739651  0.07597693  1  0.099859  0  0.122218  0.112315  0  0.988536  0
H  H22  1  0.32381838  0.97807004  0.17444283  1  0.118227  0  0.123129  0.115543  0  0.983457  0
H  H23  1  0.43690703  0.94122295  0.22782253  1  0.102706  0  0.122557  0.113227  0  0.986565  0
H  H24  1  0.18638896  0.17408542  0.51730647  1  0.094966  0  0.123072  0.112926  0  0.98893  0
H  H25  1  0.22916195  0.06268395  0.55739197  1  0.116355  0  0.123038  0.115504  0  0.98313  0
H  H26  1  0.01616037  0.18476272  0.67425415  1  0.088883  0  0.122466  0.112373  0  0.989458  0
H  H27  1  0.06722887  0.23112795  0.57088592  1  0.115836  0  0.122979  0.115786  0  0.984325  0
H  H28  1  0.17247848  0.00985007  0.67266230  1  0.134834  0  0.122778  0.114968  0  0.984857  0
H  H29  1  0.06414234  0.05998723  0.72049023  1  0.11011  0  0.12214  0.11218  0  0.987394  0
H  H30  1  0.81592036  0.70394640  0.98641175  1  0.113819  0  0.122273  0.114633  0  0.985955  0
H  H31  1  0.75770838  0.59307157  0.94635669  1  0.099687  0  0.122523  0.113638  0  0.987128  0
H  H32  1  0.97822381  0.68824264  0.82213870  1  0.09777  0  0.123025  0.115351  0  0.984684  0
H  H33  1  0.94060131  0.74562549  0.92986061  1  0.090812  0  0.122602  0.112681  0  0.988899  0
H  H34  1  0.79454837  0.53432579  0.82108843  1  0.135479  0  0.122206  0.114327  0  0.985777  0
H  H35  1  0.90980194  0.56674120  0.77343357  1  0.063091  0  0.122818  0.113784  0  0.988094  0
H  H36  1  0.23701072  0.90791787  0.98519693  1  0.064163  0  0.100072  0.09947  0  0.987582  0
H  H37  1  0.18185034  0.84129369  0.94447870  1  0.06877  0  0.10486  0.101127  0  0.991289  0
H  H38  1  0.23885680  0.81733735  0.98647400  1  0.084706  0  0.102925  0.10212  0  0.985399  0
H  H39  1  0.19461096  0.92965090  0.93007859  1  0.066884  0  0.103311  0.113253  0  0.99429  0
H  H40  1  0.75548571  0.31847824  0.51711953  1  0.031986  0  0.097856  0.095232  0  0.993206  0
H  H41  1  0.81824541  0.32009059  0.55793516  1  0.106122  0  0.102297  0.096808  0  1.003728  0
H  H42  1  0.77472017  0.40683014  0.51076988  1  0.069068  0  0.103582  0.103815  0  0.987971  0
H  H43  1  0.79694739  0.40561979  0.58114864  1  0.067059  0  0.102827  0.112889  0  1.000259  0
H  H44  1  0.73157365  0.59555940  0.01890161  1  0.049241  0  0.100245  0.099998  0  0.985705  0
H  H45  1  0.68436997  0.66278636  0.06113755  1  0.107313  0  0.104433  0.100823  0  0.991962  0
H  H46  1  0.73965039  0.68611743  0.02002911  1  0.076172  0  0.103154  0.102708  0  0.986127  0
H  H47  1  0.69204204  0.57413522  0.07510282  1  0.064812  0  0.103758  0.11405  0  0.994092  0
H  H48  1  0.25496272  0.17894584  0.48694036  1  0.050209  0  0.097936  0.095407  0  0.994526  0
H  H49  1  0.31508903  0.17719636  0.44676977  1  0.096641  0  0.102215  0.096786  0  1.001322  0
H  H50  1  0.26778030  0.08984517  0.49123968  1  0.084013  0  0.104324  0.103763  0  0.987498  0
H  H51  1  0.28897854  0.09127213  0.42444629  1  0.080137  0  0.102958  0.112729  0  1.000902  0
H  H52  1  0.01251074  0.77571167  0.93239086  1  0.022613  0  0.09796  0.095823  0  0.993831  0
H  H53  1  0.07387945  0.81726234  0.92668629  1  0.092911  0  0.102707  0.097317  0  0.999077  0
H  H54  1  0.01987539  0.76026049  0.84412156  1  0.056603  0  0.103671  0.103461  0  0.988063  0
H  H55  1  0.04156862  0.82950552  0.84314545  1  0.078279  0  0.102636  0.112533  0  1.002225  0
H  H56  1  0.47873214  0.23818353  0.31295107  1  0.045622  0  0.097859  0.095591  0  0.992491  0
H  H57  1  0.43904832  0.17592114  0.31576975  1  0.082274  0  0.103009  0.0979  0  0.998922  0
H  H58  1  0.49152465  0.22797718  0.40084657  1  0.052475  0  0.103286  0.103098  0  0.986993  0
H  H59  1  0.42068264  0.20507947  0.39932964  1  0.074342  0  0.103091  0.113317  0  1.002283  0
H  H60  1  0.99132317  0.25715573  0.68472223  1  0.083757  0  0.098121  0.096013  0  0.991236  0
H  H61  1  0.95542263  0.32055855  0.68357225  1  0.093465  0  0.103147  0.098668  0  1.000274  0
H  H62  1  0.99763656  0.26982819  0.59721921  1  0.073639  0  0.103527  0.103319  0  0.989104  0
H  H63  1  0.92657689  0.29166811  0.60076146  1  0.085338  0  0.102958  0.112407  0  1.001131  0
H  H64  1  0.51557699  0.72793336  0.07147604  1  0.023192  0  0.098162  0.095853  0  0.994724  0
H  H65  1  0.57613094  0.68692998  0.07670502  1  0.109486  0  0.102981  0.098126  0  0.996605  0
H  H66  1  0.53352509  0.74688640  0.15878350  1  0.031091  0  0.103454  0.103251  0  0.987299  0
H  H67  1  0.55194308  0.67772420  0.16153318  1  0.100061  0  0.102962  0.113053  0  1.001398  0
H  H68  1  0.05531666  0.99024865  0.74841972  1  0.070027  0  0.098328  0.096073  0  0.992605  0
H  H69  1  0.05942288  0.93226859  0.79000430  1  0.095405  0  0.103187  0.098525  0  0.997411  0
H  H70  1  0.14687858  0.97726220  0.74272073  1  0.07488  0  0.103493  0.103477  0  0.98958  0
H  H71  1  0.14484234  0.96608739  0.81244265  1  0.114774  0  0.102907  0.112566  0  1.001477  0
H  H72  1  0.68794930  0.50493941  0.24677213  1  0.077057  0  0.098512  0.09693  0  0.991869  0
H  H73  1  0.68208881  0.54113058  0.18579598  1  0.097676  0  0.102683  0.097608  0  0.999618  0
H  H74  1  0.59548172  0.49638602  0.23385078  1  0.04966  0  0.103463  0.102898  0  0.988619  0
H  H75  1  0.59915905  0.56594542  0.21593003  1  0.101054  0  0.103099  0.113325  0  1.000463  0
H  H76  1  0.43893704  0.01301214  0.25900995  1  0.061498  0  0.098038  0.096332  0  0.991791  0
H  H77  1  0.43036950  0.07463685  0.29907413  1  0.093966  0  0.103165  0.097775  0  0.998476  0
H  H78  1  0.34675571  0.01885646  0.24515765  1  0.069127  0  0.103222  0.102787  0  0.988508  0
H  H79  1  0.34563218  0.03993940  0.31398056  1  0.071799  0  0.10281  0.112813  0  1.00212  0
H  H80  1  0.90428497  0.49280499  0.74405672  1  0.08029  0  0.100231  0.100193  0  0.987315  0
H  H81  1  0.83372252  0.45401300  0.69171414  1  0.081475  0  0.104033  0.099996  0  0.994969  0
H  H82  1  0.81126074  0.49825953  0.74586957  1  0.0457  0  0.10343  0.103243  0  0.984579  0
H  H83  1  0.92391200  0.43353828  0.70323653  1  0.072649  0  0.103461  0.113873  0  0.994446  0
C  C84  1  0.69385533  0.35031537  0.46854904  1  0.421349  0  0.011903  -0.047925  0  3.937201  0
C  C85  1  0.72593755  0.37806490  0.47556755  1  -0.033638  0  -0.037712  0.01078  0  4.129568  0
C  C86  1  0.72031444  0.40471486  0.44580613  1  0.449158  0  0.010582  -0.05287  0  3.944417  0
C  C87  1  0.53057873  0.30259424  0.34558445  1  0.373919  0  0.011561  -0.048371  0  3.930353  0
C  C88  1  0.52461951  0.27373635  0.37310367  1  0.012762  0  -0.037425  0.010932  0  4.12971  0
C  C89  1  0.55559683  0.28231554  0.40162968  1  0.433135  0  0.010359  -0.054868  0  3.948605  0
C  C90  1  0.65484338  0.46106574  0.30986578  1  0.379685  0  0.011631  -0.049017  0  3.93689  0
C  C91  1  0.62576320  0.46507869  0.27938733  1  0.031537  0  -0.037446  0.011059  0  4.132394  0
C  C92  1  0.59673762  0.43520883  0.28530802  1  0.414549  0  0.010087  -0.053509  0  3.947044  0
C  C93  1  0.31015842  0.82698645  0.03402073  1  0.360566  0  0.00985  -0.053446  0  3.947872  0
C  C94  1  0.27947002  0.85352314  0.02482038  1  0.07096  0  -0.037862  0.01215  0  4.130126  0
C  C95  1  0.28785046  0.88622065  0.05084379  1  0.364879  0  0.011501  -0.048845  0  3.935756  0
C  C96  1  0.47940469  0.80925995  0.15350792  1  0.377109  0  0.009524  -0.053733  0  3.947085  0
C  C97  1  0.48527155  0.77623664  0.12818310  1  0.063894  0  -0.037479  0.010701  0  4.13265  0
C  C98  1  0.45289184  0.77766768  0.10047609  1  0.409123  0  0.012007  -0.04797  0  3.936825  0
C  C99  1  0.35181615  0.96390193  0.18272169  1  0.404053  0  0.009843  -0.053419  0  3.949037  0
C  C100  1  0.37967211  0.97396016  0.21373267  1  0.019299  0  -0.037596  0.009554  0  4.131595  0
C  C101  1  0.40991224  0.94550903  0.20969267  1  0.395256  0  0.011495  -0.04851  0  3.932657  0
C  C102  1  0.19224946  0.14714212  0.53207410  1  0.440621  0  0.011992  -0.047002  0  3.932759  0
C  C103  1  0.22175516  0.11851788  0.52497903  1  0.001835  0  -0.037312  0.00986  0  4.129138  0
C  C104  1  0.21370244  0.08995470  0.55223456  1  0.366325  0  0.010796  -0.053227  0  3.943597  0
C  C105  1  0.03360390  0.19126707  0.64905845  1  0.416412  0  0.012017  -0.04749  0  3.934529  0
C  C106  1  0.02954447  0.22220139  0.62340599  1  0.029607  0  -0.038075  0.010446  0  4.132814  0
C  C107  1  0.05928879  0.21453148  0.59586260  1  0.384203  0  0.010046  -0.054043  0  3.951119  0
C  C108  1  0.14604343  0.02694869  0.67969460  1  0.36661  0  0.010209  -0.053106  0  3.949097  0
C  C109  1  0.11779963  0.02148248  0.70882455  1  0.002302  0  -0.038111  0.010302  0  4.13066  0
C  C110  1  0.09030490  0.05214914  0.70373242  1  0.399452  0  0.011855  -0.046927  0  3.934109  0
C  C111  1  0.80633576  0.67618950  0.97161050  1  0.4014  0  0.008842  -0.055031  0  3.952833  0
C  C112  1  0.77417650  0.65037151  0.97985111  1  0.018203  0  -0.038464  0.010769  0  4.13134  0
C  C113  1  0.77712056  0.61909941  0.95173258  1  0.395676  0  0.011124  -0.049283  0  3.932315  0
C  C114  1  0.96379328  0.69757704  0.84883678  1  0.421721  0  0.010502  -0.053135  0  3.948593  0
C  C115  1  0.97404902  0.72943892  0.87528173  1  -0.013923  0  -0.038272  0.008676  0  4.132996  0
C  C116  1  0.94500210  0.72658457  0.90417428  1  0.423228  0  0.011834  -0.047193  0  3.9355  0
C  C117  1  0.82366561  0.54731504  0.81433335  1  0.368864  0  0.009521  -0.054172  0  3.94823  0
C  C118  1  0.84961077  0.53691198  0.78406945  1  -0.000173  0  -0.037655  0.013353  0  4.128057  0
C  C119  1  0.88299485  0.56324422  0.79048340  1  0.473472  0  0.010621  -0.050189  0  3.93733  0
C  C120  1  0.14887762  0.89486156  0.89695557  1  1.026144  0  0.236748  0.418786  0  4.0716  0
C  C121  1  0.11895941  0.91718983  0.84165006  1  1.024773  0  0.235865  0.420116  0  4.065665  0
C  C122  1  0.09344624  0.86239927  0.86884282  1  1.028141  0  0.236578  0.414124  0  4.07353  0
C  C123  1  0.84790291  0.37593649  0.60734059  1  1.034448  0  0.236206  0.416274  0  4.068238  0
C  C124  1  0.90407518  0.34463534  0.62941652  1  1.040955  0  0.237521  0.419294  0  4.07258  0
C  C125  1  0.88523304  0.40220348  0.65964712  1  1.048516  0  0.236603  0.418351  0  4.067771  0
C  C126  1  0.65117330  0.61012434  0.10832518  1  1.043299  0  0.238123  0.419917  0  4.070063  0
C  C127  1  0.62462224  0.58969495  0.16448171  1  1.016096  0  0.236764  0.421031  0  4.064075  0
C  C128  1  0.59967041  0.64380822  0.13583229  1  1.048931  0  0.236377  0.417887  0  4.064022  0
C  C129  1  0.33871150  0.12059544  0.39742311  1  1.073153  0  0.234915  0.418433  0  4.065519  0
C  C130  1  0.36900761  0.09338752  0.34421318  1  1.036309  0  0.236385  0.418492  0  4.066787  0
C  C131  1  0.39279135  0.15198775  0.37201214  1  1.049575  0  0.238155  0.418999  0  4.072969  0
C  C132  1  0.24714023  0.84786285  0.99555766  1  -0.065636  0  -0.085615  -0.107457  0  4.023217  0
C  C133  1  0.22728068  0.87731118  0.97813079  1  -0.066689  0  -0.100778  -0.106571  0  4.072486  0
C  C134  1  0.19490839  0.87107743  0.94943740  1  -0.031061  0  -0.081625  -0.042109  0  4.046912  0
C  C135  1  0.18066872  0.90014574  0.92731399  1  -0.001254  0  -0.093057  -0.203257  0  3.939457  0
C  C136  1  0.75791804  0.37887174  0.50535516  1  -0.069214  0  -0.083947  -0.102576  0  4.016319  0
C  C137  1  0.76966802  0.34723829  0.52532867  1  0.012902  0  -0.100911  -0.106756  0  4.049677  0
C  C138  1  0.80184674  0.34750145  0.55485146  1  -0.061794  0  -0.079512  -0.031962  0  4.021751  0
C  C139  1  0.81360714  0.37819100  0.57965850  1  -0.023802  0  -0.094852  -0.20904  0  3.932613  0
C  C140  1  0.74500637  0.65568618  0.00991301  1  -0.008963  0  -0.086284  -0.108553  0  4.025535  0
C  C141  1  0.72462894  0.62622893  0.02682645  1  -0.083057  0  -0.10079  -0.105807  0  4.069151  0
C  C142  1  0.69501546  0.63276508  0.05588745  1  -0.073451  0  -0.082068  -0.042837  0  4.048151  0
C  C143  1  0.68036827  0.60396046  0.07788337  1  -0.018519  0  -0.094213  -0.207034  0  3.939777  0
C  C144  1  0.25326769  0.11810811  0.49694397  1  -0.066986  0  -0.084611  -0.101459  0  4.013877  0
C  C145  1  0.26691674  0.15008261  0.47855086  1  -0.018381  0  -0.101352  -0.108108  0  4.048421  0
C  C146  1  0.29781761  0.14974457  0.44989497  1  -0.137053  0  -0.079095  -0.03177  0  4.01829  0
C  C147  1  0.30681337  0.11878089  0.42556602  1  0.022209  0  -0.094502  -0.207529  0  3.929334  0
C  C148  1  0.00680295  0.75793559  0.87276688  1  -0.021424  0  -0.085064  -0.102225  0  4.016799  0
C  C149  1  0.02301781  0.78076410  0.90315485  1  -0.004603  0  -0.101783  -0.109191  0  4.04923  0
C  C150  1  0.05462428  0.81047474  0.90057162  1  -0.072866  0  -0.08007  -0.033136  0  4.021545  0
C  C151  1  0.06162114  0.83195579  0.86912807  1  -0.008507  0  -0.094363  -0.208716  0  3.937761  0
C  C152  1  0.49494267  0.24192891  0.37305926  1  -0.066811  0  -0.085453  -0.103936  0  4.017303  0
C  C153  1  0.47281967  0.22689179  0.34154440  1  0.038434  0  -0.102213  -0.108316  0  4.046125  0
C  C154  1  0.44362852  0.19468949  0.34238011  1  -0.022469  0  -0.080376  -0.034023  0  4.023606  0
C  C155  1  0.42078014  0.18587518  0.37295691  1  -0.087336  0  -0.095404  -0.212536  0  3.941502  0
C  C156  1  0.00223548  0.25483741  0.62446123  1  -0.099019  0  -0.085317  -0.10406  0  4.02055  0
C  C157  1  0.98366902  0.26931299  0.65655020  1  -0.036754  0  -0.100772  -0.106607  0  4.047787  0
C  C158  1  0.95619705  0.30182295  0.65684135  1  -0.029015  0  -0.079422  -0.033154  0  4.018296  0
C  C159  1  0.93050089  0.31082301  0.62709118  1  -0.056873  0  -0.094609  -0.2094  0  3.934763  0
C  C160  1  0.51726492  0.74802265  0.13057485  1  0.004186  0  -0.084422  -0.102086  0  4.014605  0
C  C161  1  0.52919412  0.72410893  0.10050053  1  -0.057604  0  -0.101923  -0.109328  0  4.047947  0
C  C162  1  0.55994036  0.69463024  0.10314080  1  -0.082364  0  -0.079506  -0.033573  0  4.016509  0
C  C163  1  0.56926364  0.67431747  0.13515142  1  -0.037513  0  -0.094543  -0.207588  0  3.932055  0
C  C164  1  0.11793193  0.99153028  0.73723797  1  -0.05622  0  -0.084489  -0.103653  0  4.017966  0
C  C165  1  0.08518256  0.97917421  0.75660869  1  0.010134  0  -0.10106  -0.107617  0  4.045179  0
C  C166  1  0.08649369  0.95075770  0.78654290  1  -0.088274  0  -0.078893  -0.031876  0  4.012592  0
C  C167  1  0.11837752  0.94617075  0.81176129  1  -0.047525  0  -0.093729  -0.207675  0  3.932962  0
C  C168  1  0.62500143  0.49240871  0.24850788  1  -0.060366  0  -0.084696  -0.10216  0  4.018274  0
C  C169  1  0.65773837  0.51175642  0.23513133  1  -0.014115  0  -0.101367  -0.109287  0  4.049087  0
C  C170  1  0.65588871  0.53914642  0.20431716  1  -0.087943  0  -0.077862  -0.03004  0  4.015085  0
C  C171  1  0.62472692  0.56336795  0.19673040  1  -0.020384  0  -0.094693  -0.209834  0  3.930779  0
C  C172  1  0.37681688  0.00623419  0.24227697  1  -0.084292  0  -0.084765  -0.101825  0  4.017423  0
C  C173  1  0.40815689  0.02284825  0.26437255  1  -0.025653  0  -0.102098  -0.109852  0  4.046735  0
C  C174  1  0.40426968  0.05449795  0.29346768  1  -0.0096  0  -0.079266  -0.033124  0  4.018329  0
C  C175  1  0.37138259  0.06073985  0.31533525  1  -0.082587  0  -0.094817  -0.208851  0  3.932517  0
C  C176  1  0.84289035  0.50642359  0.75366863  1  -0.092912  0  -0.085541  -0.108198  0  4.020306  0
C  C177  1  0.87252824  0.48683231  0.73489918  1  0.016913  0  -0.100013  -0.106841  0  4.070664  0
C  C178  1  0.86466274  0.45737047  0.70415566  1  -0.091892  0  -0.081036  -0.038156  0  4.0442  0
C  C179  1  0.89319186  0.43278361  0.69024786  1  -0.011522  0  -0.094081  -0.206768  0  3.938631  0
N  N180  1  0.68785513  0.39342137  0.42276706  1  -0.774735  0  -0.337314  -0.142951  0  3.7646  0
N  N181  1  0.67129447  0.35975713  0.43713713  1  -0.782136  0  -0.336273  -0.136113  0  3.775081  0
N  N182  1  0.57828148  0.31340913  0.39167544  1  -0.78973  0  -0.339226  -0.14055  0  3.776072  0
N  N183  1  0.56256461  0.32615936  0.35696744  1  -0.781411  0  -0.334802  -0.135748  0  3.764401  0
N  N184  1  0.60790743  0.41484000  0.31642642  1  -0.769209  0  -0.337254  -0.139846  0  3.767594  0
N  N185  1  0.64388403  0.43113946  0.33189161  1  -0.789005  0  -0.334466  -0.138284  0  3.76456  0
N  N186  1  0.32078780  0.87944959  0.07356965  1  -0.791366  0  -0.336672  -0.139318  0  3.771815  0
N  N187  1  0.33493686  0.84281991  0.06285178  1  -0.755302  0  -0.338135  -0.140778  0  3.772059  0
N  N188  1  0.42993503  0.80905349  0.10871324  1  -0.778312  0  -0.335362  -0.137185  0  3.76946  0
N  N189  1  0.44655737  0.82890414  0.14153005  1  -0.778542  0  -0.336499  -0.140456  0  3.767854  0
N  N190  1  0.40066507  0.92078376  0.17872827  1  -0.765317  0  -0.335153  -0.13793  0  3.765706  0
N  N191  1  0.36470221  0.93240083  0.16176415  1  -0.774199  0  -0.337647  -0.140328  0  3.773293  0
N  N192  1  0.18230443  0.10095232  0.57394901  1  -0.774838  0  -0.33805  -0.140616  0  3.768906  0
N  N193  1  0.16885179  0.13638372  0.56120621  1  -0.775829  0  -0.335709  -0.136817  0  3.77133  0
N  N194  1  0.07962806  0.18200065  0.60470391  1  -0.788046  0  -0.338153  -0.140832  0  3.772415  0
N  N195  1  0.06342585  0.16735485  0.63759900  1  -0.772562  0  -0.334941  -0.138678  0  3.760929  0
N  N196  1  0.10139042  0.07389930  0.67397753  1  -0.782177  0  -0.334932  -0.139844  0  3.763021  0
N  N197  1  0.13587642  0.05803999  0.65880402  1  -0.784964  0  -0.337083  -0.139626  0  3.772854  0
N  N198  1  0.80845287  0.62600393  0.92871996  1  -0.787597  0  -0.336494  -0.138823  0  3.765538  0
N  N199  1  0.82691093  0.66125259  0.94135974  1  -0.781542  0  -0.337609  -0.139856  0  3.777722  0
N  N200  1  0.91978195  0.69551121  0.89550363  1  -0.769809  0  -0.336191  -0.138004  0  3.771044  0
N  N201  1  0.93162397  0.67725825  0.86126026  1  -0.781468  0  -0.337688  -0.140364  0  3.770831  0
N  N202  1  0.87717391  0.58726058  0.82199638  1  -0.786822  0  -0.336687  -0.138967  0  3.77068  0
N  N203  1  0.84054199  0.57704796  0.83712832  1  -0.778655  0  -0.337314  -0.14059  0  3.773827  0
N  N204  1  0.14824185  0.92252440  0.86991822  1  -1.149262  0  -0.3345  -0.448488  0  3.148474  0
N  N205  1  0.09060300  0.88781553  0.83991291  1  -1.209505  0  -0.327163  -0.439943  0  3.161377  0
N  N206  1  0.12270480  0.86392731  0.89743216  1  -1.174743  0  -0.3241  -0.434733  0  3.16875  0
N  N207  1  0.87305214  0.34517579  0.60300308  1  -1.188544  0  -0.327037  -0.439394  0  3.170346  0
N  N208  1  0.91218139  0.37301606  0.65770710  1  -1.177649  0  -0.328566  -0.441916  0  3.167802  0
N  N209  1  0.85225639  0.40494630  0.63542570  1  -1.159554  0  -0.329138  -0.441683  0  3.150557  0
N  N210  1  0.65105756  0.58318620  0.13590731  1  -1.167945  0  -0.328811  -0.441956  0  3.166174  0
N  N211  1  0.59779235  0.61916053  0.16553909  1  -1.150208  0  -0.333207  -0.447295  0  3.141571  0
N  N212  1  0.62651566  0.64127840  0.10713569  1  -1.185835  0  -0.324099  -0.436763  0  3.164969  0
N  N213  1  0.33936730  0.09056953  0.37024069  1  -1.167959  0  -0.334265  -0.448727  0  3.141329  0
N  N214  1  0.39615547  0.12350783  0.34365217  1  -1.199597  0  -0.324097  -0.436498  0  3.182573  0
N  N215  1  0.36502743  0.15174178  0.39986334  1  -1.185194  0  -0.327492  -0.440474  0  3.164423  0
