# generated using pymatgen
data_HgH10C14S2(BrN2)2
_symmetry_space_group_name_H-M   'P 1'
_cell_length_a   9.61992800
_cell_length_b   10.28320572
_cell_length_c   10.28321281
_cell_angle_alpha   74.52789217
_cell_angle_beta   68.81352026
_cell_angle_gamma   68.81344665
_symmetry_Int_Tables_number   1
_chemical_formula_structural   HgH10C14S2(BrN2)2
_chemical_formula_sum   'Hg2 H20 C28 S4 Br4 N8'
_cell_volume   873.47320315
_cell_formula_units_Z   2
loop_
 _symmetry_equiv_pos_site_id
 _symmetry_equiv_pos_as_xyz
  1  'x, y, z'
loop_
 _atom_site_type_symbol
 _atom_site_label
 _atom_site_symmetry_multiplicity
 _atom_site_fract_x
 _atom_site_fract_y
 _atom_site_fract_z
 _atom_site_occupancy
 _atom_site_hle17_bader_spin_density
 _atom_site_hle17_ddec_charge
 _atom_site_hle17_ddec_spin_density
 _atom_site_hle17_ddec_sum_bond_order
 _atom_site_hle17_magmom
 _atom_site_hse06_10hf_bader_spin_density
 _atom_site_hse06_10hf_ddec_charge
 _atom_site_hse06_10hf_ddec_spin_density
 _atom_site_hse06_10hf_ddec_sum_bond_order
 _atom_site_hse06_10hf_magmom
 _atom_site_hse06_bader_spin_density
 _atom_site_hse06_ddec_charge
 _atom_site_hse06_ddec_spin_density
 _atom_site_hse06_ddec_sum_bond_order
 _atom_site_hse06_magmom
 _atom_site_pbe_bader_spin_density
 _atom_site_pbe_cm5_charge
 _atom_site_pbe_ddec_charge
 _atom_site_pbe_ddec_spin_density
 _atom_site_pbe_ddec_sum_bond_order
 _atom_site_pbe_magmom
Hg  Hg0  1  0.24999934  0.74610926  0.25389165  1  0  0.608564  0  2.138019  0  0  0.455947  0  2.633289  0  0  0.504241  0  2.606176  0  0  0.444144  0.425104  0  2.650017  0
Hg  Hg1  1  0.75000013  0.25388977  0.74610996  1  0  0.608569  0  2.138043  0  0  0.455959  0  2.633301  0  0  0.504251  0  2.606189  0  0  0.444147  0.425116  0  2.650025  0
H  H2  1  0.04774741  0.60935233  0.89234562  1  0  0.097347  0  0.979483  0  0  0.101294  0  1.053543  0  0  0.104165  0  1.053218  0  0  0.094863  0.099173  0  1.054  0
H  H3  1  0.45225292  0.10765489  0.39064743  1  0  0.097374  0  0.979577  0  0  0.101327  0  1.05362  0  0  0.104198  0  1.053295  0  0  0.094854  0.099193  0  1.054099  0
H  H4  1  0.95225393  0.39064776  0.10765312  1  0  0.0974  0  0.979522  0  0  0.101355  0  1.053558  0  0  0.104227  0  1.053231  0  0  0.094873  0.099227  0  1.054019  0
H  H5  1  0.54774731  0.89234519  0.60935266  1  0  0.097357  0  0.979532  0  0  0.101309  0  1.053583  0  0  0.104181  0  1.053257  0  0  0.094845  0.099175  0  1.054058  0
H  H6  1  0.08549066  0.80576018  0.68794250  1  0  0.093188  0  0.967845  0  0  0.099594  0  1.036351  0  0  0.102859  0  1.033852  0  0  0.091405  0.097465  0  1.038041  0
H  H7  1  0.41451116  0.31205691  0.19424099  1  0  0.093191  0  0.967816  0  0  0.099599  0  1.036323  0  0  0.102865  0  1.033823  0  0  0.091407  0.097472  0  1.038014  0
H  H8  1  0.91451001  0.19424201  0.31205785  1  0  0.093185  0  0.96781  0  0  0.099593  0  1.036317  0  0  0.102859  0  1.033818  0  0  0.091405  0.097466  0  1.038004  0
H  H9  1  0.58548831  0.68794211  0.80576061  1  0  0.093181  0  0.967801  0  0  0.099594  0  1.036305  0  0  0.102861  0  1.033804  0  0  0.091409  0.097467  0  1.037994  0
H  H10  1  0.19711048  0.98453885  0.70744309  1  0  0.1034  0  0.9764  0  0  0.106357  0  1.049716  0  0  0.110028  0  1.047883  0  0  0.093441  0.103529  0  1.051248  0
H  H11  1  0.30289094  0.29255673  0.01546120  1  0  0.103344  0  0.976438  0  0  0.106312  0  1.04974  0  0  0.109985  0  1.047905  0  0  0.093439  0.103488  0  1.051258  0
H  H12  1  0.80288797  0.01546334  0.29255900  1  0  0.103347  0  0.97639  0  0  0.106317  0  1.049696  0  0  0.109989  0  1.047863  0  0  0.093425  0.103494  0  1.051222  0
H  H13  1  0.69710853  0.70744229  0.98453943  1  0  0.103379  0  0.976394  0  0  0.106328  0  1.049724  0  0  0.109999  0  1.047891  0  0  0.093433  0.1035  0  1.051248  0
H  H14  1  0.27338893  0.95593054  0.92096893  1  0  0.07584  0  0.978308  0  0  0.080265  0  1.051219  0  0  0.082742  0  1.048406  0  0  0.111524  0.078248  0  1.053364  0
H  H15  1  0.22661077  0.07903133  0.04407022  1  0  0.075853  0  0.978264  0  0  0.080274  0  1.051179  0  0  0.082751  0  1.048365  0  0  0.111527  0.078261  0  1.053318  0
H  H16  1  0.72661131  0.04406954  0.07903213  1  0  0.075832  0  0.97829  0  0  0.080263  0  1.051197  0  0  0.082736  0  1.048381  0  0  0.111526  0.078247  0  1.053338  0
H  H17  1  0.77338870  0.92096769  0.95593138  1  0  0.075817  0  0.978282  0  0  0.080241  0  1.051195  0  0  0.082719  0  1.04838  0  0  0.111519  0.078224  0  1.053336  0
H  H18  1  0.89214027  0.45943140  0.42552271  1  0  0.109917  0  0.977405  0  0  0.117691  0  1.043605  0  0  0.121756  0  1.040762  0  0  0.092305  0.114312  0  1.046502  0
H  H19  1  0.60786163  0.57447719  0.54056870  1  0  0.109908  0  0.977348  0  0  0.117673  0  1.043569  0  0  0.121739  0  1.040725  0  0  0.092294  0.114294  0  1.046468  0
H  H20  1  0.10786029  0.54056764  0.57447463  1  0  0.109947  0  0.977421  0  0  0.117734  0  1.043597  0  0  0.1218  0  1.040753  0  0  0.092322  0.114355  0  1.046494  0
H  H21  1  0.39213973  0.42552289  0.45943197  1  0  0.109916  0  0.977361  0  0  0.117703  0  1.043547  0  0  0.12177  0  1.040702  0  0  0.092304  0.114323  0  1.046449  0
C  C22  1  0.13263932  0.68679561  0.01510306  1  0  0.197559  0  3.770027  0  0  0.196162  0  4.034676  0  0  0.204565  0  4.053798  0  0  0.116977  0.190109  0  4.022315  0
C  C23  1  0.36735988  0.98489702  0.31320573  1  0  0.197491  0  3.770089  0  0  0.196105  0  4.034719  0  0  0.204508  0  4.053843  0  0  0.116954  0.190054  0  4.022368  0
C  C24  1  0.86736167  0.31320553  0.98489552  1  0  0.197536  0  3.770048  0  0  0.196154  0  4.034679  0  0  0.204556  0  4.053802  0  0  0.116952  0.190096  0  4.022328  0
C  C25  1  0.63264036  0.01510306  0.68679533  1  0  0.197483  0  3.770065  0  0  0.196082  0  4.034723  0  0  0.20448  0  4.05385  0  0  0.116951  0.190035  0  4.022356  0
C  C26  1  0.09584466  0.68931496  0.89495261  1  0  -0.125471  0  3.711707  0  0  -0.143269  0  3.959657  0  0  -0.149487  0  3.980009  0  0  -0.077947  -0.139381  0  3.946715  0
C  C27  1  0.40415648  0.10504709  0.31068636  1  0  -0.125489  0  3.711841  0  0  -0.143301  0  3.959777  0  0  -0.14952  0  3.980131  0  0  -0.07793  -0.139408  0  3.946866  0
C  C28  1  0.90415634  0.31068618  0.10504596  1  0  -0.125538  0  3.711779  0  0  -0.143344  0  3.959714  0  0  -0.149562  0  3.980065  0  0  -0.077943  -0.139449  0  3.946776  0
C  C29  1  0.59584412  0.89495194  0.68931584  1  0  -0.125473  0  3.711815  0  0  -0.14328  0  3.959765  0  0  -0.149496  0  3.980118  0  0  -0.077925  -0.139385  0  3.946843  0
C  C30  1  0.11727883  0.79813035  0.78207892  1  0  0.001758  0  3.706908  0  0  -0.011934  0  3.947801  0  0  -0.009808  0  3.967167  0  0  -0.06791  -0.013348  0  3.934958  0
C  C31  1  0.38272119  0.21791996  0.20187040  1  0  0.001755  0  3.706963  0  0  -0.011953  0  3.947868  0  0  -0.009827  0  3.967235  0  0  -0.067895  -0.01336  0  3.935017  0
C  C32  1  0.88272105  0.20187079  0.21792003  1  0  0.001761  0  3.706975  0  0  -0.011936  0  3.947873  0  0  -0.009811  0  3.967243  0  0  -0.067896  -0.013346  0  3.935027  0
C  C33  1  0.61727828  0.78207907  0.79813120  1  0  0.001793  0  3.706942  0  0  -0.011909  0  3.947837  0  0  -0.009784  0  3.967203  0  0  -0.067888  -0.013325  0  3.934989  0
C  C34  1  0.17969141  0.89682506  0.79210714  1  0  -0.107187  0  3.720372  0  0  -0.121357  0  3.971822  0  0  -0.127884  0  3.993612  0  0  -0.084796  -0.117073  0  3.957803  0
C  C35  1  0.32031032  0.20789208  0.10317621  1  0  -0.10701  0  3.720453  0  0  -0.121186  0  3.971872  0  0  -0.127714  0  3.993662  0  0  -0.084755  -0.1169  0  3.957837  0
C  C36  1  0.82030814  0.10317714  0.20789360  1  0  -0.106992  0  3.720355  0  0  -0.121175  0  3.971793  0  0  -0.127702  0  3.993582  0  0  -0.084735  -0.116898  0  3.957779  0
C  C37  1  0.67968950  0.79210588  0.89682556  1  0  -0.107089  0  3.720416  0  0  -0.121257  0  3.971858  0  0  -0.127784  0  3.993648  0  0  -0.084745  -0.116969  0  3.957826  0
C  C38  1  0.21905250  0.88301834  0.91370074  1  0  0.137771  0  3.678585  0  0  0.10849  0  3.92963  0  0  0.114877  0  3.948688  0  0  0.045799  0.104239  0  3.916972  0
C  C39  1  0.28094802  0.08629874  0.11698276  1  0  0.137649  0  3.678656  0  0  0.108381  0  3.929691  0  0  0.114768  0  3.94875  0  0  0.045756  0.104125  0  3.917033  0
C  C40  1  0.78094885  0.11698174  0.08629897  1  0  0.137636  0  3.678622  0  0  0.108355  0  3.929682  0  0  0.114749  0  3.948734  0  0  0.045734  0.104106  0  3.917024  0
C  C41  1  0.71905146  0.91370028  0.88301885  1  0  0.137762  0  3.678638  0  0  0.108486  0  3.929682  0  0  0.114874  0  3.948738  0  0  0.045767  0.104234  0  3.917021  0
C  C42  1  0.89980136  0.63185968  0.24656848  1  0  0.15077  0  3.797069  0  0  0.153319  0  4.071483  0  0  0.160155  0  4.088382  0  0  0.115425  0.148467  0  4.060068  0
C  C43  1  0.60019940  0.75343146  0.36814100  1  0  0.150773  0  3.797092  0  0  0.153361  0  4.071439  0  0  0.160198  0  4.088337  0  0  0.115434  0.148512  0  4.060024  0
C  C44  1  0.10019808  0.36813935  0.75342924  1  0  0.15089  0  3.796933  0  0  0.153397  0  4.071403  0  0  0.160234  0  4.0883  0  0  0.115445  0.148546  0  4.059992  0
C  C45  1  0.39980083  0.24656862  0.63185909  1  0  0.150748  0  3.797079  0  0  0.153343  0  4.071417  0  0  0.16018  0  4.088314  0  0  0.115436  0.1485  0  4.059997  0
C  C46  1  0.82755904  0.56039713  0.37689599  1  0  -0.085484  0  3.690313  0  0  -0.102193  0  3.930274  0  0  -0.104222  0  3.946908  0  0  -0.073938  -0.100754  0  3.919395  0
C  C47  1  0.67244169  0.62310497  0.43960323  1  0  -0.085498  0  3.690295  0  0  -0.102206  0  3.930233  0  0  -0.104235  0  3.946866  0  0  -0.073923  -0.100769  0  3.919354  0
C  C48  1  0.17244041  0.43960190  0.62310270  1  0  -0.085645  0  3.690395  0  0  -0.102338  0  3.93035  0  0  -0.10437  0  3.946986  0  0  -0.073983  -0.100897  0  3.919473  0
C  C49  1  0.32755888  0.37689406  0.56039605  1  0  -0.08544  0  3.690285  0  0  -0.102172  0  3.930236  0  0  -0.104202  0  3.94687  0  0  -0.073908  -0.100738  0  3.919362  0
S  S50  1  0.09960711  0.55438484  0.16472552  1  0  -0.014135  0  2.442809  0  0  -0.01463  0  2.773493  0  0  -0.019596  0  2.773949  0  0  0.054913  -0.011886  0  2.774062  0
S  S51  1  0.40039400  0.83527402  0.44561451  1  0  -0.014117  0  2.442863  0  0  -0.014623  0  2.773526  0  0  -0.019589  0  2.77398  0  0  0.054921  -0.011877  0  2.774098  0
S  S52  1  0.90039345  0.44561420  0.83527279  1  0  -0.01414  0  2.442823  0  0  -0.014625  0  2.773509  0  0  -0.01959  0  2.773965  0  0  0.054923  -0.011876  0  2.77408  0
S  S53  1  0.59960659  0.16472501  0.55438672  1  0  -0.0141  0  2.442869  0  0  -0.014609  0  2.773541  0  0  -0.01957  0  2.77399  0  0  0.054919  -0.011865  0  2.774106  0
Br  Br54  1  0.99327819  0.80545703  0.45492637  1  0  -0.427256  0  1.016193  0  0  -0.377403  0  1.308849  0  0  -0.396691  0  1.294972  0  0  -0.236971  -0.362915  0  1.317958  0
Br  Br55  1  0.50672269  0.54507239  0.19454228  1  0  -0.427261  0  1.016182  0  0  -0.377395  0  1.308821  0  0  -0.396689  0  1.294955  0  0  -0.236976  -0.362907  0  1.317917  0
Br  Br56  1  0.00672239  0.19454199  0.54507389  1  0  -0.427259  0  1.016178  0  0  -0.377404  0  1.30883  0  0  -0.39669  0  1.294953  0  0  -0.236973  -0.362914  0  1.317935  0
Br  Br57  1  0.49327677  0.45492663  0.80545738  1  0  -0.42726  0  1.016185  0  0  -0.377399  0  1.308833  0  0  -0.396693  0  1.294967  0  0  -0.236979  -0.362914  0  1.317931  0
N  N58  1  0.19383891  0.78110290  0.02477142  1  0  -0.312447  0  3.211057  0  0  -0.242666  0  3.467926  0  0  -0.262056  0  3.488633  0  0  -0.302746  -0.229332  0  3.453653  0
N  N59  1  0.30615965  0.97522866  0.21889848  1  0  -0.312402  0  3.211057  0  0  -0.242625  0  3.467901  0  0  -0.262015  0  3.488609  0  0  -0.302748  -0.229288  0  3.453631  0
N  N60  1  0.80616098  0.21889824  0.97522851  1  0  -0.312395  0  3.211035  0  0  -0.242616  0  3.467887  0  0  -0.262008  0  3.488591  0  0  -0.302725  -0.229282  0  3.453619  0
N  N61  1  0.69383983  0.02477036  0.78110312  1  0  -0.312458  0  3.21109  0  0  -0.24267  0  3.467945  0  0  -0.26206  0  3.488652  0  0  -0.30276  -0.229338  0  3.453673  0
N  N62  1  0.82541378  0.75506018  0.18342015  1  0  -0.199854  0  3.052187  0  0  -0.177708  0  3.338297  0  0  -0.183541  0  3.35295  0  0  -0.194422  -0.173426  0  3.328342  0
N  N63  1  0.67458554  0.81658058  0.24493932  1  0  -0.199845  0  3.052159  0  0  -0.177716  0  3.338268  0  0  -0.183549  0  3.35292  0  0  -0.194423  -0.173435  0  3.328315  0
N  N64  1  0.17458568  0.24493886  0.81657854  1  0  -0.199916  0  3.052116  0  0  -0.177763  0  3.338249  0  0  -0.183595  0  3.352901  0  0  -0.194455  -0.173485  0  3.328302  0
N  N65  1  0.32541246  0.18341951  0.75506056  1  0  -0.19983  0  3.052148  0  0  -0.1777  0  3.338254  0  0  -0.183531  0  3.352906  0  0  -0.194423  -0.173418  0  3.3283  0
