# generated using pymatgen
data_NaBH8C8N4O
_symmetry_space_group_name_H-M   'P 1'
_cell_length_a   8.76646891
_cell_length_b   9.24184187
_cell_length_c   13.27749731
_cell_angle_alpha   90.00003482
_cell_angle_beta   89.99859283
_cell_angle_gamma   90.00140493
_symmetry_Int_Tables_number   1
_chemical_formula_structural   NaBH8C8N4O
_chemical_formula_sum   'Na4 B4 H32 C32 N16 O4'
_cell_volume   1075.72051771
_cell_formula_units_Z   4
loop_
 _symmetry_equiv_pos_site_id
 _symmetry_equiv_pos_as_xyz
  1  'x, y, z'
loop_
 _atom_site_type_symbol
 _atom_site_label
 _atom_site_symmetry_multiplicity
 _atom_site_fract_x
 _atom_site_fract_y
 _atom_site_fract_z
 _atom_site_occupancy
 _atom_site_hle17_bader_spin_density
 _atom_site_hle17_ddec_charge
 _atom_site_hle17_ddec_spin_density
 _atom_site_hle17_ddec_sum_bond_order
 _atom_site_hle17_magmom
 _atom_site_hse06_10hf_bader_spin_density
 _atom_site_hse06_10hf_ddec_charge
 _atom_site_hse06_10hf_ddec_spin_density
 _atom_site_hse06_10hf_ddec_sum_bond_order
 _atom_site_hse06_10hf_magmom
 _atom_site_hse06_bader_spin_density
 _atom_site_hse06_ddec_charge
 _atom_site_hse06_ddec_spin_density
 _atom_site_hse06_ddec_sum_bond_order
 _atom_site_hse06_magmom
 _atom_site_pbe_bader_spin_density
 _atom_site_pbe_cm5_charge
 _atom_site_pbe_ddec_charge
 _atom_site_pbe_ddec_spin_density
 _atom_site_pbe_ddec_sum_bond_order
 _atom_site_pbe_magmom
Na  Na0  1  0.40618730  0.75002122  0.93283466  1  0  0.875246  0  0.410746  0  0  0.809775  0  0.588151  0  0  0.8222  0  0.566006  0  0  0.734599  0.801096  0  0.603546  0
Na  Na1  1  0.90621585  0.24999126  0.56715554  1  0  0.875236  0  0.410631  0  0  0.809639  0  0.588215  0  0  0.822067  0  0.566069  0  0  0.734438  0.800957  0  0.60361  0
Na  Na2  1  0.59379633  0.24998416  0.06715638  1  0  0.87524  0  0.410716  0  0  0.809707  0  0.58825  0  0  0.822132  0  0.566106  0  0  0.734599  0.801023  0  0.603646  0
Na  Na3  1  0.09383850  0.74999572  0.43281894  1  0  0.875283  0  0.41066  0  0  0.809796  0  0.588066  0  0  0.822219  0  0.565914  0  0  0.734482  0.801111  0  0.60346  0
B  B4  1  0.90286669  0.74999335  0.72779738  1  0  0.229955  0  3.540834  0  0  0.149967  0  3.762738  0  0  0.162613  0  3.757464  0  0  -0.179711  0.1408  0  3.767663  0
B  B5  1  0.40289296  0.25002770  0.77222449  1  0  0.230185  0  3.540648  0  0  0.150053  0  3.762755  0  0  0.162699  0  3.757606  0  0  -0.179699  0.140856  0  3.767805  0
B  B6  1  0.09711580  0.25000228  0.27221249  1  0  0.229516  0  3.54132  0  0  0.149785  0  3.762691  0  0  0.162306  0  3.757629  0  0  -0.179834  0.140593  0  3.767697  0
B  B7  1  0.59715911  0.74997551  0.22773416  1  0  0.230635  0  3.540127  0  0  0.150305  0  3.762737  0  0  0.162681  0  3.758237  0  0  -0.179448  0.141261  0  3.767385  0
H  H8  1  0.22302922  0.96539243  0.06417093  1  0  0.057511  0  0.943885  0  0  0.068918  0  1.013672  0  0  0.069078  0  1.013573  0  0  0.103831  0.068557  0  1.014348  0
H  H9  1  0.72301183  0.03458720  0.43582269  1  0  0.05748  0  0.943919  0  0  0.068968  0  1.013629  0  0  0.069124  0  1.013534  0  0  0.103816  0.068606  0  1.014303  0
H  H10  1  0.77694744  0.46541343  0.93582246  1  0  0.057382  0  0.943812  0  0  0.068917  0  1.013586  0  0  0.069078  0  1.013486  0  0  0.103755  0.068556  0  1.014258  0
H  H11  1  0.27696623  0.53461552  0.56417052  1  0  0.057486  0  0.943998  0  0  0.068934  0  1.01372  0  0  0.069097  0  1.013613  0  0  0.103818  0.068571  0  1.014399  0
H  H12  1  0.77695099  0.03464973  0.93584195  1  0  0.057532  0  0.943842  0  0  0.068835  0  1.013703  0  0  0.068997  0  1.013602  0  0  0.103739  0.068476  0  1.014374  0
H  H13  1  0.27697408  0.96538896  0.56417136  1  0  0.057577  0  0.943919  0  0  0.068963  0  1.013677  0  0  0.069124  0  1.013573  0  0  0.103817  0.068601  0  1.014354  0
H  H14  1  0.22305102  0.53461791  0.06418063  1  0  0.057526  0  0.943839  0  0  0.068973  0  1.013619  0  0  0.069134  0  1.013515  0  0  0.103839  0.068611  0  1.014294  0
H  H15  1  0.72301740  0.46536281  0.43582655  1  0  0.057501  0  0.94395  0  0  0.06892  0  1.013717  0  0  0.069085  0  1.01361  0  0  0.103769  0.068556  0  1.014396  0
H  H16  1  0.21161202  0.90209221  0.19126875  1  0  0.037049  0  0.955631  0  0  0.049263  0  1.024755  0  0  0.048916  0  1.026078  0  0  0.09111  0.049324  0  1.024186  0
H  H17  1  0.71159087  0.09790231  0.30873107  1  0  0.037176  0  0.955612  0  0  0.049369  0  1.024761  0  0  0.04902  0  1.026079  0  0  0.09114  0.049434  0  1.02419  0
H  H18  1  0.78839608  0.40210903  0.80873440  1  0  0.037024  0  0.955671  0  0  0.049279  0  1.024842  0  0  0.048928  0  1.026168  0  0  0.091079  0.049342  0  1.02427  0
H  H19  1  0.28838198  0.59792127  0.69126216  1  0  0.037049  0  0.95568  0  0  0.04918  0  1.024887  0  0  0.048829  0  1.026214  0  0  0.091085  0.049243  0  1.024316  0
H  H20  1  0.78838986  0.09793373  0.80874413  1  0  0.036946  0  0.95584  0  0  0.049098  0  1.024977  0  0  0.048747  0  1.026302  0  0  0.091068  0.049164  0  1.024406  0
H  H21  1  0.28837565  0.90208575  0.69126373  1  0  0.037102  0  0.955707  0  0  0.049221  0  1.024906  0  0  0.04887  0  1.026231  0  0  0.09109  0.049284  0  1.024339  0
H  H22  1  0.21162063  0.59793097  0.19127170  1  0  0.036998  0  0.955769  0  0  0.049157  0  1.024993  0  0  0.048794  0  1.026325  0  0  0.091103  0.049223  0  1.024425  0
H  H23  1  0.71157997  0.40205381  0.30873942  1  0  0.037042  0  0.955721  0  0  0.049274  0  1.024795  0  0  0.048926  0  1.026107  0  0  0.091094  0.049341  0  1.024219  0
H  H24  1  0.94803197  0.87913996  0.16022323  1  0  0.066751  0  0.958287  0  0  0.082863  0  1.021862  0  0  0.08268  0  1.024162  0  0  0.088696  0.083027  0  1.02019  0
H  H25  1  0.44800896  0.12082651  0.33977966  1  0  0.066722  0  0.958336  0  0  0.082816  0  1.021888  0  0  0.082648  0  1.024175  0  0  0.08866  0.082986  0  1.02021  0
H  H26  1  0.05196983  0.37918514  0.83980327  1  0  0.066671  0  0.958307  0  0  0.082751  0  1.021843  0  0  0.082589  0  1.024119  0  0  0.088676  0.082935  0  1.020155  0
H  H27  1  0.55197019  0.62084508  0.66020831  1  0  0.066793  0  0.958218  0  0  0.082912  0  1.021727  0  0  0.082726  0  1.024031  0  0  0.088769  0.08309  0  1.020042  0
H  H28  1  0.05196421  0.12088381  0.83980095  1  0  0.066558  0  0.958357  0  0  0.082678  0  1.021919  0  0  0.082507  0  1.024204  0  0  0.088634  0.082857  0  1.02024  0
H  H29  1  0.55196098  0.87915289  0.66023322  1  0  0.066717  0  0.958139  0  0  0.082798  0  1.021747  0  0  0.082622  0  1.024043  0  0  0.088699  0.082977  0  1.020059  0
H  H30  1  0.94804003  0.62083431  0.16022393  1  0  0.066707  0  0.958247  0  0  0.082805  0  1.02181  0  0  0.082628  0  1.024105  0  0  0.088707  0.082988  0  1.020125  0
H  H31  1  0.44799861  0.37913433  0.33981662  1  0  0.066623  0  0.958418  0  0  0.082783  0  1.021899  0  0  0.082616  0  1.02418  0  0  0.088616  0.082957  0  1.020216  0
H  H32  1  0.97188556  0.87527298  0.02781781  1  0  0.069772  0  0.950199  0  0  0.087207  0  1.010944  0  0  0.087649  0  1.012145  0  0  0.090345  0.086926  0  1.009995  0
H  H33  1  0.47186100  0.12467132  0.47218395  1  0  0.069832  0  0.950371  0  0  0.087214  0  1.011071  0  0  0.08765  0  1.012285  0  0  0.090376  0.086935  0  1.010125  0
H  H34  1  0.02808876  0.37532313  0.97220265  1  0  0.069873  0  0.950439  0  0  0.087188  0  1.011216  0  0  0.087626  0  1.012427  0  0  0.090335  0.086909  0  1.010273  0
H  H35  1  0.52810570  0.62473357  0.52780629  1  0  0.069847  0  0.95028  0  0  0.087172  0  1.011074  0  0  0.087609  0  1.012285  0  0  0.090351  0.086895  0  1.01013  0
H  H36  1  0.02809008  0.12475295  0.97220712  1  0  0.069852  0  0.950171  0  0  0.087151  0  1.011059  0  0  0.087589  0  1.012266  0  0  0.090323  0.086879  0  1.010113  0
H  H37  1  0.52812833  0.87530159  0.52783270  1  0  0.069822  0  0.95013  0  0  0.087146  0  1.010978  0  0  0.087598  0  1.012174  0  0  0.090322  0.086862  0  1.010036  0
H  H38  1  0.97190286  0.62470388  0.02782153  1  0  0.069767  0  0.950329  0  0  0.087121  0  1.011124  0  0  0.087566  0  1.01233  0  0  0.090307  0.086842  0  1.010177  0
H  H39  1  0.47188592  0.37524042  0.47221488  1  0  0.069971  0  0.950144  0  0  0.087217  0  1.011068  0  0  0.08765  0  1.012288  0  0  0.090363  0.086949  0  1.010126  0
C  C40  1  0.76028906  0.74999930  0.80128299  1  0  0.124403  0  3.55198  0  0  0.137435  0  3.81625  0  0  0.141012  0  3.832035  0  0  0.223493  0.134866  0  3.806919  0
C  C41  1  0.26027252  0.25001627  0.69876900  1  0  0.123697  0  3.552611  0  0  0.136758  0  3.816894  0  0  0.140321  0  3.83267  0  0  0.2232  0.134201  0  3.807574  0
C  C42  1  0.23969913  0.25000499  0.19873216  1  0  0.124189  0  3.551975  0  0  0.137131  0  3.816211  0  0  0.140739  0  3.832039  0  0  0.223217  0.13457  0  3.806882  0
C  C43  1  0.73978069  0.74996638  0.30118589  1  0  0.123779  0  3.552588  0  0  0.136874  0  3.816906  0  0  0.140493  0  3.832704  0  0  0.223229  0.134288  0  3.807558  0
C  C44  1  0.90026101  0.88962563  0.65889740  1  0  0.121331  0  3.558457  0  0  0.13271  0  3.827607  0  0  0.137066  0  3.841586  0  0  0.225577  0.12997  0  3.81819  0
C  C45  1  0.40028787  0.11038887  0.84111774  1  0  0.121216  0  3.55846  0  0  0.132621  0  3.827645  0  0  0.136972  0  3.841615  0  0  0.225345  0.129887  0  3.81824  0
C  C46  1  0.09971938  0.38963252  0.34111328  1  0  0.121477  0  3.55864  0  0  0.132789  0  3.827692  0  0  0.137179  0  3.841711  0  0  0.22551  0.130057  0  3.818279  0
C  C47  1  0.59975260  0.61034750  0.15883408  1  0  0.121161  0  3.558566  0  0  0.1326  0  3.827754  0  0  0.137004  0  3.841742  0  0  0.225334  0.129834  0  3.818323  0
C  C48  1  0.09971577  0.11036135  0.34110418  1  0  0.121473  0  3.558533  0  0  0.132789  0  3.827581  0  0  0.13718  0  3.841595  0  0  0.225453  0.13006  0  3.818161  0
C  C49  1  0.59975279  0.88961867  0.15884468  1  0  0.121249  0  3.558717  0  0  0.132691  0  3.827918  0  0  0.137096  0  3.841913  0  0  0.225364  0.129923  0  3.818487  0
C  C50  1  0.90026538  0.61035013  0.65890036  1  0  0.121267  0  3.558562  0  0  0.132634  0  3.827705  0  0  0.136991  0  3.841678  0  0  0.225358  0.129899  0  3.818277  0
C  C51  1  0.40028692  0.38965896  0.84112232  1  0  0.121336  0  3.558723  0  0  0.132741  0  3.827884  0  0  0.137092  0  3.841855  0  0  0.225351  0.13001  0  3.818467  0
C  C52  1  0.05218653  0.75001271  0.79452297  1  0  0.125697  0  3.542444  0  0  0.139612  0  3.805147  0  0  0.143592  0  3.819839  0  0  0.22341  0.13719  0  3.79522  0
C  C53  1  0.55220179  0.25002941  0.70549388  1  0  0.125823  0  3.54167  0  0  0.139771  0  3.80438  0  0  0.143748  0  3.819071  0  0  0.223482  0.137344  0  3.794461  0
C  C54  1  0.94780281  0.24999915  0.20548238  1  0  0.126003  0  3.542463  0  0  0.139863  0  3.805067  0  0  0.143878  0  3.819803  0  0  0.223597  0.137443  0  3.795141  0
C  C55  1  0.44785256  0.74996299  0.29447984  1  0  0.125623  0  3.541856  0  0  0.139631  0  3.804627  0  0  0.143665  0  3.819335  0  0  0.223084  0.137174  0  3.794688  0
C  C56  1  0.18568257  0.87551708  0.11219155  1  0  0.085446  0  3.611986  0  0  0.032561  0  3.87987  0  0  0.039372  0  3.88667  0  0  -0.075162  0.02808  0  3.875364  0
C  C57  1  0.68566364  0.12446385  0.38780793  1  0  0.085231  0  3.612319  0  0  0.032217  0  3.880263  0  0  0.039036  0  3.887055  0  0  -0.075317  0.027731  0  3.875753  0
C  C58  1  0.81431115  0.37553349  0.88780858  1  0  0.085654  0  3.611802  0  0  0.032412  0  3.88004  0  0  0.039227  0  3.886834  0  0  -0.075185  0.027922  0  3.87555  0
C  C59  1  0.31430990  0.62449200  0.61218532  1  0  0.085483  0  3.612093  0  0  0.032623  0  3.879846  0  0  0.039436  0  3.886646  0  0  -0.075142  0.028142  0  3.875349  0
C  C60  1  0.81429764  0.12451859  0.88781907  1  0  0.085749  0  3.611912  0  0  0.033096  0  3.879519  0  0  0.039908  0  3.886318  0  0  -0.074923  0.028608  0  3.875024  0
C  C61  1  0.31430516  0.87550798  0.61218989  1  0  0.085207  0  3.612373  0  0  0.032445  0  3.880066  0  0  0.039258  0  3.886871  0  0  -0.075152  0.027965  0  3.875566  0
C  C62  1  0.18570441  0.62450435  0.11220054  1  0  0.085551  0  3.612084  0  0  0.032595  0  3.880035  0  0  0.039416  0  3.886827  0  0  -0.07516  0.028108  0  3.875543  0
C  C63  1  0.68566802  0.37547983  0.38781777  1  0  0.08568  0  3.611877  0  0  0.032827  0  3.879597  0  0  0.039644  0  3.886393  0  0  -0.074949  0.028341  0  3.875096  0
C  C64  1  0.01743095  0.83382971  0.09912112  1  0  -0.139878  0  3.643715  0  0  -0.177085  0  3.89731  0  0  -0.178951  0  3.910509  0  0  -0.166696  -0.175666  0  3.887948  0
C  C65  1  0.51740918  0.16613325  0.40088628  1  0  -0.139895  0  3.644376  0  0  -0.17689  0  3.89771  0  0  -0.178771  0  3.910906  0  0  -0.166638  -0.175472  0  3.888347  0
C  C66  1  0.98256169  0.33386735  0.90089857  1  0  -0.139909  0  3.644263  0  0  -0.176802  0  3.897657  0  0  -0.178684  0  3.91085  0  0  -0.166571  -0.175395  0  3.888296  0
C  C67  1  0.48257000  0.66616962  0.59911377  1  0  -0.139988  0  3.643852  0  0  -0.177027  0  3.89725  0  0  -0.178892  0  3.910448  0  0  -0.166695  -0.175623  0  3.887897  0
C  C68  1  0.98255838  0.16619082  0.90089778  1  0  -0.13978  0  3.644046  0  0  -0.176909  0  3.897526  0  0  -0.178786  0  3.910722  0  0  -0.166626  -0.17551  0  3.888182  0
C  C69  1  0.48256874  0.83384616  0.59912585  1  0  -0.139699  0  3.643579  0  0  -0.17679  0  3.896961  0  0  -0.178673  0  3.910163  0  0  -0.1666  -0.17538  0  3.887597  0
C  C70  1  0.01744247  0.66615534  0.09911958  1  0  -0.139769  0  3.643718  0  0  -0.176778  0  3.897163  0  0  -0.178654  0  3.910362  0  0  -0.16657  -0.175367  0  3.887799  0
C  C71  1  0.51741021  0.33380762  0.40090363  1  0  -0.139899  0  3.643918  0  0  -0.177005  0  3.897432  0  0  -0.178882  0  3.91062  0  0  -0.166576  -0.175609  0  3.888081  0
N  N72  1  0.65752941  0.75000355  0.85679049  1  0  -0.39707  0  2.687764  0  0  -0.372813  0  2.925345  0  0  -0.381943  0  2.937656  0  0  -0.359561  -0.366709  0  2.91806  0
N  N73  1  0.15753552  0.25001073  0.64326838  1  0  -0.39643  0  2.688481  0  0  -0.372133  0  2.926019  0  0  -0.381254  0  2.938314  0  0  -0.359205  -0.366022  0  2.918725  0
N  N74  1  0.34246677  0.24999967  0.14323294  1  0  -0.396698  0  2.687615  0  0  -0.372419  0  2.925251  0  0  -0.381548  0  2.937558  0  0  -0.359224  -0.36631  0  2.917955  0
N  N75  1  0.84252567  0.74996868  0.35668500  1  0  -0.396625  0  2.688477  0  0  -0.372325  0  2.925937  0  0  -0.381439  0  2.938187  0  0  -0.359238  -0.366209  0  2.918641  0
N  N76  1  0.89911234  0.99250011  0.60836231  1  0  -0.390623  0  2.707604  0  0  -0.370635  0  2.956976  0  0  -0.378938  0  2.967382  0  0  -0.350132  -0.365034  0  2.949953  0
N  N77  1  0.39916882  0.00748948  0.89162875  1  0  -0.390604  0  2.707731  0  0  -0.370615  0  2.95706  0  0  -0.378915  0  2.967458  0  0  -0.349965  -0.365011  0  2.950027  0
N  N78  1  0.10087300  0.49251248  0.39164390  1  0  -0.390664  0  2.707776  0  0  -0.370696  0  2.957162  0  0  -0.378998  0  2.967558  0  0  -0.350036  -0.365097  0  2.950131  0
N  N79  1  0.60087470  0.50745566  0.10831625  1  0  -0.390628  0  2.708073  0  0  -0.370654  0  2.957438  0  0  -0.378943  0  2.967775  0  0  -0.350052  -0.365058  0  2.950434  0
N  N80  1  0.10087243  0.00747605  0.39162798  1  0  -0.390654  0  2.707696  0  0  -0.37068  0  2.957057  0  0  -0.378984  0  2.967455  0  0  -0.349969  -0.365079  0  2.950023  0
N  N81  1  0.60086842  0.99252347  0.10833894  1  0  -0.390719  0  2.708092  0  0  -0.370722  0  2.957427  0  0  -0.379014  0  2.967773  0  0  -0.350051  -0.365123  0  2.95042  0
N  N82  1  0.89913002  0.50747017  0.60837200  1  0  -0.390543  0  2.707879  0  0  -0.370564  0  2.957278  0  0  -0.378869  0  2.967686  0  0  -0.349907  -0.364962  0  2.950254  0
N  N83  1  0.39913289  0.49254755  0.89164919  1  0  -0.390698  0  2.707973  0  0  -0.370702  0  2.957265  0  0  -0.379005  0  2.967661  0  0  -0.349974  -0.365099  0  2.950234  0
N  N84  1  0.16153747  0.75001184  0.84417680  1  0  -0.379449  0  2.70226  0  0  -0.356487  0  2.945548  0  0  -0.364998  0  2.957106  0  0  -0.351482  -0.35075  0  2.93763  0
N  N85  1  0.66155806  0.25001118  0.65581498  1  0  -0.37957  0  2.701545  0  0  -0.356565  0  2.94481  0  0  -0.36508  0  2.956369  0  0  -0.351463  -0.350827  0  2.936886  0
N  N86  1  0.83845756  0.24999570  0.15582102  1  0  -0.379684  0  2.702297  0  0  -0.356719  0  2.945628  0  0  -0.365235  0  2.957185  0  0  -0.351628  -0.350978  0  2.937699  0
N  N87  1  0.33851340  0.74997039  0.34417305  1  0  -0.379478  0  2.701772  0  0  -0.356522  0  2.944996  0  0  -0.365038  0  2.956526  0  0  -0.351132  -0.350787  0  2.937102  0
O  O88  1  0.27336447  0.75001280  0.08284720  1  0  -0.393755  0  2.235417  0  0  -0.319298  0  2.488363  0  0  -0.336398  0  2.489049  0  0  -0.305982  -0.307074  0  2.487358  0
O  O89  1  0.77334310  0.24997125  0.41715391  1  0  -0.393608  0  2.235226  0  0  -0.31919  0  2.488145  0  0  -0.336305  0  2.488852  0  0  -0.305891  -0.306982  0  2.487183  0
O  O90  1  0.72662828  0.25003045  0.91715137  1  0  -0.393726  0  2.23531  0  0  -0.319275  0  2.488251  0  0  -0.336385  0  2.488961  0  0  -0.305961  -0.307057  0  2.487268  0
O  O91  1  0.22663254  0.74999842  0.58284240  1  0  -0.393635  0  2.235211  0  0  -0.31925  0  2.488078  0  0  -0.336357  0  2.488778  0  0  -0.30595  -0.307022  0  2.487067  0
