# generated using pymatgen
data_Zr6H41C50N5O32
_symmetry_space_group_name_H-M   'P 1'
_cell_length_a   14.81767565
_cell_length_b   14.77392778
_cell_length_c   14.78302823
_cell_angle_alpha   59.50213520
_cell_angle_beta   59.87237383
_cell_angle_gamma   59.94158918
_symmetry_Int_Tables_number   1
_chemical_formula_structural   Zr6H41C50N5O32
_chemical_formula_sum   'Zr6 H41 C50 N5 O32'
_cell_volume   2276.43839744
_cell_formula_units_Z   1
loop_
 _symmetry_equiv_pos_site_id
 _symmetry_equiv_pos_as_xyz
  1  'x, y, z'
loop_
 _atom_site_type_symbol
 _atom_site_label
 _atom_site_symmetry_multiplicity
 _atom_site_fract_x
 _atom_site_fract_y
 _atom_site_fract_z
 _atom_site_occupancy
 _atom_site_pbe_bader_charge
 _atom_site_pbe_bader_spin_density
 _atom_site_pbe_cm5_charge
 _atom_site_pbe_ddec_charge
 _atom_site_pbe_ddec_spin_density
 _atom_site_pbe_ddec_sum_bond_order
 _atom_site_pbe_magmom
Zr  Zr0  1  0.88104722  0.87791319  0.61612497  1  2.639071  0  1.627611  2.371906  0  2.756298  0
Zr  Zr1  1  0.12171549  0.11573196  0.37786636  1  2.629285  0  1.622529  2.360306  0  2.780871  0
Zr  Zr2  1  0.11931864  0.87558464  0.61885094  1  2.633115  0  1.621308  2.370131  0  2.747249  0
Zr  Zr3  1  0.88304285  0.11891656  0.37471167  1  2.635668  0  1.628914  2.373707  0  2.758335  0
Zr  Zr4  1  0.12047969  0.87893308  0.37716439  1  2.633192  0  1.628249  2.366546  0  2.780706  0
Zr  Zr5  1  0.88283645  0.11720289  0.61441657  1  2.631145  0  1.627818  2.365059  0  2.782586  0
H  H6  1  0.09419696  0.71381213  0.59277429  1  0.608672  0  0.330922  0.422572  0  0.857195  0
H  H7  1  0.09812940  0.09301155  0.21281272  1  0.596573  0  0.33209  0.424826  0  0.854036  0
H  H8  1  0.09514148  0.08992722  0.59203602  1  0.606488  0  0.332562  0.426091  0  0.852265  0
H  H9  1  0.71995670  0.09321013  0.58897546  1  0.622804  0  0.332358  0.424567  0  0.854762  0
H  H10  1  0.85112424  0.58293016  0.63904165  1  0.113571  0  0.100801  0.109493  0  1.011534  0
H  H11  1  0.14024831  0.59433965  0.34707883  1  0.086329  0  0.105169  0.11783  0  1.009823  0
H  H12  1  0.85814532  0.41217471  0.63314775  1  0.119848  0  0.102436  0.105812  0  1.006511  0
H  H13  1  0.59039042  0.84418945  0.92126479  1  0.119883  0  0.102301  0.111252  0  1.00994  0
H  H14  1  0.59724726  0.13711601  0.90957142  1  0.081854  0  0.104407  0.117152  0  1.011193  0
H  H15  1  0.42041824  0.85004965  0.09162243  1  0.081653  0  0.101851  0.104368  0  1.008742  0
H  H16  1  0.14327061  0.84632351  0.08358920  1  0.070906  0  0.100259  0.10872  0  1.010978  0
H  H17  1  0.85180831  0.13535177  0.09282553  1  0.095094  0  0.106561  0.120436  0  1.005169  0
H  H18  1  0.13493494  0.85162268  0.91508680  1  0.100253  0  0.104011  0.108091  0  1.005978  0
H  H19  1  0.59030939  0.42122187  0.63694816  1  0.072168  0  0.100119  0.108449  0  1.011169  0
H  H20  1  0.59888667  0.41451256  0.34572613  1  0.074185  0  0.107219  0.121301  0  1.004389  0
H  H21  1  0.41828059  0.58920681  0.63224185  1  0.076093  0  0.102078  0.104957  0  1.008346  0
H  H22  1  0.07561621  0.32440587  0.97956782  1  0.027316  0  0.090592  0.085415  0  0.978569  0
H  H23  1  0.16692539  0.34856123  0.00244341  1  0.021942  0  0.090613  0.089639  0  0.989407  0
H  H24  1  0.16387006  0.50880166  0.84394881  1  0.019567  0  0.092871  0.091486  0  0.985744  0
H  H25  1  0.07219887  0.48364637  0.82267191  1  0.015224  0  0.091412  0.086057  0  0.977829  0
H  H26  1  0.08789685  0.62566564  0.96214621  1  0.047269  0  0.090184  0.089719  0  0.992583  0
H  H27  1  0.94391652  0.68142442  0.02345535  1  0.032021  0  0.092973  0.090486  0  0.97357  0
H  H28  1  0.09104670  0.46398178  0.12057244  1  0.011526  0  0.086122  0.081404  0  1.006473  0
H  H29  1  0.94724065  0.52162784  0.18091094  1  0.021705  0  0.092611  0.090911  0  0.972261  0
H  H30  1  0.87058384  0.40566859  0.06382233  1  -0.002241  0  0.08794  0.084974  0  0.993915  0
H  H31  1  0.81491994  0.48441928  0.14871271  1  0.037603  0  0.090199  0.089174  0  0.982614  0
H  H32  1  0.81311173  0.64735430  0.99245373  1  0.025347  0  0.090548  0.088797  0  0.982197  0
H  H33  1  0.86381160  0.56888117  0.90871391  1  0.020607  0  0.089167  0.087412  0  0.991769  0
H  H34  1  0.58206667  0.14674626  0.34706423  1  0.082021  0  0.09937  0.107195  0  1.012474  0
H  H35  1  0.59667482  0.85096255  0.63615382  1  0.095373  0  0.107134  0.120661  0  1.005122  0
H  H36  1  0.41222804  0.13901083  0.35610008  1  0.103803  0  0.099398  0.10131  0  1.014638  0
H  H37  1  0.16416336  0.35648792  0.31275245  1  0.503669  0  0.30359  0.312719  0  0.992344  0
H  H38  1  0.21257906  0.46734480  0.25677155  1  0.40858  0  0.312017  0.303787  0  0.942007  0
H  H39  1  0.35973347  0.16048956  0.15784121  1  0.498611  0  0.302913  0.312282  0  0.992968  0
H  H40  1  0.46967644  0.20945761  0.05408561  1  0.427806  0  0.310043  0.301892  0  0.943981  0
H  H41  1  0.82427769  0.16812797  0.84727935  1  0.505154  0  0.303415  0.316397  0  0.984568  0
H  H42  1  0.77720244  0.22367506  0.94952224  1  0.43063  0  0.30974  0.300388  0  0.945616  0
H  H43  1  0.35959456  0.66104141  0.31161402  1  0.504301  0  0.304971  0.314485  0  0.986962  0
H  H44  1  0.47141060  0.55932698  0.25574888  1  0.41049  0  0.311876  0.303891  0  0.941207  0
H  H45  1  0.35755862  0.81537906  0.66526961  1  0.499371  0  0.3049  0.315122  0  0.98767  0
H  H46  1  0.46754360  0.76117925  0.71369909  1  0.466641  0  0.313256  0.305595  0  0.939561  0
C  C47  1  0.99615253  0.69780724  0.49401696  1  1.558434  0  0.238305  0.643926  0  4.085936  0
C  C48  1  0.31186033  0.99432288  0.19567926  1  1.496968  0  0.230057  0.648163  0  4.08794  0
C  C49  1  0.00043837  0.30615714  0.49108011  1  1.521194  0  0.229447  0.646451  0  4.092365  0
C  C50  1  0.70158584  0.99284553  0.80351549  1  1.528767  0  0.238027  0.643255  0  4.087912  0
C  C51  1  0.99407572  0.69664886  0.80930478  1  1.55017  0  0.244402  0.64153  0  4.020243  0
C  C52  1  0.70060943  0.99835869  0.48999578  1  1.553385  0  0.238182  0.643184  0  4.083015  0
C  C53  1  0.99880634  0.30880349  0.19392760  1  1.528271  0  0.243248  0.641135  0  4.019374  0
C  C54  1  0.30920734  0.99207480  0.49741896  1  1.514553  0  0.230084  0.647914  0  4.080729  0
C  C55  1  0.30944513  0.69472787  0.49232808  1  1.492421  0  0.230047  0.647434  0  4.08587  0
C  C56  1  0.99383210  0.99415843  0.80741162  1  1.522103  0  0.230598  0.647243  0  4.08889  0
C  C57  1  0.70377546  0.30729614  0.49177589  1  1.54889  0  0.238269  0.641648  0  4.088617  0
C  C58  1  0.00030357  0.99369839  0.19517396  1  1.554846  0  0.23811  0.643627  0  4.086675  0
C  C59  1  0.00201819  0.40685573  0.48795693  1  0.049682  0  -0.031625  -0.171577  0  3.918957  0
C  C60  1  0.99617968  0.59754903  0.49244243  1  -0.104959  0  -0.01541  -0.009129  0  4.005775  0
C  C61  1  0.08391827  0.45829931  0.40422262  1  0.410707  0  0.114184  0.314483  0  4.063497  0
C  C62  1  0.91511240  0.54721645  0.57473871  1  -0.000991  0  -0.10777  -0.148045  0  4.031748  0
C  C63  1  0.07833607  0.55387090  0.40930409  1  0.031613  0  -0.096861  -0.218307  0  3.926816  0
C  C64  1  0.91937399  0.45338513  0.57114899  1  -0.100012  0  -0.087811  -0.073483  0  4.032345  0
C  C65  1  0.41263148  0.99598926  0.09656644  1  0.056657  0  -0.031464  -0.171923  0  3.918103  0
C  C66  1  0.60254834  0.99137406  0.90644420  1  -0.057266  0  -0.015975  -0.009693  0  4.007573  0
C  C67  1  0.46242341  0.07942723  0.04566502  1  0.453627  0  0.113556  0.313096  0  4.06548  0
C  C68  1  0.55402601  0.90859905  0.95693161  1  -0.052291  0  -0.107152  -0.147514  0  4.030874  0
C  C69  1  0.55779689  0.07424285  0.95044870  1  0.032743  0  -0.096588  -0.217471  0  3.9299  0
C  C70  1  0.46055236  0.91228054  0.05047614  1  -0.089283  0  -0.086982  -0.071551  0  4.031462  0
C  C71  1  0.98965953  0.99500743  0.90901659  1  -0.02276  0  -0.030976  -0.170098  0  3.91619  0
C  C72  1  0.99726563  0.99180598  0.09672830  1  -0.003163  0  -0.015396  -0.009725  0  4.00722  0
C  C73  1  0.90672833  0.07741179  0.95913327  1  0.466775  0  0.112353  0.311457  0  4.067015  0
C  C74  1  0.07816916  0.90966322  0.04830850  1  -0.05602  0  -0.106652  -0.144772  0  4.028801  0
C  C75  1  0.91357972  0.07333534  0.05297054  1  -0.039406  0  -0.097722  -0.221633  0  3.932596  0
C  C76  1  0.07313488  0.91272869  0.95582821  1  -0.014958  0  -0.085949  -0.072125  0  4.02832  0
C  C77  1  0.41138099  0.59687620  0.48755699  1  0.018176  0  -0.031365  -0.170918  0  3.914723  0
C  C78  1  0.60357873  0.40909704  0.49058551  1  0.025984  0  -0.016009  -0.009546  0  4.00938  0
C  C79  1  0.46253164  0.54855826  0.40337784  1  0.450915  0  0.11427  0.315849  0  4.063376  0
C  C80  1  0.55391829  0.45733275  0.57289498  1  0.003821  0  -0.107234  -0.144938  0  4.030906  0
C  C81  1  0.55877096  0.45421284  0.40787428  1  -0.03838  0  -0.097598  -0.223538  0  3.931784  0
C  C82  1  0.45933481  0.54963824  0.56998891  1  -0.062911  0  -0.087864  -0.074285  0  4.034643  0
C  C83  1  0.08710382  0.38677347  0.98913841  1  -0.008016  0  -0.155059  -0.167272  0  3.847939  0
C  C84  1  0.08499903  0.49309286  0.88422035  1  -0.014623  0  -0.155078  -0.166434  0  3.845513  0
C  C85  1  0.99062148  0.59536102  0.91587224  1  0.043209  0  -0.016232  0.017235  0  3.804672  0
C  C86  1  0.01009324  0.60840889  0.00122111  1  -0.044757  0  -0.158402  -0.171146  0  3.85634  0
C  C87  1  0.01195189  0.50183642  0.10615147  1  -0.015247  0  -0.159384  -0.170145  0  3.862278  0
C  C88  1  0.99359051  0.41579276  0.09297847  1  0.040786  0  -0.016466  0.016738  0  3.802558  0
C  C89  1  0.88239262  0.46736427  0.07381023  1  0.007518  0  -0.165428  -0.177933  0  3.884318  0
C  C90  1  0.87994341  0.57464527  0.97011221  1  -0.024307  0  -0.164675  -0.177767  0  3.885827  0
C  C91  1  0.40844017  0.99120746  0.49948117  1  0.033746  0  -0.031689  -0.172381  0  3.912593  0
C  C92  1  0.59921449  0.99766709  0.49156230  1  -0.047311  0  -0.014959  -0.008881  0  4.002181  0
C  C93  1  0.45994381  0.90782581  0.58166065  1  0.402963  0  0.114807  0.315407  0  4.066036  0
C  C94  1  0.54772483  0.08073323  0.41135410  1  0.009667  0  -0.108002  -0.145844  0  4.028208  0
C  C95  1  0.55558956  0.91369463  0.57470786  1  -0.032365  0  -0.096684  -0.21927  0  3.925751  0
C  C96  1  0.45413529  0.07606853  0.41664672  1  -0.059066  0  -0.088172  -0.072311  0  4.031257  0
N  N97  1  0.16790515  0.41828601  0.32149871  1  -1.246021  0  -0.591286  -0.616053  0  3.356638  0
N  N98  1  0.42063213  0.16521965  0.08268347  1  -1.262515  0  -0.592618  -0.61722  0  3.352347  0
N  N99  1  0.82045944  0.15838831  0.92212426  1  -1.278758  0  -0.592174  -0.619175  0  3.345088  0
N  N100  1  0.42200234  0.58713961  0.32074256  1  -1.247088  0  -0.591074  -0.616277  0  3.352211  0
N  N101  1  0.42008714  0.82454802  0.66698006  1  -1.294377  0  -0.589858  -0.615074  0  3.354107  0
O  O102  1  0.92036135  0.73523214  0.57251758  1  -1.185534  0  -0.355132  -0.616954  0  2.274628  0
O  O103  1  0.26928843  0.07127391  0.23730601  1  -1.19392  0  -0.361061  -0.629031  0  2.323123  0
O  O104  1  0.07725499  0.26368136  0.41500946  1  -1.1962  0  -0.360323  -0.628166  0  2.325801  0
O  O105  1  0.73858755  0.91766526  0.76282400  1  -1.17765  0  -0.355042  -0.61609  0  2.280164  0
O  O106  1  0.07403202  0.73309444  0.76732563  1  -1.189117  0  -0.362139  -0.633746  0  2.285096  0
O  O107  1  0.73904513  0.07697998  0.41333692  1  -1.180243  0  -0.355092  -0.618107  0  2.265112  0
O  O108  1  0.92506011  0.26537920  0.23279950  1  -1.180253  0  -0.358888  -0.623412  0  2.309304  0
O  O109  1  0.26701316  0.91479493  0.57450506  1  -1.190707  0  -0.35732  -0.627715  0  2.301564  0
O  O110  1  0.26602827  0.73635151  0.41674944  1  -1.187934  0  -0.360773  -0.625893  0  2.323031  0
O  O111  1  0.91966242  0.07299535  0.76259973  1  -1.192839  0  -0.360716  -0.627977  0  2.324355  0
O  O112  1  0.74154026  0.26574962  0.57069565  1  -1.182161  0  -0.358875  -0.618764  0  2.281373  0
O  O113  1  0.07882721  0.91819619  0.23317183  1  -1.184672  0  -0.356904  -0.617687  0  2.28123  0
O  O114  1  0.07091719  0.91750156  0.76773845  1  -1.189051  0  -0.356343  -0.625026  0  2.275981  0
O  O115  1  0.74349493  0.26777847  0.41501165  1  -1.187487  0  -0.355289  -0.620188  0  2.291437  0
O  O116  1  0.92488022  0.07165365  0.23358372  1  -1.182102  0  -0.356966  -0.622697  0  2.292465  0
O  O117  1  0.26848378  0.73245680  0.57091921  1  -1.191231  0  -0.357353  -0.628827  0  2.269332  0
O  O118  1  0.91996115  0.73608285  0.76656083  1  -1.186071  0  -0.352324  -0.618707  0  2.296012  0
O  O119  1  0.26918982  0.06967232  0.42006274  1  -1.190859  0  -0.361303  -0.631231  0  2.278534  0
O  O120  1  0.07776291  0.26761929  0.23116552  1  -1.190136  0  -0.35637  -0.632484  0  2.267434  0
O  O121  1  0.74096865  0.92066765  0.56680209  1  -1.184276  0  -0.356554  -0.621713  0  2.291212  0
O  O122  1  0.74116450  0.07038459  0.76242370  1  -1.181901  0  -0.358406  -0.623417  0  2.296473  0
O  O123  1  0.07314100  0.73798076  0.41760891  1  -1.186429  0  -0.358458  -0.623377  0  2.29835  0
O  O124  1  0.27070779  0.91846749  0.23465968  1  -1.186067  0  -0.357809  -0.626821  0  2.281106  0
O  O125  1  0.92443000  0.26508634  0.56907666  1  -1.201641  0  -0.358897  -0.626268  0  2.284533  0
O  O126  1  0.80010559  0.06604086  0.56216076  1  -1.251163  0  -0.695348  -1.068609  0  2.364231  0
O  O127  1  0.06885293  0.06335274  0.56476679  1  -1.229812  0  -0.697387  -1.068803  0  2.367669  0
O  O128  1  0.07060943  0.06556426  0.29348806  1  -1.22391  0  -0.697434  -1.069751  0  2.367157  0
O  O129  1  0.06751820  0.79449332  0.56548214  1  -1.236196  0  -0.694644  -1.066797  0  2.361673  0
O  O130  1  0.15022715  0.94656036  0.44856323  1  -1.196993  0  -0.79386  -1.143762  0  2.138117  0
O  O131  1  0.95196565  0.94888152  0.44613864  1  -1.201143  0  -0.7926  -1.147559  0  2.131756  0
O  O132  1  0.95312781  0.14738344  0.44515867  1  -1.196601  0  -0.794826  -1.146054  0  2.138632  0
O  O133  1  0.95132136  0.94695375  0.64599239  1  -1.199628  0  -0.791299  -1.145464  0  2.131598  0
