# generated using pymatgen
data_CsH7C6O7
_symmetry_space_group_name_H-M   'P 1'
_cell_length_a   5.05400362
_cell_length_b   9.40510014
_cell_length_c   19.62563818
_cell_angle_alpha   90.00038986
_cell_angle_beta   90.00043124
_cell_angle_gamma   89.99987187
_symmetry_Int_Tables_number   1
_chemical_formula_structural   CsH7C6O7
_chemical_formula_sum   'Cs4 H28 C24 O28'
_cell_volume   932.87350916
_cell_formula_units_Z   4
loop_
 _symmetry_equiv_pos_site_id
 _symmetry_equiv_pos_as_xyz
  1  'x, y, z'
loop_
 _atom_site_type_symbol
 _atom_site_label
 _atom_site_symmetry_multiplicity
 _atom_site_fract_x
 _atom_site_fract_y
 _atom_site_fract_z
 _atom_site_occupancy
 _atom_site_hle17_bader_spin_density
 _atom_site_hle17_ddec_charge
 _atom_site_hle17_ddec_spin_density
 _atom_site_hle17_ddec_sum_bond_order
 _atom_site_hle17_magmom
 _atom_site_hse06_10hf_bader_spin_density
 _atom_site_hse06_10hf_ddec_charge
 _atom_site_hse06_10hf_ddec_spin_density
 _atom_site_hse06_10hf_ddec_sum_bond_order
 _atom_site_hse06_10hf_magmom
 _atom_site_hse06_bader_spin_density
 _atom_site_hse06_ddec_charge
 _atom_site_hse06_ddec_spin_density
 _atom_site_hse06_ddec_sum_bond_order
 _atom_site_hse06_magmom
 _atom_site_pbe_bader_spin_density
 _atom_site_pbe_cm5_charge
 _atom_site_pbe_ddec_charge
 _atom_site_pbe_ddec_spin_density
 _atom_site_pbe_ddec_sum_bond_order
 _atom_site_pbe_magmom
Cs  Cs0  1  0.81071943  0.98977543  0.19111859  1  0  0.982595  0  0.468048  0  0  0.936959  0  0.668843  0  0  0.951758  0  0.646591  0  0  0.824341  0.925917  0  0.684802  0
Cs  Cs1  1  0.31071842  0.51022330  0.69112512  1  0  0.982577  0  0.468139  0  0  0.936954  0  0.668899  0  0  0.951735  0  0.646673  0  0  0.824393  0.925917  0  0.684864  0
Cs  Cs2  1  0.81073254  0.48976877  0.30887695  1  0  0.982599  0  0.468123  0  0  0.936983  0  0.668891  0  0  0.951772  0  0.646652  0  0  0.824421  0.925946  0  0.684848  0
Cs  Cs3  1  0.31072361  0.01022303  0.80888246  1  0  0.982589  0  0.468058  0  0  0.936954  0  0.668837  0  0  0.951747  0  0.646592  0  0  0.824343  0.92592  0  0.684796  0
H  H4  1  0.22369632  0.39462954  0.98908001  1  0  0.144355  0  0.932461  0  0  0.15515  0  0.992238  0  0  0.157724  0  0.991798  0  0  0.113009  0.153334  0  0.99247  0
H  H5  1  0.72369089  0.10538177  0.48907776  1  0  0.144319  0  0.932615  0  0  0.155138  0  0.992358  0  0  0.157716  0  0.99192  0  0  0.11296  0.153313  0  0.992599  0
H  H6  1  0.22371192  0.89461892  0.51092216  1  0  0.144368  0  0.932488  0  0  0.155209  0  0.992219  0  0  0.157792  0  0.991782  0  0  0.112995  0.153382  0  0.992451  0
H  H7  1  0.72368868  0.60537434  0.01091940  1  0  0.144361  0  0.93262  0  0  0.15519  0  0.992365  0  0  0.15777  0  0.991928  0  0  0.112978  0.153365  0  0.992603  0
H  H8  1  0.96008851  0.33136667  0.04144496  1  0  0.142153  0  0.94767  0  0  0.149756  0  1.011794  0  0  0.153086  0  1.009956  0  0  0.113196  0.147255  0  1.013279  0
H  H9  1  0.46008887  0.16863733  0.54144439  1  0  0.142142  0  0.947746  0  0  0.149783  0  1.011821  0  0  0.153113  0  1.009977  0  0  0.113185  0.147274  0  1.013302  0
H  H10  1  0.96009555  0.83136305  0.45855991  1  0  0.142152  0  0.947603  0  0  0.149781  0  1.011741  0  0  0.15311  0  1.009896  0  0  0.113209  0.147268  0  1.013223  0
H  H11  1  0.46008206  0.66864222  0.95855527  1  0  0.142095  0  0.947654  0  0  0.149758  0  1.011733  0  0  0.153087  0  1.009895  0  0  0.113213  0.14725  0  1.013211  0
H  H12  1  0.66353710  0.36638355  0.12872861  1  0  0.3839  0  0.896076  0  0  0.351331  0  0.986386  0  0  0.363432  0  0.97094  0  0  0.298467  0.342753  0  0.997313  0
H  H13  1  0.16352375  0.13362944  0.62873658  1  0  0.383903  0  0.896022  0  0  0.351275  0  0.986492  0  0  0.36338  0  0.971031  0  0  0.298414  0.342698  0  0.99742  0
H  H14  1  0.66352892  0.86637346  0.37126580  1  0  0.38396  0  0.895957  0  0  0.351326  0  0.986425  0  0  0.363434  0  0.970957  0  0  0.298454  0.342745  0  0.997362  0
H  H15  1  0.16352150  0.63361828  0.87127020  1  0  0.384044  0  0.895942  0  0  0.351418  0  0.986381  0  0  0.363523  0  0.970918  0  0  0.298525  0.342842  0  0.997308  0
H  H16  1  0.21752430  0.60886556  0.04625957  1  0  0.133193  0  0.946736  0  0  0.142507  0  1.012007  0  0  0.145065  0  1.011229  0  0  0.107442  0.140685  0  1.012511  0
H  H17  1  0.71755673  0.89114093  0.54625229  1  0  0.133125  0  0.94674  0  0  0.142427  0  1.012012  0  0  0.144979  0  1.011236  0  0  0.107377  0.140609  0  1.01251  0
H  H18  1  0.21751328  0.10886083  0.45374099  1  0  0.13324  0  0.946692  0  0  0.142575  0  1.011907  0  0  0.145131  0  1.01113  0  0  0.107484  0.140757  0  1.01241  0
H  H19  1  0.71752592  0.39114471  0.95374390  1  0  0.133182  0  0.946814  0  0  0.142485  0  1.01207  0  0  0.145039  0  1.011292  0  0  0.10741  0.140665  0  1.012575  0
H  H20  1  0.97144664  0.55608878  0.10542443  1  0  0.134782  0  0.93573  0  0  0.145804  0  0.997259  0  0  0.149107  0  0.995162  0  0  0.115035  0.143337  0  0.998922  0
H  H21  1  0.47149145  0.94389691  0.60542685  1  0  0.134846  0  0.935614  0  0  0.145669  0  0.997351  0  0  0.148965  0  0.995267  0  0  0.11498  0.143216  0  0.998992  0
H  H22  1  0.97146501  0.05608114  0.39456779  1  0  0.134941  0  0.935713  0  0  0.145856  0  0.997338  0  0  0.149157  0  0.995244  0  0  0.115061  0.143393  0  0.999002  0
H  H23  1  0.47145838  0.44390521  0.89457429  1  0  0.134898  0  0.935634  0  0  0.145898  0  0.997158  0  0  0.149205  0  0.995049  0  0  0.115036  0.143398  0  0.998857  0
H  H24  1  0.33997751  0.68902122  0.25042029  1  0  0.383082  0  0.936582  0  0  0.348531  0  1.020676  0  0  0.362944  0  1.000525  0  0  0.29192  0.338547  0  1.03268  0
H  H25  1  0.83996276  0.81097507  0.75041273  1  0  0.383067  0  0.936616  0  0  0.348639  0  1.020497  0  0  0.363027  0  1.000392  0  0  0.291976  0.338674  0  1.032436  0
H  H26  1  0.33995867  0.18902547  0.24958021  1  0  0.383082  0  0.936566  0  0  0.348615  0  1.02054  0  0  0.363009  0  1.000421  0  0  0.291937  0.338633  0  1.032498  0
H  H27  1  0.83996370  0.31097932  0.74958641  1  0  0.383056  0  0.936675  0  0  0.34865  0  1.020483  0  0  0.363038  0  1.000379  0  0  0.291963  0.338669  0  1.032463  0
H  H28  1  0.54286154  0.06886028  0.97903412  1  0  0.40953  0  0.881758  0  0  0.376485  0  0.961606  0  0  0.389276  0  0.943244  0  0  0.31399  0.36774  0  0.974103  0
H  H29  1  0.04283975  0.43114795  0.47903030  1  0  0.409456  0  0.881785  0  0  0.376407  0  0.961703  0  0  0.389197  0  0.943343  0  0  0.313958  0.367659  0  0.974204  0
H  H30  1  0.54287159  0.56885617  0.52096479  1  0  0.40945  0  0.88187  0  0  0.376409  0  0.961714  0  0  0.389201  0  0.94335  0  0  0.313964  0.367665  0  0.974209  0
H  H31  1  0.04285375  0.93114065  0.02097115  1  0  0.409478  0  0.881842  0  0  0.376442  0  0.961675  0  0  0.389233  0  0.943312  0  0  0.313943  0.367696  0  0.974172  0
C  C32  1  0.26480801  0.18194915  0.02486032  1  0  0.762298  0  3.707283  0  0  0.710814  0  4.011703  0  0  0.745847  0  3.999032  0  0  0.253586  0.686864  0  4.020044  0
C  C33  1  0.76481104  0.31806552  0.52485941  1  0  0.762456  0  3.707164  0  0  0.710908  0  4.011692  0  0  0.745907  0  3.999066  0  0  0.253673  0.68696  0  4.020014  0
C  C34  1  0.26481568  0.68193724  0.47513750  1  0  0.762294  0  3.707305  0  0  0.710805  0  4.011789  0  0  0.745806  0  3.999159  0  0  0.253722  0.68684  0  4.02012  0
C  C35  1  0.76479893  0.81806425  0.97513914  1  0  0.762307  0  3.707974  0  0  0.710972  0  4.012181  0  0  0.745989  0  3.999527  0  0  0.253679  0.687021  0  4.020517  0
C  C36  1  0.17524525  0.33246335  0.03461358  1  0  -0.366072  0  3.587514  0  0  -0.403825  0  3.816442  0  0  -0.412145  0  3.822951  0  0  -0.162993  -0.397896  0  3.811824  0
C  C37  1  0.67525084  0.16754200  0.53461215  1  0  -0.366114  0  3.587415  0  0  -0.40389  0  3.816412  0  0  -0.412196  0  3.822917  0  0  -0.163004  -0.397931  0  3.811756  0
C  C38  1  0.17525651  0.83246939  0.46538974  1  0  -0.365911  0  3.587203  0  0  -0.403866  0  3.81627  0  0  -0.412161  0  3.822814  0  0  -0.162986  -0.397876  0  3.811579  0
C  C39  1  0.67525220  0.66754910  0.96539340  1  0  -0.36609  0  3.587313  0  0  -0.403947  0  3.816194  0  0  -0.412269  0  3.822708  0  0  -0.163047  -0.397994  0  3.811544  0
C  C40  1  0.29981883  0.40969944  0.09706527  1  0  0.27623  0  3.562077  0  0  0.277664  0  3.804072  0  0  0.281481  0  3.815871  0  0  0.078961  0.274806  0  3.795856  0
C  C41  1  0.79983460  0.09030870  0.59706306  1  0  0.276499  0  3.561688  0  0  0.277826  0  3.803848  0  0  0.281642  0  3.815646  0  0  0.079081  0.274967  0  3.795624  0
C  C42  1  0.29981780  0.90968657  0.40293849  1  0  0.276159  0  3.562111  0  0  0.27778  0  3.803783  0  0  0.281503  0  3.815734  0  0  0.078965  0.27491  0  3.795562  0
C  C43  1  0.79986127  0.59029797  0.90293576  1  0  0.276548  0  3.561617  0  0  0.277932  0  3.80374  0  0  0.281744  0  3.815545  0  0  0.079043  0.275079  0  3.795503  0
C  C44  1  0.18606712  0.56169895  0.09648204  1  0  -0.354929  0  3.615562  0  0  -0.397763  0  3.849428  0  0  -0.405139  0  3.856502  0  0  -0.165237  -0.392477  0  3.844251  0
C  C45  1  0.68611718  0.93829762  0.59647849  1  0  -0.354858  0  3.6155  0  0  -0.397584  0  3.849377  0  0  -0.404944  0  3.856449  0  0  -0.165092  -0.392306  0  3.844207  0
C  C46  1  0.18607199  0.06169355  0.40351221  1  0  -0.355199  0  3.6159  0  0  -0.397953  0  3.849573  0  0  -0.405304  0  3.856667  0  0  -0.165297  -0.392664  0  3.844413  0
C  C47  1  0.68607455  0.43829966  0.90352190  1  0  -0.355125  0  3.615627  0  0  -0.397948  0  3.849451  0  0  -0.405311  0  3.85652  0  0  -0.16519  -0.39263  0  3.844303  0
C  C48  1  0.30560288  0.65879654  0.14927395  1  0  0.738022  0  3.765169  0  0  0.695678  0  4.064268  0  0  0.728525  0  4.053778  0  0  0.228682  0.673245  0  4.071297  0
C  C49  1  0.80566123  0.84121014  0.64926955  1  0  0.737562  0  3.766028  0  0  0.695491  0  4.064782  0  0  0.72831  0  4.05431  0  0  0.228461  0.673064  0  4.071817  0
C  C50  1  0.30561957  0.15877981  0.35072691  1  0  0.738175  0  3.76483  0  0  0.69593  0  4.063824  0  0  0.728763  0  4.053342  0  0  0.228715  0.673479  0  4.070882  0
C  C51  1  0.80561856  0.34120511  0.85072862  1  0  0.737925  0  3.765352  0  0  0.695733  0  4.064247  0  0  0.728561  0  4.053774  0  0  0.228685  0.673276  0  4.071311  0
C  C52  1  0.22243604  0.32794322  0.16248257  1  0  0.598362  0  3.886237  0  0  0.548808  0  4.191172  0  0  0.579889  0  4.185579  0  0  0.200249  0.527798  0  4.194219  0
C  C53  1  0.72245942  0.17206377  0.66248421  1  0  0.598151  0  3.886513  0  0  0.548622  0  4.191454  0  0  0.579702  0  4.18586  0  0  0.200289  0.527608  0  4.194504  0
C  C54  1  0.22244635  0.82792842  0.33751723  1  0  0.598025  0  3.886523  0  0  0.548548  0  4.191195  0  0  0.579646  0  4.185617  0  0  0.200346  0.527535  0  4.194247  0
C  C55  1  0.72244796  0.67206173  0.83751785  1  0  0.598051  0  3.886442  0  0  0.548452  0  4.191511  0  0  0.579531  0  4.185924  0  0  0.200204  0.527434  0  4.194564  0
O  O56  1  0.47787537  0.16991086  0.98606791  1  0  -0.54538  0  2.103319  0  0  -0.490487  0  2.320516  0  0  -0.51371  0  2.302163  0  0  -0.313069  -0.474585  0  2.332524  0
O  O57  1  0.97785325  0.33009583  0.48606338  1  0  -0.54523  0  2.10329  0  0  -0.490339  0  2.320563  0  0  -0.513547  0  2.302228  0  0  -0.312955  -0.474438  0  2.332564  0
O  O58  1  0.47789109  0.66990984  0.51393127  1  0  -0.545355  0  2.103381  0  0  -0.490446  0  2.320587  0  0  -0.513662  0  2.302253  0  0  -0.313101  -0.474541  0  2.332593  0
O  O59  1  0.97787095  0.83009482  0.01393489  1  0  -0.545416  0  2.103333  0  0  -0.490593  0  2.320479  0  0  -0.513817  0  2.302137  0  0  -0.313113  -0.474688  0  2.332482  0
O  O60  1  0.14773717  0.07908712  0.05113386  1  0  -0.630581  0  1.974788  0  0  -0.587384  0  2.201347  0  0  -0.608815  0  2.188163  0  0  -0.32351  -0.572805  0  2.209906  0
O  O61  1  0.64774772  0.42091635  0.55113534  1  0  -0.630676  0  1.974924  0  0  -0.587462  0  2.201539  0  0  -0.608881  0  2.188372  0  0  -0.323569  -0.572886  0  2.210098  0
O  O62  1  0.14776164  0.57908550  0.44886294  1  0  -0.630537  0  1.975076  0  0  -0.587329  0  2.201679  0  0  -0.608746  0  2.18851  0  0  -0.323542  -0.572746  0  2.210245  0
O  O63  1  0.64776032  0.92090835  0.94887258  1  0  -0.630484  0  1.975462  0  0  -0.587343  0  2.201971  0  0  -0.60876  0  2.188789  0  0  -0.323495  -0.572772  0  2.210536  0
O  O64  1  0.98377142  0.31840120  0.17949958  1  0  -0.672339  0  2.037932  0  0  -0.630749  0  2.288102  0  0  -0.653721  0  2.279418  0  0  -0.42515  -0.614733  0  2.293691  0
O  O65  1  0.48378162  0.18160354  0.67950517  1  0  -0.67236  0  2.03784  0  0  -0.63073  0  2.287993  0  0  -0.653704  0  2.279306  0  0  -0.425249  -0.614714  0  2.293585  0
O  O66  1  0.98378306  0.81837661  0.32050019  1  0  -0.672241  0  2.037997  0  0  -0.630677  0  2.288128  0  0  -0.653648  0  2.279434  0  0  -0.425232  -0.614661  0  2.29372  0
O  O67  1  0.48376556  0.68160340  0.82049661  1  0  -0.672357  0  2.037935  0  0  -0.630697  0  2.288101  0  0  -0.653674  0  2.279421  0  0  -0.425221  -0.614676  0  2.293688  0
O  O68  1  0.41755732  0.27040431  0.19432921  1  0  -0.653763  0  2.097521  0  0  -0.59917  0  2.333814  0  0  -0.624191  0  2.322328  0  0  -0.366942  -0.581749  0  2.340538  0
O  O69  1  0.91755277  0.22959647  0.69432850  1  0  -0.653657  0  2.098057  0  0  -0.599077  0  2.3343  0  0  -0.624093  0  2.322813  0  0  -0.366928  -0.581662  0  2.341032  0
O  O70  1  0.41757037  0.77039228  0.30567371  1  0  -0.653662  0  2.097768  0  0  -0.599046  0  2.334053  0  0  -0.624079  0  2.322555  0  0  -0.367016  -0.581619  0  2.340783  0
O  O71  1  0.91755197  0.72958975  0.80566944  1  0  -0.653695  0  2.09797  0  0  -0.599096  0  2.334275  0  0  -0.624111  0  2.322791  0  0  -0.366929  -0.581688  0  2.340993  0
O  O72  1  0.27847125  0.61091232  0.21265166  1  0  -0.642765  0  2.122993  0  0  -0.59222  0  2.355752  0  0  -0.616399  0  2.337853  0  0  -0.401749  -0.575333  0  2.366515  0
O  O73  1  0.77846609  0.88908035  0.71264131  1  0  -0.642494  0  2.123294  0  0  -0.592122  0  2.355879  0  0  -0.616279  0  2.338009  0  0  -0.401667  -0.57524  0  2.366597  0
O  O74  1  0.27845781  0.11091389  0.28735052  1  0  -0.642781  0  2.122947  0  0  -0.592321  0  2.355628  0  0  -0.616486  0  2.337751  0  0  -0.401793  -0.575424  0  2.366369  0
O  O75  1  0.77846254  0.38908511  0.78735648  1  0  -0.642694  0  2.123259  0  0  -0.592275  0  2.35583  0  0  -0.616437  0  2.337951  0  0  -0.401798  -0.575377  0  2.366588  0
O  O76  1  0.41158174  0.77379250  0.13524359  1  0  -0.63473  0  1.890709  0  0  -0.59809  0  2.10946  0  0  -0.618239  0  2.099935  0  0  -0.385331  -0.58438  0  2.115865  0
O  O77  1  0.91171373  0.72622768  0.63523522  1  0  -0.634617  0  1.890897  0  0  -0.598047  0  2.109482  0  0  -0.618178  0  2.099952  0  0  -0.385269  -0.584354  0  2.115927  0
O  O78  1  0.41164844  0.27377595  0.36476086  1  0  -0.63484  0  1.890146  0  0  -0.598231  0  2.10881  0  0  -0.61837  0  2.099277  0  0  -0.385311  -0.584528  0  2.115262  0
O  O79  1  0.91160433  0.22620476  0.86476014  1  0  -0.634717  0  1.890603  0  0  -0.598124  0  2.109262  0  0  -0.618265  0  2.099737  0  0  -0.385323  -0.584399  0  2.115684  0
O  O80  1  0.57952564  0.41771188  0.09021423  1  0  -0.587889  0  2.0543  0  0  -0.539804  0  2.281567  0  0  -0.555761  0  2.268566  0  0  -0.394914  -0.528336  0  2.290447  0
O  O81  1  0.07954612  0.08231453  0.59021387  1  0  -0.588045  0  2.054018  0  0  -0.539886  0  2.281287  0  0  -0.555849  0  2.268283  0  0  -0.394969  -0.528425  0  2.290171  0
O  O82  1  0.57953279  0.91769805  0.40978534  1  0  -0.587949  0  2.053965  0  0  -0.539884  0  2.281194  0  0  -0.55582  0  2.268215  0  0  -0.394945  -0.528417  0  2.290086  0
O  O83  1  0.07952161  0.58230069  0.90978498  1  0  -0.588038  0  2.054671  0  0  -0.539924  0  2.281986  0  0  -0.555882  0  2.268977  0  0  -0.394981  -0.528462  0  2.29086  0
