# generated using pymatgen
data_LuH13C8SO12
_symmetry_space_group_name_H-M   'P 1'
_cell_length_a   9.19602335
_cell_length_b   10.45063011
_cell_length_c   15.51682643
_cell_angle_alpha   90.00047152
_cell_angle_beta   94.97081817
_cell_angle_gamma   89.99973455
_symmetry_Int_Tables_number   1
_chemical_formula_structural   LuH13C8SO12
_chemical_formula_sum   'Lu4 H52 C32 S4 O48'
_cell_volume   1485.62420105
_cell_formula_units_Z   4
loop_
 _symmetry_equiv_pos_site_id
 _symmetry_equiv_pos_as_xyz
  1  'x, y, z'
loop_
 _atom_site_type_symbol
 _atom_site_label
 _atom_site_symmetry_multiplicity
 _atom_site_fract_x
 _atom_site_fract_y
 _atom_site_fract_z
 _atom_site_occupancy
 _atom_site_pbe_bader_charge
 _atom_site_pbe_bader_spin_density
 _atom_site_pbe_cm5_charge
 _atom_site_pbe_ddec_charge
 _atom_site_pbe_ddec_spin_density
 _atom_site_pbe_ddec_sum_bond_order
 _atom_site_pbe_magmom
Lu  Lu0  1  0.17972453  0.05505549  0.17427438  1  2.186241  0  1.296865  1.687533  0  2.617797  0
Lu  Lu1  1  0.32027578  0.55504857  0.32572423  1  2.18615  0  1.29684  1.687528  0  2.617822  0
Lu  Lu2  1  0.82029397  0.94495537  0.82572165  1  2.186224  0  1.296889  1.687724  0  2.617607  0
Lu  Lu3  1  0.67970471  0.44494507  0.67427892  1  2.186281  0  1.296881  1.687742  0  2.61757  0
H  H4  1  0.50105293  0.22541980  0.41220820  1  0.148048  0  0.113831  0.106708  0  1.071371  0
H  H5  1  0.99893231  0.72545255  0.08780188  1  0.148109  0  0.113871  0.106715  0  1.07124  0
H  H6  1  0.49892877  0.77455949  0.58781700  1  0.147834  0  0.113871  0.106625  0  1.071332  0
H  H7  1  0.00110224  0.27453821  0.91216386  1  0.148375  0  0.113949  0.106616  0  1.071305  0
H  H8  1  0.84787231  0.02799590  0.56083217  1  0.163262  0  0.113098  0.114672  0  1.043593  0
H  H9  1  0.65211935  0.52801894  0.93917008  1  0.163162  0  0.113106  0.114546  0  1.043823  0
H  H10  1  0.15210400  0.97198434  0.43919193  1  0.163359  0  0.113167  0.114748  0  1.043666  0
H  H11  1  0.34788063  0.47198618  0.06081277  1  0.163306  0  0.113144  0.11472  0  1.043681  0
H  H12  1  0.62876305  0.84776014  0.33612005  1  0.1123  0  0.115951  0.119471  0  1.014709  0
H  H13  1  0.87124641  0.34778454  0.16388195  1  0.112594  0  0.115955  0.119434  0  1.01476  0
H  H14  1  0.37120927  0.15221149  0.66391147  1  0.112249  0  0.115898  0.119509  0  1.014637  0
H  H15  1  0.12879425  0.65220527  0.83608883  1  0.112414  0  0.115889  0.119503  0  1.01467  0
H  H16  1  0.20854367  0.83862929  0.06002413  1  0.670426  0  0.302114  0.395924  0  0.948443  0
H  H17  1  0.29143475  0.33862142  0.43996686  1  0.669998  0  0.302215  0.396164  0  0.948146  0
H  H18  1  0.79146249  0.16138539  0.93996311  1  0.670147  0  0.302081  0.395862  0  0.948496  0
H  H19  1  0.70854810  0.66136647  0.56003456  1  0.67056  0  0.302102  0.395962  0  0.948431  0
H  H20  1  0.17808557  0.77774586  0.15392416  1  0.665265  0  0.309972  0.403066  0  0.92908  0
H  H21  1  0.32190802  0.27773612  0.34607284  1  0.665331  0  0.310092  0.403095  0  0.929044  0
H  H22  1  0.82191834  0.22226404  0.84606353  1  0.665253  0  0.310039  0.403169  0  0.929017  0
H  H23  1  0.67809656  0.72225081  0.65393105  1  0.665383  0  0.309999  0.403046  0  0.929102  0
H  H24  1  0.03573097  0.17392266  0.31340287  1  0.6501  0  0.318443  0.415048  0  0.887943  0
H  H25  1  0.46427306  0.67389434  0.18660527  1  0.650137  0  0.318438  0.415003  0  0.888027  0
H  H26  1  0.96428814  0.82610064  0.68659837  1  0.650057  0  0.318399  0.41499  0  0.888038  0
H  H27  1  0.53573237  0.32609930  0.81341290  1  0.64991  0  0.318388  0.415018  0  0.888016  0
H  H28  1  0.06000675  0.28630847  0.24833764  1  0.639356  0  0.301326  0.393404  0  0.948195  0
H  H29  1  0.44000444  0.78628732  0.25166349  1  0.639552  0  0.301281  0.39336  0  0.948253  0
H  H30  1  0.94001945  0.71370622  0.75165839  1  0.639567  0  0.301341  0.393435  0  0.948113  0
H  H31  1  0.55998966  0.21370919  0.74834662  1  0.639566  0  0.301329  0.393469  0  0.948111  0
H  H32  1  0.45610490  0.98305076  0.10822195  1  0.62438  0  0.332301  0.415536  0  0.861005  0
H  H33  1  0.04389655  0.48304569  0.39178488  1  0.624321  0  0.332336  0.415604  0  0.860959  0
H  H34  1  0.54390507  0.01696392  0.89175980  1  0.624516  0  0.332381  0.4157  0  0.860957  0
H  H35  1  0.95607213  0.51694699  0.60821535  1  0.624628  0  0.332334  0.415733  0  0.861114  0
H  H36  1  0.45448408  0.13438138  0.10196965  1  0.668801  0  0.300155  0.390566  0  0.945162  0
H  H37  1  0.04553776  0.63437818  0.39803907  1  0.668867  0  0.3002  0.390737  0  0.944962  0
H  H38  1  0.54554326  0.86563809  0.89802583  1  0.66905  0  0.300224  0.390732  0  0.944934  0
H  H39  1  0.95444920  0.36561450  0.60197690  1  0.668943  0  0.300172  0.390699  0  0.945016  0
H  H40  1  0.86513386  0.07559422  0.10832612  1  0.666769  0  0.306405  0.404802  0  0.911867  0
H  H41  1  0.63487193  0.57555266  0.39168078  1  0.666593  0  0.306463  0.404917  0  0.911675  0
H  H42  1  0.13488053  0.92442238  0.89166697  1  0.66635  0  0.306422  0.404908  0  0.911746  0
H  H43  1  0.36511085  0.42443236  0.60833289  1  0.666757  0  0.306448  0.404949  0  0.911684  0
H  H44  1  0.92123631  0.94418648  0.07811168  1  0.663019  0  0.3063  0.396119  0  0.926667  0
H  H45  1  0.57874293  0.44415423  0.42189877  1  0.662291  0  0.30631  0.396064  0  0.926674  0
H  H46  1  0.07878764  0.05583204  0.92188480  1  0.662641  0  0.30635  0.396172  0  0.926598  0
H  H47  1  0.42121836  0.55583940  0.57812149  1  0.662753  0  0.306324  0.396123  0  0.926646  0
H  H48  1  0.00342582  0.90629061  0.28951936  1  0.629523  0  0.330626  0.424425  0  0.859935  0
H  H49  1  0.49656970  0.40627731  0.21047611  1  0.629274  0  0.330665  0.424471  0  0.85982  0
H  H50  1  0.99659698  0.09372695  0.71048929  1  0.629265  0  0.330645  0.424399  0  0.859717  0
H  H51  1  0.50341684  0.59372303  0.78952110  1  0.629197  0  0.330629  0.42443  0  0.859755  0
H  H52  1  0.16708981  0.87310829  0.31874345  1  0.674858  0  0.307302  0.402924  0  0.936657  0
H  H53  1  0.33290186  0.37310000  0.18125277  1  0.674748  0  0.307323  0.403025  0  0.93651  0
H  H54  1  0.83292876  0.12690066  0.68126356  1  0.674955  0  0.307268  0.402895  0  0.936664  0
H  H55  1  0.66708510  0.62691087  0.81873996  1  0.674705  0  0.307357  0.403048  0  0.936456  0
C  C56  1  0.55083125  0.03703377  0.36582354  1  -0.011785  0  -0.014598  -0.035604  0  3.989105  0
C  C57  1  0.94916752  0.53706226  0.13417993  1  -0.011222  0  -0.014634  -0.035499  0  3.988961  0
C  C58  1  0.44915226  0.96295221  0.63419407  1  -0.012058  0  -0.014667  -0.035437  0  3.988951  0
C  C59  1  0.05085292  0.46293999  0.86579560  1  -0.011899  0  -0.014713  -0.035739  0  3.989156  0
C  C60  1  0.57065024  0.14185302  0.42129789  1  -0.055815  0  -0.066016  -0.086024  0  3.908442  0
C  C61  1  0.92933833  0.64187534  0.07870415  1  -0.056296  0  -0.066026  -0.086088  0  3.908179  0
C  C62  1  0.42932765  0.85812914  0.57872118  1  -0.05596  0  -0.066012  -0.085986  0  3.908035  0
C  C63  1  0.07068907  0.35811542  0.92126745  1  -0.056056  0  -0.066071  -0.08594  0  3.907785  0
C  C64  1  0.67542147  0.13961185  0.49152469  1  -0.046293  0  -0.010896  -0.027865  0  3.969734  0
C  C65  1  0.82457395  0.63964214  0.00847340  1  -0.046645  0  -0.010879  -0.027947  0  3.969718  0
C  C66  1  0.32455399  0.86037031  0.50849676  1  -0.046017  0  -0.010749  -0.027759  0  3.969465  0
C  C67  1  0.17545418  0.36035437  0.99150214  1  -0.04667  0  -0.010824  -0.027786  0  3.969395  0
C  C68  1  0.76653443  0.03274076  0.50566887  1  -0.006278  0  -0.062472  -0.070762  0  3.901287  0
C  C69  1  0.73346865  0.53275867  0.99433115  1  -0.00414  0  -0.062632  -0.070747  0  3.901494  0
C  C70  1  0.23344624  0.96724235  0.49435560  1  -0.003878  0  -0.062682  -0.070867  0  3.901632  0
C  C71  1  0.26654477  0.46724070  0.00564895  1  -0.003947  0  -0.062585  -0.070849  0  3.9012  0
C  C72  1  0.75017569  0.93051744  0.44794781  1  -0.158781  0  -0.016894  -0.091435  0  3.965897  0
C  C73  1  0.74982592  0.43053114  0.05205152  1  -0.160751  0  -0.016845  -0.091637  0  3.966025  0
C  C74  1  0.24980087  0.06946663  0.55207373  1  -0.160946  0  -0.016908  -0.091761  0  3.966297  0
C  C75  1  0.25018640  0.56947207  0.94792849  1  -0.160954  0  -0.016994  -0.091795  0  3.966021  0
C  C76  1  0.64262576  0.93072913  0.37852975  1  0.000933  0  -0.064815  -0.079983  0  3.908413  0
C  C77  1  0.85737925  0.43075579  0.12146857  1  0.000808  0  -0.064775  -0.079842  0  3.908499  0
C  C78  1  0.35735485  0.06924920  0.62149536  1  0.000799  0  -0.064715  -0.07989  0  3.908269  0
C  C79  1  0.14264161  0.56924550  0.87850248  1  0.00046  0  -0.064694  -0.079794  0  3.908088  0
C  C80  1  0.42593098  0.03774150  0.29825057  1  1.554306  0  0.215936  0.578006  0  4.167714  0
C  C81  1  0.07407209  0.53776368  0.20174493  1  1.555231  0  0.216009  0.578083  0  4.168205  0
C  C82  1  0.57407233  0.96225692  0.70175515  1  1.554998  0  0.215882  0.577983  0  4.16803  0
C  C83  1  0.92593988  0.46224335  0.79823893  1  1.555601  0  0.216036  0.578187  0  4.168144  0
C  C84  1  0.67681760  0.24910683  0.55272543  1  1.566945  0  0.214498  0.583721  0  4.142742  0
C  C85  1  0.82316405  0.74912632  0.94727429  1  1.56632  0  0.214606  0.584078  0  4.142645  0
C  C86  1  0.32315719  0.75088298  0.44729145  1  1.566206  0  0.214318  0.583525  0  4.143103  0
C  C87  1  0.17684816  0.25087975  0.05270700  1  1.566425  0  0.214466  0.583705  0  4.143466  0
S  S88  1  0.85906057  0.78998198  0.46582860  1  3.16768  0  0.517406  1.165788  0  6.173929  0
S  S89  1  0.64094974  0.28999551  0.03416984  1  3.167614  0  0.517506  1.166039  0  6.173525  0
S  S90  1  0.14093184  0.21000783  0.53418782  1  3.167349  0  0.517426  1.165947  0  6.173644  0
S  S91  1  0.35904878  0.71001535  0.96581676  1  3.16738  0  0.517311  1.165707  0  6.17405  0
O  O92  1  0.34345630  0.13663491  0.28787993  1  -1.19442  0  -0.345694  -0.577405  0  2.271008  0
O  O93  1  0.15655390  0.63665452  0.21211362  1  -1.194689  0  -0.345759  -0.577543  0  2.271334  0
O  O94  1  0.65656778  0.86337787  0.71211528  1  -1.194372  0  -0.345673  -0.577506  0  2.271381  0
O  O95  1  0.84344971  0.36336112  0.78787727  1  -1.194413  0  -0.345711  -0.577451  0  2.27126  0
O  O96  1  0.39666917  0.94007802  0.25084448  1  -1.193557  0  -0.322677  -0.572002  0  2.315433  0
O  O97  1  0.10333933  0.44010113  0.24914716  1  -1.194201  0  -0.322649  -0.571955  0  2.315769  0
O  O98  1  0.60332899  0.05992135  0.74915758  1  -1.193911  0  -0.322632  -0.572071  0  2.315624  0
O  O99  1  0.89667421  0.55991165  0.75084329  1  -1.194568  0  -0.322639  -0.57209  0  2.315662  0
O  O100  1  0.61882416  0.35582599  0.52978555  1  -1.184873  0  -0.328968  -0.555144  0  2.208497  0
O  O101  1  0.88112946  0.85585745  0.97021642  1  -1.184762  0  -0.329095  -0.555313  0  2.208412  0
O  O102  1  0.38113308  0.64415330  0.47023114  1  -1.184622  0  -0.329007  -0.555233  0  2.208736  0
O  O103  1  0.11888208  0.14415054  0.02977192  1  -1.18462  0  -0.329037  -0.555204  0  2.208792  0
O  O104  1  0.73120453  0.23498137  0.63120488  1  -1.187072  0  -0.348312  -0.574836  0  2.335513  0
O  O105  1  0.76879608  0.73499702  0.86879633  1  -1.186752  0  -0.348334  -0.574836  0  2.335429  0
O  O106  1  0.26878710  0.76501705  0.36880824  1  -1.186563  0  -0.348111  -0.574446  0  2.335311  0
O  O107  1  0.23120366  0.26502053  0.13118908  1  -1.186621  0  -0.348211  -0.57461  0  2.335568  0
O  O108  1  0.94269998  0.80433648  0.54961958  1  -1.336466  0  -0.340215  -0.592419  0  2.159654  0
O  O109  1  0.55730274  0.30433882  0.95038293  1  -1.336436  0  -0.340244  -0.592471  0  2.159791  0
O  O110  1  0.05728020  0.19564472  0.45039839  1  -1.336349  0  -0.340349  -0.592515  0  2.159522  0
O  O111  1  0.44268919  0.69565865  0.04960376  1  -1.336336  0  -0.34019  -0.592292  0  2.159839  0
O  O112  1  0.75113110  0.68374191  0.46446436  1  -1.323288  0  -0.332418  -0.609896  0  2.253858  0
O  O113  1  0.74888947  0.18375939  0.03553420  1  -1.323177  0  -0.332444  -0.609871  0  2.253662  0
O  O114  1  0.24887372  0.31623928  0.53553696  1  -1.323104  0  -0.33235  -0.609901  0  2.253681  0
O  O115  1  0.25110730  0.81625147  0.96445935  1  -1.323051  0  -0.332418  -0.609862  0  2.253752  0
O  O116  1  0.94761857  0.77867717  0.39149082  1  -1.339563  0  -0.332324  -0.602662  0  2.229168  0
O  O117  1  0.55239412  0.27868349  0.10851162  1  -1.339392  0  -0.332321  -0.602707  0  2.228949  0
O  O118  1  0.05238353  0.22134039  0.60852771  1  -1.339658  0  -0.332228  -0.602597  0  2.229009  0
O  O119  1  0.44759472  0.72133598  0.89147288  1  -1.339475  0  -0.332233  -0.60258  0  2.228969  0
O  O120  1  0.18010912  0.85793610  0.11971978  1  -1.315351  0  -0.652742  -0.802853  0  2.174545  0
O  O121  1  0.31985035  0.35792091  0.38027232  1  -1.314975  0  -0.65296  -0.803161  0  2.174531  0
O  O122  1  0.81988589  0.14207955  0.88026910  1  -1.315043  0  -0.65281  -0.802972  0  2.174659  0
O  O123  1  0.68011433  0.64206890  0.61972369  1  -1.315513  0  -0.652764  -0.802926  0  2.174799  0
O  O124  1  0.03642546  0.19298256  0.25158125  1  -1.264372  0  -0.617415  -0.778603  0  2.06446  0
O  O125  1  0.46359623  0.69296324  0.24842399  1  -1.264613  0  -0.617356  -0.778536  0  2.064446  0
O  O126  1  0.96361006  0.80703117  0.74842073  1  -1.264592  0  -0.617377  -0.778588  0  2.064503  0
O  O127  1  0.53640544  0.30703519  0.75158740  1  -1.264378  0  -0.617382  -0.778663  0  2.064377  0
O  O128  1  0.39230010  0.05632426  0.09637117  1  -1.26183  0  -0.606672  -0.776217  0  2.119063  0
O  O129  1  0.10771426  0.55631170  0.40363057  1  -1.261908  0  -0.606735  -0.776437  0  2.118946  0
O  O130  1  0.60771768  0.94370191  0.90363254  1  -1.262366  0  -0.606822  -0.776582  0  2.118985  0
O  O131  1  0.89226247  0.44367715  0.59636582  1  -1.262355  0  -0.606755  -0.776574  0  2.119026  0
O  O132  1  0.93060194  0.00447944  0.12741780  1  -1.303387  0  -0.612002  -0.776876  0  2.051717  0
O  O133  1  0.56938689  0.50444444  0.37259299  1  -1.302457  0  -0.612075  -0.776851  0  2.051594  0
O  O134  1  0.06941772  0.99554099  0.87257767  1  -1.302598  0  -0.612077  -0.777043  0  2.051589  0
O  O135  1  0.43057761  0.49554346  0.62742818  1  -1.303112  0  -0.612102  -0.777033  0  2.051575  0
O  O136  1  0.10260709  0.93730955  0.28572766  1  -1.269105  0  -0.627409  -0.787285  0  2.1399  0
O  O137  1  0.39738729  0.43729865  0.21427246  1  -1.268715  0  -0.627461  -0.787384  0  2.139504  0
O  O138  1  0.89741668  0.06269079  0.71427075  1  -1.268813  0  -0.627399  -0.787161  0  2.139538  0
O  O139  1  0.60260125  0.56270360  0.78572686  1  -1.268589  0  -0.627452  -0.787356  0  2.139545  0
