# generated using pymatgen
data_Co2PH22C11NO6
_symmetry_space_group_name_H-M   'P 1'
_cell_length_a   6.19035540
_cell_length_b   8.56962780
_cell_length_c   14.86779005
_cell_angle_alpha   106.39221557
_cell_angle_beta   90.00067477
_cell_angle_gamma   89.99951469
_symmetry_Int_Tables_number   1
_chemical_formula_structural   Co2PH22C11NO6
_chemical_formula_sum   'Co4 P2 H44 C22 N2 O12'
_cell_volume   756.66229834
_cell_formula_units_Z   2
loop_
 _symmetry_equiv_pos_site_id
 _symmetry_equiv_pos_as_xyz
  1  'x, y, z'
loop_
 _atom_site_type_symbol
 _atom_site_label
 _atom_site_symmetry_multiplicity
 _atom_site_fract_x
 _atom_site_fract_y
 _atom_site_fract_z
 _atom_site_occupancy
 _atom_site_hle17_ddec_charge
 _atom_site_hle17_ddec_spin_density
 _atom_site_hle17_ddec_sum_bond_order
 _atom_site_hle17_magmom
 _atom_site_hse06_10hf_ddec_charge
 _atom_site_hse06_10hf_ddec_spin_density
 _atom_site_hse06_10hf_ddec_sum_bond_order
 _atom_site_hse06_10hf_magmom
 _atom_site_hse06_ddec_charge
 _atom_site_hse06_ddec_spin_density
 _atom_site_hse06_ddec_sum_bond_order
 _atom_site_hse06_magmom
 _atom_site_pbe_cm5_charge
 _atom_site_pbe_ddec_charge
 _atom_site_pbe_ddec_spin_density
 _atom_site_pbe_ddec_sum_bond_order
 _atom_site_pbe_magmom
Co  Co0  1  0.90152415  0.80778191  0.03663270  1  1.083084  2.741651  1.864817  2.544  1.063863  2.775768  2.261165  2.632  1.146754  2.841068  2.189022  2.712  0.653749  0.976677  2.690984  2.335221  2.539
Co  Co1  1  0.40152775  0.19221464  0.96336923  1  1.083018  -2.741625  1.864921  -2.544  1.063861  -2.775774  2.261282  -2.632  1.146741  -2.841063  2.189134  -2.712  0.653764  0.976657  -2.690955  2.335352  -2.539
Co  Co2  1  0.15676855  0.50380809  0.00807755  1  1.164874  2.808272  1.936134  2.601  1.141502  2.802963  2.327709  2.656  1.216908  2.859752  2.257136  2.731  0.631869  1.074194  2.711503  2.386556  2.553
Co  Co3  1  0.65676542  0.49618705  0.99192165  1  1.164977  -2.808322  1.935941  -2.601  1.14153  -2.802953  2.327516  -2.656  1.216973  -2.859752  2.256953  -2.731  0.631909  1.074283  -2.711533  2.386352  -2.553
P  P4  1  0.90694893  0.16004877  0.02017589  1  1.516365  0.000365  4.739674  0.003  1.377668  -0.001691  5.238158  0.0  1.432361  -0.000983  5.200711  0.0  0.356609  1.33699  -0.002645  5.26027  0.0
P  P5  1  0.40694888  0.83994775  0.97982607  1  1.516522  -0.000368  4.739454  -0.003  1.377881  0.001691  5.23791  0.0  1.432571  0.000985  5.20046  0.0  0.356706  1.337198  0.002645  5.260044  0.0
H  H6  1  0.09794893  0.14233787  0.15271205  1  0.124145  2e-05  0.95268  0.0  0.137954  -3.3e-05  1.013074  0.0  0.13922  -1e-06  1.013291  0.0  0.118748  0.136667  -5.3e-05  1.01365  0.0
H  H7  1  0.59793589  0.85764173  0.84728513  1  0.124083  -2.1e-05  0.952625  0.0  0.137877  3.3e-05  1.013078  0.0  0.139149  1e-06  1.01328  0.0  0.118709  0.136594  5.2e-05  1.013661  0.0
H  H8  1  0.86137019  0.26423150  0.18857661  1  0.120308  0.001681  0.941269  0.003  0.132004  0.001132  1.002668  0.002  0.133722  0.000739  1.002606  0.001  0.111482  0.130465  0.001376  1.002841  0.002
H  H9  1  0.36133737  0.73576283  0.81142681  1  0.12028  -0.001684  0.941211  -0.003  0.132007  -0.001132  1.002617  -0.002  0.133702  -0.000739  1.002578  -0.001  0.111519  0.130474  -0.001376  1.002791  -0.002
H  H10  1  0.75618139  0.87121419  0.24771995  1  0.053621  -0.000118  0.905491  0.0  0.068783  -0.000117  0.960235  0.0  0.069058  -0.00011  0.960613  0.0  0.110535  0.068253  -0.000116  0.960261  0.0
H  H11  1  0.25620384  0.12878779  0.75227945  1  0.053675  0.00012  0.905502  0.0  0.068823  0.000117  0.960269  0.0  0.069098  0.000111  0.960648  0.0  0.110503  0.068299  0.000116  0.960297  0.0
H  H12  1  0.12986460  0.80568602  0.18290762  1  0.111628  -1.9e-05  0.986116  0.0  0.127544  0.000372  1.055712  0.0  0.129169  0.000335  1.055172  0.0  0.090755  0.126597  0.000407  1.055783  0.0
H  H13  1  0.62987762  0.19431060  0.81709841  1  0.111545  2.1e-05  0.986238  0.0  0.12752  -0.000372  1.055747  0.0  0.129145  -0.000336  1.055211  0.0  0.090782  0.126578  -0.000407  1.055815  0.0
H  H14  1  0.13167207  0.86893884  0.30659965  1  0.104762  1e-05  0.966733  0.0  0.129508  0.000106  1.023665  0.0  0.130602  8.4e-05  1.024242  0.0  0.091012  0.128178  0.000126  1.02401  0.0
H  H15  1  0.63170484  0.13103962  0.69340759  1  0.104672  -1.5e-05  0.966653  0.0  0.129368  -0.000106  1.023695  0.0  0.130462  -8.4e-05  1.024273  0.0  0.090953  0.128041  -0.000126  1.024045  0.0
H  H16  1  0.21605086  0.00517965  0.24313854  1  0.099866  -9.8e-05  0.969553  0.0  0.120001  -0.000143  1.035191  0.0  0.121569  -0.000117  1.034706  0.0  0.086105  0.118679  -0.000159  1.036049  0.0
H  H17  1  0.71605950  0.99480960  0.75688088  1  0.09979  9.3e-05  0.969575  0.0  0.119893  0.000143  1.035254  0.0  0.121462  0.000117  1.034766  0.0  0.086066  0.118567  0.000159  1.036116  0.0
H  H18  1  0.94901697  0.21018552  0.33191869  1  0.044446  -0.00013  0.915046  0.0  0.064679  -7.9e-05  0.967305  0.0  0.064494  -6.8e-05  0.968671  0.0  0.092707  0.064737  -8.7e-05  0.966527  0.0
H  H19  1  0.44901170  0.78981314  0.66807842  1  0.044475  0.000127  0.915176  0.0  0.064713  7.9e-05  0.967399  0.0  0.064529  6.8e-05  0.968762  0.0  0.09271  0.064775  8.7e-05  0.966618  0.0
H  H20  1  0.47622399  0.10521995  0.32904766  1  0.05773  -6e-06  0.94952  0.0  0.079026  -1.7e-05  1.01014  0.0  0.079301  -1.6e-05  1.010763  0.0  0.086194  0.078723  -1.8e-05  1.009969  0.0
H  H21  1  0.97622644  0.89480282  0.67094863  1  0.057697  8e-06  0.949431  0.0  0.078978  1.7e-05  1.010049  0.0  0.079253  1.6e-05  1.010673  0.0  0.086152  0.07868  1.8e-05  1.009876  0.0
H  H22  1  0.58086899  0.23280604  0.26436517  1  0.066482  0.000108  0.95873  0.0  0.085155  0.000111  1.021259  0.0  0.085592  7.5e-05  1.022033  0.0  0.089905  0.084628  0.000143  1.021155  0.0
H  H23  1  0.08085947  0.76720625  0.73562693  1  0.066539  -0.00011  0.958771  0.0  0.085143  -0.000111  1.021359  0.0  0.085582  -7.5e-05  1.022126  0.0  0.089917  0.084615  -0.000143  1.021261  0.0
H  H24  1  0.68936451  0.43864032  0.41030516  1  0.062228  9e-06  0.930582  0.0  0.082799  1.7e-05  0.990728  0.0  0.083704  1e-05  0.990781  0.0  0.087568  0.08197  2.7e-05  0.990914  0.0
H  H25  1  0.18934665  0.56137636  0.58968747  1  0.062281  -1e-05  0.930729  0.0  0.08284  -1.7e-05  0.990832  0.0  0.083731  -1e-05  0.990904  0.0  0.087634  0.082015  -2.7e-05  0.991022  0.0
H  H26  1  0.41025800  0.39814507  0.41118733  1  0.055028  -1.4e-05  0.955547  0.0  0.07475  -2.7e-05  1.017691  0.0  0.074828  -2e-05  1.018996  0.0  0.085656  0.074585  -3.5e-05  1.01687  0.0
H  H27  1  0.91024524  0.60188148  0.58880251  1  0.05521  1.6e-05  0.955588  0.0  0.074943  2.7e-05  1.017629  0.0  0.075023  2e-05  1.018927  0.0  0.085737  0.074779  3.5e-05  1.016808  0.0
H  H28  1  0.58133274  0.40971937  0.56602972  1  0.05503  8e-06  0.952686  0.0  0.073427  2.2e-05  1.016716  0.0  0.07432  1.4e-05  1.016436  0.0  0.084683  0.072715  2.7e-05  1.016954  0.0
H  H29  1  0.08131974  0.59030872  0.43396417  1  0.055112  -1.4e-05  0.952651  0.0  0.073566  -2.1e-05  1.016669  0.0  0.074477  -1.4e-05  1.016363  0.0  0.084752  0.072827  -2.7e-05  1.016927  0.0
H  H30  1  0.46311044  0.21906432  0.51297416  1  0.058118  -1e-06  0.939184  0.0  0.079432  -0.0  0.997383  0.0  0.079875  -0.0  0.998252  0.0  0.085998  0.078952  -1e-06  0.997112  0.0
H  H31  1  0.96311855  0.78096336  0.48702217  1  0.058274  1e-06  0.939411  0.0  0.079597  1e-06  0.997661  0.0  0.080035  1e-06  0.998543  0.0  0.086051  0.07911  1e-06  0.997384  0.0
H  H32  1  0.82429923  0.17464188  0.57322116  1  0.052843  4.6e-05  0.952751  0.0  0.070436  3.9e-05  1.018456  0.0  0.0712  2.6e-05  1.01833  0.0  0.083783  0.069784  5.2e-05  1.01876  0.0
H  H33  1  0.32429950  0.82538047  0.42678107  1  0.052782  -5.5e-05  0.952744  0.0  0.070372  -3.8e-05  1.018502  0.0  0.071138  -2.5e-05  1.018374  0.0  0.083748  0.069703  -5.2e-05  1.018823  0.0
H  H34  1  0.94593686  0.30187607  0.51320036  1  0.059556  -1.1e-05  0.937095  0.0  0.080432  -6e-06  0.997394  0.0  0.080765  -4e-06  0.99827  0.0  0.087965  0.079975  -7e-06  0.997149  0.0
H  H35  1  0.44593547  0.69813357  0.48679912  1  0.059597  1.2e-05  0.936944  0.0  0.080485  6e-06  0.997284  0.0  0.08082  4e-06  0.998157  0.0  0.087988  0.080027  7e-06  0.997031  0.0
H  H36  1  0.72321268  0.97482503  0.42227693  1  0.062649  -2.7e-05  0.93159  0.0  0.082595  -1.2e-05  0.992752  0.0  0.083103  -1.1e-05  0.993409  0.0  0.088394  0.082057  -1.2e-05  0.992541  0.0
H  H37  1  0.22321187  0.02518691  0.57772790  1  0.062614  2.2e-05  0.931495  0.0  0.082561  1.3e-05  0.992664  0.0  0.083072  1.1e-05  0.993324  0.0  0.08842  0.082024  1.2e-05  0.992457  0.0
H  H38  1  0.00348893  0.01466218  0.42726801  1  0.060644  -2.6e-05  0.96515  0.0  0.079765  -1.2e-05  1.02678  0.0  0.080097  -1e-05  1.027786  0.0  0.087579  0.079501  -1.3e-05  1.026086  0.0
H  H39  1  0.50348913  0.98535560  0.57273803  1  0.060626  2.7e-05  0.965246  0.0  0.079725  1.2e-05  1.026883  0.0  0.080057  1e-05  1.02789  0.0  0.08753  0.079459  1.3e-05  1.026188  0.0
H  H40  1  0.12872460  0.53824277  0.22268308  1  0.145584  -0.00027  0.950292  0.0  0.164585  -0.0003  1.008805  0.0  0.167936  -0.00025  1.006698  0.0  0.100785  0.161915  -0.000372  1.01058  0.0
H  H41  1  0.62872373  0.46173183  0.77731346  1  0.145633  0.000259  0.95024  0.0  0.164615  0.0003  1.008767  0.0  0.167967  0.000251  1.006669  0.0  0.100819  0.161975  0.000372  1.010512  0.0
H  H42  1  0.31399634  0.55706038  0.31860304  1  0.128134  -0.00017  0.983599  0.0  0.145596  -0.000159  1.048335  0.0  0.147713  -0.000114  1.048273  0.0  0.095586  0.144283  -0.000204  1.048178  0.0
H  H43  1  0.81398807  0.44293280  0.68139324  1  0.128135  0.000166  0.98356  0.0  0.145623  0.00016  1.048292  0.0  0.147745  0.000114  1.048219  0.0  0.095587  0.144312  0.000205  1.048138  0.0
H  H44  1  0.27591759  0.36722864  0.23310612  1  0.137427  -1e-06  0.943707  0.0  0.158161  -8.6e-05  1.003401  0.0  0.160414  -6.1e-05  1.002794  0.0  0.101778  0.15661  -0.000109  1.004045  0.0
H  H45  1  0.77591125  0.63275526  0.76690199  1  0.137464  -7e-06  0.943711  0.0  0.158177  8.7e-05  1.003405  0.0  0.160421  6e-05  1.002808  0.0  0.101829  0.156632  0.000108  1.004049  0.0
H  H46  1  0.65629551  0.01214750  0.14395144  1  0.269334  -0.00053  0.909555  -0.001  0.263095  0.000151  0.963844  0.0  0.269318  5.2e-05  0.960167  0.0  0.297753  0.258092  0.000223  0.966807  0.0
H  H47  1  0.15629343  0.98785728  0.85604456  1  0.269269  0.000528  0.909584  0.001  0.26305  -0.00015  0.963862  0.0  0.269274  -5.2e-05  0.960185  0.0  0.297781  0.258049  -0.000223  0.96682  0.0
H  H48  1  0.83275702  0.59141935  0.14185110  1  0.414852  0.00139  0.897056  0.003  0.388487  0.001474  0.957447  0.004  0.402236  0.001246  0.93808  0.003  0.279986  0.378774  0.001566  0.970502  0.004
H  H49  1  0.33274381  0.40855191  0.85814455  1  0.414859  -0.001391  0.897069  -0.003  0.388503  -0.001473  0.957442  -0.004  0.402251  -0.001247  0.938078  -0.003  0.27998  0.378791  -0.001566  0.970499  -0.004
C  C50  1  0.92371229  0.15027140  0.14095198  1  -0.314154  -0.002022  3.656381  -0.005  -0.352488  -0.000866  3.915773  -0.002  -0.357226  -0.000877  3.925966  -0.002  -0.081351  -0.348702  -0.000775  3.907921  -0.002
C  C51  1  0.42369248  0.84972627  0.85905024  1  -0.31405  0.002027  3.65627  0.005  -0.352416  0.000864  3.915712  0.002  -0.357166  0.000878  3.925966  0.002  -0.081267  -0.348644  0.000775  3.907882  0.002
C  C52  1  0.86737796  0.97035952  0.24500558  1  0.164417  -0.00064  3.556853  -0.003  0.151902  0.00062  3.804801  -0.001  0.156508  0.000335  3.821215  -0.001  0.000735  0.148611  0.00078  3.792928  -0.001
C  C53  1  0.36738868  0.02964090  0.75500016  1  0.164079  0.000624  3.557072  0.003  0.151611  -0.00062  3.804978  0.001  0.156221  -0.000335  3.821392  0.001  0.000775  0.148325  -0.00078  3.79311  0.001
C  C54  1  0.09929638  0.90937628  0.24427592  1  -0.339604  0.000574  3.664139  0.001  -0.425691  0.001076  3.910048  0.001  -0.428483  0.000944  3.919103  0.001  -0.248435  -0.422984  0.00124  3.903726  0.001
C  C55  1  0.59931041  0.09061083  0.75573252  1  -0.339204  -0.000555  3.664053  -0.001  -0.42526  -0.001076  3.909961  -0.001  -0.428052  -0.000943  3.919014  -0.001  -0.248375  -0.422546  -0.00124  3.903634  -0.001
C  C56  1  0.82396974  0.11737233  0.33101028  1  -0.025604  0.002849  3.599665  0.004  -0.026304  0.001841  3.834411  0.003  -0.028133  0.00129  3.852698  0.002  -0.090313  -0.025054  0.002314  3.821901  0.003
C  C57  1  0.32397637  0.88262693  0.66898902  1  -0.025847  -0.002831  3.600001  -0.004  -0.026505  -0.001842  3.834662  -0.003  -0.028334  -0.00129  3.852947  -0.002  -0.090392  -0.02526  -0.002314  3.822154  -0.003
C  C58  1  0.60223239  0.19626339  0.32900051  1  -0.137721  -2.2e-05  3.672571  0.0  -0.183494  0.000108  3.932246  0.0  -0.184081  7.6e-05  3.946491  0.0  -0.169083  -0.183119  0.000131  3.922679  0.0
C  C59  1  0.10223513  0.80375621  0.67099754  1  -0.137554  1.3e-05  3.672491  0.0  -0.183304  -0.000108  3.932079  0.0  -0.183891  -7.5e-05  3.946321  0.0  -0.168984  -0.182927  -0.000131  3.922517  0.0
C  C60  1  0.57059324  0.34452220  0.41398973  1  -0.103466  -4.3e-05  3.696032  0.0  -0.143951  -2.8e-05  3.95976  0.0  -0.144963  -1.8e-05  3.974942  0.0  -0.168027  -0.142919  -3.1e-05  3.949118  0.0
C  C61  1  0.07057420  0.65549134  0.58600185  1  -0.103792  4.5e-05  3.696411  0.0  -0.144094  2.8e-05  3.959925  0.0  -0.145096  1.8e-05  3.975103  0.0  -0.16815  -0.143063  3.1e-05  3.949289  0.0
C  C62  1  0.59652871  0.30026614  0.50605705  1  -0.11153  1.9e-05  3.704823  0.0  -0.1513  2.9e-05  3.968063  0.0  -0.15222  2.1e-05  3.982992  0.0  -0.170193  -0.150457  3.6e-05  3.957748  0.0
C  C63  1  0.09650651  0.69975703  0.49393682  1  -0.111862  -9e-06  3.70517  0.0  -0.15185  -3e-05  3.96867  0.0  -0.152777  -2e-05  3.983583  0.0  -0.170413  -0.150983  -3.6e-05  3.958344  0.0
C  C64  1  0.81233430  0.21496663  0.50926689  1  -0.108277  0.000259  3.705913  0.0  -0.150394  0.000185  3.974821  0.0  -0.151023  0.000124  3.98941  0.0  -0.169104  -0.14977  0.000242  3.964811  0.0
C  C65  1  0.31234012  0.78506183  0.49073489  1  -0.108052  -0.000246  3.705521  0.0  -0.150234  -0.000185  3.974682  0.0  -0.150865  -0.000126  3.989274  0.0  -0.169038  -0.149598  -0.000242  3.964649  0.0
C  C66  1  0.84496205  0.06946297  0.42280610  1  -0.134477  0.000399  3.670469  0.001  -0.178021  0.000331  3.92919  0.0  -0.179232  0.00023  3.9442  0.0  -0.165294  -0.176898  0.000424  3.918705  0.001
C  C67  1  0.34496872  0.93054346  0.57719308  1  -0.13439  -0.000396  3.670592  -0.001  -0.177887  -0.000333  3.929319  0.0  -0.179105  -0.00023  3.944337  0.0  -0.165271  -0.176755  -0.000424  3.918824  -0.001
C  C68  1  0.46877727  0.53320093  0.18618240  1  0.765286  0.000456  3.78179  0.001  0.731688  9.9e-05  4.076585  0.001  0.767683  0.000252  4.067726  0.001  0.21804  0.705739  -0.000148  4.081301  0.0
C  C69  1  0.96878548  0.46676358  0.81380880  1  0.76563  -0.000455  3.782172  -0.001  0.732062  -0.0001  4.076897  -0.001  0.768058  -0.000255  4.068025  -0.001  0.218248  0.706116  0.000148  4.081632  0.0
C  C70  1  0.28406839  0.49944184  0.24422120  1  -0.4586  -0.002847  3.64022  -0.004  -0.538938  -0.001932  3.873048  -0.002  -0.546699  -0.001495  3.875403  -0.002  -0.245606  -0.532714  -0.002427  3.871032  -0.003
C  C71  1  0.78406000  0.50053935  0.75577576  1  -0.458705  0.002882  3.640161  0.004  -0.539045  0.001931  3.872966  0.002  -0.546804  0.001501  3.875325  0.002  -0.245675  -0.532842  0.002427  3.870926  0.003
N  N72  1  0.82029436  0.00266025  0.15289651  1  -0.411962  0.046576  3.281229  0.08  -0.373614  0.031641  3.55373  0.049  -0.401091  0.024593  3.565617  0.038  -0.476445  -0.350996  0.036496  3.544198  0.057
N  N73  1  0.32029353  0.99734027  0.84710432  1  -0.411758  -0.046567  3.281358  -0.08  -0.373511  -0.031636  3.554015  -0.049  -0.400982  -0.024594  3.565889  -0.038  -0.476494  -0.350894  -0.03649  3.544474  -0.057
O  O74  1  0.91498315  0.98631482  0.95612696  1  -0.842216  0.023127  1.937051  0.039  -0.785157  0.018899  2.205971  0.028  -0.81778  0.015926  2.184607  0.024  -0.362434  -0.756444  0.021442  2.218529  0.032
O  O75  1  0.41499612  0.01368777  0.04387665  1  -0.842245  -0.023129  1.936917  -0.039  -0.785237  -0.018902  2.205859  -0.028  -0.817858  -0.01593  2.184499  -0.024  -0.362482  -0.756505  -0.021447  2.218401  -0.032
O  O76  1  0.10797793  0.26384617  0.01183226  1  -0.877292  -0.01547  2.207022  -0.025  -0.822016  -0.011718  2.522747  -0.018  -0.867481  -0.00823  2.49909  -0.012  -0.375121  -0.78239  -0.014803  2.539068  -0.022
O  O77  1  0.60797035  0.73615050  0.98817166  1  -0.877375  0.015463  2.207023  0.025  -0.8221  0.011715  2.52273  0.018  -0.867577  0.008227  2.499098  0.012  -0.375192  -0.782489  0.0148  2.539071  0.022
O  O78  1  0.70308426  0.25555039  0.00503679  1  -0.869548  -0.062145  2.16284  -0.096  -0.813144  -0.053903  2.477297  -0.073  -0.855857  -0.044933  2.451212  -0.058  -0.371207  -0.776787  -0.061393  2.496263  -0.085
O  O79  1  0.20308250  0.74445683  0.99496990  1  -0.869613  0.06214  2.162858  0.096  -0.813178  0.053898  2.477236  0.073  -0.855885  0.044929  2.45114  0.058  -0.371149  -0.776803  0.061389  2.496178  0.085
O  O80  1  0.89633240  0.60211106  0.08156876  1  -0.989838  0.033992  2.079692  0.056  -0.975107  0.029414  2.38444  0.042  -1.035435  0.025155  2.350476  0.035  -0.573602  -0.915187  0.033002  2.403841  0.049
O  O81  1  0.39632591  0.39788069  0.91843442  1  -0.989899  -0.033988  2.079823  -0.056  -0.97515  -0.029415  2.384529  -0.042  -1.035468  -0.025154  2.350564  -0.035  -0.57359  -0.915233  -0.033001  2.403952  -0.049
O  O82  1  0.42442480  0.52993900  0.10029535  1  -0.702491  -0.005949  2.199383  -0.01  -0.670542  -0.004347  2.493449  -0.007  -0.711055  -0.003562  2.475747  -0.005  -0.32099  -0.635667  -0.004657  2.503771  -0.007
O  O83  1  0.92442738  0.47005989  0.89970774  1  -0.702769  0.005956  2.199241  0.01  -0.670859  0.004351  2.493311  0.007  -0.711381  0.003567  2.475607  0.005  -0.321098  -0.635973  0.004664  2.503637  0.007
O  O84  1  0.65560373  0.55878318  0.22070588  1  -0.611664  0.004594  1.864771  0.008  -0.564646  0.002915  2.06941  0.005  -0.587672  0.001894  2.058545  0.003  -0.318834  -0.548286  0.004067  2.076293  0.006
O  O85  1  0.15556526  0.44114526  0.77929165  1  -0.611722  -0.004595  1.865427  -0.008  -0.56472  -0.002914  2.070071  -0.005  -0.587735  -0.001899  2.059194  -0.003  -0.318916  -0.548366  -0.004065  2.076984  -0.006
