# generated using pymatgen
data_CuH6(C2O3)2
_symmetry_space_group_name_H-M   'P 1'
_cell_length_a   4.73883774
_cell_length_b   17.81645596
_cell_length_c   17.81775518
_cell_angle_alpha   88.97834991
_cell_angle_beta   82.35579349
_cell_angle_gamma   82.36688684
_symmetry_Int_Tables_number   1
_chemical_formula_structural   CuH6(C2O3)2
_chemical_formula_sum   'Cu8 H48 C32 O48'
_cell_volume   1477.76010931
_cell_formula_units_Z   8
loop_
 _symmetry_equiv_pos_site_id
 _symmetry_equiv_pos_as_xyz
  1  'x, y, z'
loop_
 _atom_site_type_symbol
 _atom_site_label
 _atom_site_symmetry_multiplicity
 _atom_site_fract_x
 _atom_site_fract_y
 _atom_site_fract_z
 _atom_site_occupancy
 _atom_site_pbe_bader_charge
 _atom_site_pbe_bader_spin_density
 _atom_site_pbe_cm5_charge
 _atom_site_pbe_ddec_charge
 _atom_site_pbe_ddec_spin_density
 _atom_site_pbe_ddec_sum_bond_order
 _atom_site_pbe_magmom
Cu  Cu0  1  0.00799182  0.03363619  0.26408143  1  1.149448  0.612674  0.718994  0.976343  0.758816  2.090335  0.613
Cu  Cu1  1  0.27193721  0.73587639  0.53362268  1  1.149304  0.612586  0.719238  0.976941  0.758772  2.090195  0.613
Cu  Cu2  1  0.80568643  0.46634897  0.23589564  1  1.146816  0.612684  0.719075  0.976824  0.759916  2.089315  0.613
Cu  Cu3  1  0.04164459  0.76411437  0.96638727  1  1.149582  0.612698  0.719083  0.977467  0.759925  2.089496  0.613
Cu  Cu4  1  0.99200356  0.96636296  0.73591903  1  1.149444  0.612674  0.71898  0.976305  0.758815  2.090361  0.613
Cu  Cu5  1  0.72806582  0.26412389  0.46637809  1  1.149298  0.612587  0.719239  0.976948  0.758775  2.090256  0.613
Cu  Cu6  1  0.19431950  0.53365187  0.76410408  1  1.146608  0.612678  0.719074  0.976783  0.759911  2.089339  0.613
Cu  Cu7  1  0.95835985  0.23588534  0.03361237  1  1.149586  0.612697  0.71907  0.977451  0.759924  2.089525  0.613
H  H8  1  0.66110361  0.93377956  0.07061938  1  0.143781  0.000222  0.115463  0.128582  9.7e-05  0.995965  0.0
H  H9  1  0.73152338  0.92939753  0.43375287  1  0.127094  0.00023  0.115343  0.127951  9.8e-05  0.99671  0.0
H  H10  1  0.16481026  0.56633433  0.42939632  1  0.119271  0.000229  0.115623  0.128027  9.6e-05  0.996547  0.0
H  H11  1  0.59462692  0.57056414  0.06630541  1  0.142826  0.00022  0.115444  0.128116  9.8e-05  0.996132  0.0
H  H12  1  0.33889729  0.06621902  0.92938011  1  0.143774  0.000222  0.115473  0.128584  9.7e-05  0.995988  0.0
H  H13  1  0.26847144  0.07060162  0.56624815  1  0.127068  0.00023  0.115337  0.12798  9.8e-05  0.996702  0.0
H  H14  1  0.83519595  0.43366595  0.57060340  1  0.119325  0.000229  0.115607  0.128019  9.6e-05  0.996536  0.0
H  H15  1  0.40536238  0.42943784  0.93369546  1  0.142816  0.00022  0.115428  0.128099  9.8e-05  0.996187  0.0
H  H16  1  0.17369248  0.95330837  0.97357306  1  0.069308  0.002741  0.105453  0.106232  0.001328  0.999742  0.002
H  H17  1  0.14724608  0.02657017  0.45334327  1  0.071362  0.00273  0.105582  0.106796  0.001325  0.998199  0.002
H  H18  1  0.60038317  0.54652930  0.52659973  1  0.050284  0.00276  0.105795  0.107643  0.001322  0.999059  0.002
H  H19  1  0.12701041  0.47344234  0.04660241  1  0.101564  0.002658  0.105847  0.106695  0.001325  0.998923  0.002
H  H20  1  0.82630814  0.04669077  0.02642644  1  0.069307  0.002741  0.105466  0.106277  0.001328  0.999768  0.002
H  H21  1  0.85275107  0.97342954  0.54665727  1  0.071384  0.00273  0.105573  0.106794  0.001325  0.99818  0.002
H  H22  1  0.39962063  0.45346985  0.47339872  1  0.050283  0.002759  0.105782  0.1076  0.001322  0.999053  0.002
H  H23  1  0.87298271  0.52655907  0.95339917  1  0.101331  0.002659  0.105861  0.106717  0.001325  0.998924  0.002
H  H24  1  0.20340329  0.91443580  0.35206431  1  0.662147  0.001013  0.290511  0.403265  0.001153  0.930688  0.002
H  H25  1  0.55530095  0.64796740  0.41441056  1  0.660806  0.001012  0.29045  0.40288  0.00115  0.931312  0.002
H  H26  1  0.97020550  0.58557748  0.14796808  1  0.660857  0.001015  0.290634  0.402866  0.001151  0.93129  0.002
H  H27  1  0.11806400  0.85206445  0.08560851  1  0.660971  0.001012  0.290576  0.403031  0.001151  0.93102  0.002
H  H28  1  0.79659591  0.08556278  0.64793687  1  0.662156  0.001013  0.290504  0.403251  0.001153  0.930721  0.002
H  H29  1  0.44470405  0.35203231  0.58558852  1  0.660814  0.001012  0.290466  0.402905  0.00115  0.931279  0.002
H  H30  1  0.02978847  0.41442450  0.85203239  1  0.660841  0.001015  0.290639  0.402889  0.00115  0.931265  0.002
H  H31  1  0.88193492  0.14793582  0.91439211  1  0.660981  0.001012  0.29059  0.403055  0.00115  0.930984  0.002
H  H32  1  0.39935121  0.91769305  0.27055579  1  0.608054  0.001108  0.330051  0.414668  0.000799  0.860399  0.001
H  H33  1  0.66983541  0.72945556  0.41772076  1  0.607295  0.001086  0.330392  0.414438  0.00079  0.860206  0.001
H  H34  1  0.08799607  0.58225322  0.22946144  1  0.616921  0.001079  0.330029  0.413399  0.000798  0.861181  0.001
H  H35  1  0.31732138  0.77057858  0.08232239  1  0.623306  0.00107  0.330148  0.414814  0.000793  0.860576  0.001
H  H36  1  0.60065154  0.08230666  0.72944554  1  0.608053  0.001107  0.330079  0.414692  0.000799  0.86037  0.001
H  H37  1  0.33016436  0.27054415  0.58227930  1  0.607296  0.001086  0.330379  0.414424  0.000791  0.860184  0.001
H  H38  1  0.91200518  0.41774763  0.77053869  1  0.616929  0.00108  0.330028  0.413408  0.000798  0.861189  0.001
H  H39  1  0.68268221  0.22942169  0.91767782  1  0.623319  0.00107  0.330161  0.414827  0.000793  0.860566  0.001
H  H40  1  0.72397934  0.12881546  0.17823961  1  0.664277  0.000668  0.30182  0.4075  0.000924  0.911415  0.002
H  H41  1  0.90241658  0.82164764  0.62886909  1  0.643536  0.000837  0.301729  0.407356  0.000921  0.911494  0.002
H  H42  1  0.53117874  0.37112607  0.32170908  1  0.661368  0.000701  0.301841  0.407449  0.000925  0.911559  0.002
H  H43  1  0.85303647  0.67833653  0.87113863  1  0.670105  0.000634  0.302438  0.408818  0.000923  0.90967  0.002
H  H44  1  0.27602248  0.87118425  0.82176052  1  0.664275  0.000668  0.301804  0.407504  0.000924  0.911413  0.002
H  H45  1  0.09758319  0.17835207  0.37113096  1  0.643504  0.000837  0.301732  0.407349  0.000921  0.911499  0.002
H  H46  1  0.46882280  0.62887421  0.67829106  1  0.661364  0.000702  0.301864  0.407473  0.000925  0.91152  0.002
H  H47  1  0.14696768  0.32166375  0.12886101  1  0.67009  0.000634  0.30245  0.408842  0.000923  0.909642  0.002
H  H48  1  0.58372937  0.12382951  0.26566414  1  0.654851  0.000458  0.295137  0.386226  0.000805  0.948945  0.0
H  H49  1  0.84937363  0.73424873  0.62388549  1  0.651567  0.000456  0.295061  0.385908  0.000805  0.949281  0.0
H  H50  1  0.47309321  0.37612525  0.23432037  1  0.647913  0.000457  0.295052  0.385988  0.000806  0.94914  0.0
H  H51  1  0.70740876  0.76572771  0.87618829  1  0.655924  0.000443  0.294764  0.38603  0.00081  0.949095  0.0
H  H52  1  0.41627039  0.87617020  0.73433591  1  0.654855  0.000458  0.295126  0.386219  0.000805  0.948957  0.0
H  H53  1  0.15062352  0.26575098  0.37611505  1  0.651578  0.000456  0.295054  0.385887  0.000805  0.949318  0.0
H  H54  1  0.52690805  0.62387559  0.76567977  1  0.647881  0.000457  0.295029  0.38595  0.000806  0.949184  0.0
H  H55  1  0.29259539  0.23427256  0.12381136  1  0.655917  0.000443  0.294745  0.386028  0.00081  0.949094  0.0
C  C56  1  0.24999804  0.97680032  0.12208955  1  1.522253  -7.4e-05  0.211365  0.597116  -0.000952  4.16323  -0.002
C  C57  1  0.37192347  0.87791933  0.47677038  1  1.543683  -9.9e-05  0.211967  0.598618  -0.00095  4.169896  -0.002
C  C58  1  0.84845761  0.52321586  0.37793113  1  1.553558  -0.00012  0.211747  0.598817  -0.000947  4.167697  -0.002
C  C59  1  0.22677180  0.62206390  0.02322023  1  1.540671  -0.000114  0.212471  0.59989  -0.000956  4.16515  -0.002
C  C60  1  0.74999613  0.02319826  0.87791028  1  1.522137  -7.4e-05  0.211339  0.59712  -0.000953  4.163313  -0.002
C  C61  1  0.62807220  0.12207925  0.52323008  1  1.543736  -0.0001  0.212012  0.598799  -0.00095  4.169619  -0.002
C  C62  1  0.15155178  0.47678442  0.62206755  1  1.553611  -0.00012  0.211557  0.598462  -0.000946  4.167938  -0.002
C  C63  1  0.77321863  0.37793694  0.97678008  1  1.540756  -0.000114  0.212433  0.599899  -0.000956  4.165264  -0.002
C  C64  1  0.48027245  0.97336585  0.05492992  1  -0.016515  0.009447  -0.082133  -0.144006  0.006689  3.777696  0.007
C  C65  1  0.53502722  0.94507590  0.47335366  1  -0.014045  0.009482  -0.082136  -0.144586  0.006694  3.779017  0.007
C  C66  1  0.00814618  0.52666085  0.44508321  1  0.004739  0.009479  -0.081941  -0.141817  0.006699  3.780097  0.007
C  C67  1  0.45352627  0.55490618  0.02666069  1  -0.028178  0.009492  -0.081785  -0.143903  0.006691  3.777692  0.007
C  C68  1  0.51972293  0.02663329  0.94507054  1  -0.016897  0.009448  -0.08218  -0.144112  0.00669  3.7778  0.007
C  C69  1  0.46497050  0.05492268  0.52664688  1  -0.014286  0.009482  -0.082132  -0.144665  0.006694  3.779046  0.007
C  C70  1  0.99186116  0.47333943  0.55491539  1  0.004544  0.009479  -0.081931  -0.141745  0.006699  3.780077  0.007
C  C71  1  0.54646303  0.44509466  0.97334075  1  -0.028309  0.009492  -0.081712  -0.143868  0.006691  3.777731  0.007
C  C72  1  0.40320701  0.95272476  0.97659010  1  -0.003774  0.011547  -0.085003  -0.145081  0.007957  3.750185  0.008
C  C73  1  0.37982895  0.02347476  0.45274261  1  0.012514  0.01151  -0.085424  -0.144918  0.007965  3.748369  0.008
C  C74  1  0.83230249  0.54719543  0.52349026  1  0.023206  0.011474  -0.085934  -0.149463  0.007965  3.753894  0.008
C  C75  1  0.35586408  0.47651323  0.04724149  1  -0.019525  0.01157  -0.085917  -0.145892  0.00796  3.749682  0.008
C  C76  1  0.59679332  0.04727382  0.02340996  1  -0.00429  0.011548  -0.085056  -0.14529  0.007957  3.750423  0.008
C  C77  1  0.62016849  0.97652439  0.54725793  1  0.012466  0.011511  -0.085451  -0.14494  0.007966  3.748275  0.008
C  C78  1  0.16770223  0.45280597  0.47650827  1  0.023175  0.011475  -0.085898  -0.149329  0.007965  3.753815  0.008
C  C79  1  0.64412698  0.52348818  0.95276002  1  -0.019173  0.011569  -0.08598  -0.146006  0.00796  3.749784  0.008
C  C80  1  0.56151641  0.87856631  0.94447260  1  1.562137  0.001719  0.221263  0.620937  0.001027  4.132393  0.0
C  C81  1  0.50613816  0.05556782  0.37854456  1  1.558792  0.001704  0.221769  0.621857  0.001016  4.130071  0.0
C  C82  1  0.88429810  0.62139923  0.55556731  1  1.542698  0.001777  0.221189  0.622165  0.001021  4.130146  0.0
C  C83  1  0.43983066  0.44442078  0.12144608  1  1.552137  0.00177  0.221279  0.622534  0.001019  4.132307  0.0
C  C84  1  0.43848392  0.12143340  0.05552689  1  1.56216  0.001719  0.22125  0.621003  0.001026  4.132276  0.0
C  C85  1  0.49385983  0.94443133  0.62145542  1  1.558803  0.001704  0.221853  0.622016  0.001016  4.130091  0.0
C  C86  1  0.11569905  0.37860162  0.44443267  1  1.542668  0.001777  0.221215  0.622225  0.00102  4.129977  0.0
C  C87  1  0.56016422  0.55558119  0.87855558  1  1.55214  0.00177  0.221311  0.6226  0.001019  4.132321  0.0
O  O88  1  0.06905092  0.93039869  0.12894822  1  -1.168171  0.00523  -0.31395  -0.557917  0.002526  2.202403  0.004
O  O89  1  0.19775296  0.87108697  0.43038544  1  -1.178182  0.005243  -0.314277  -0.558378  0.00254  2.207486  0.005
O  O90  1  0.62798776  0.56960762  0.37108288  1  -1.181817  0.005226  -0.314141  -0.558292  0.002526  2.205137  0.004
O  O91  1  0.99950991  0.62891720  0.06964282  1  -1.18049  0.005236  -0.314351  -0.558827  0.00253  2.205184  0.005
O  O92  1  0.93094176  0.06959988  0.87105097  1  -1.168072  0.005231  -0.313926  -0.557896  0.002526  2.20236  0.004
O  O93  1  0.80224850  0.12891161  0.56961349  1  -1.178163  0.005243  -0.314352  -0.558503  0.00254  2.207408  0.005
O  O94  1  0.37201986  0.43039322  0.62891516  1  -1.181866  0.005225  -0.314018  -0.558107  0.002526  2.205195  0.004
O  O95  1  0.00048306  0.37108308  0.93035525  1  -1.18051  0.005237  -0.314366  -0.558867  0.00253  2.20523  0.005
O  O96  1  0.26618543  0.02748136  0.17142459  1  -1.104825  0.102704  -0.325577  -0.544547  0.06321  2.375104  0.092
O  O97  1  0.43746204  0.82855705  0.52743237  1  -1.10787  0.102729  -0.325206  -0.545318  0.063344  2.377529  0.092
O  O98  1  0.96481147  0.47255760  0.32859250  1  -1.109927  0.102727  -0.325393  -0.545768  0.063305  2.375176  0.092
O  O99  1  0.29356764  0.67141561  0.97253551  1  -1.102865  0.102714  -0.326047  -0.546671  0.063181  2.375385  0.092
O  O100  1  0.73381406  0.97251665  0.82857659  1  -1.104729  0.102704  -0.325583  -0.544534  0.063209  2.375237  0.092
O  O101  1  0.56253547  0.17144380  0.47256937  1  -1.107874  0.102734  -0.325171  -0.54533  0.063347  2.377426  0.092
O  O102  1  0.03519466  0.52744211  0.67140546  1  -1.109828  0.102727  -0.325339  -0.545635  0.063304  2.375201  0.092
O  O103  1  0.70643241  0.32858466  0.02746399  1  -1.102857  0.102709  -0.326017  -0.546659  0.063178  2.375419  0.092
O  O104  1  0.45129602  0.83842859  0.90096801  1  -1.191136  0.003712  -0.301971  -0.581637  0.00141  2.278778  0.003
O  O105  1  0.35251802  0.09909565  0.33840122  1  -1.192783  0.003693  -0.302832  -0.582494  0.00141  2.278511  0.003
O  O106  1  0.69052418  0.66155413  0.59907295  1  -1.185066  0.003686  -0.302051  -0.581664  0.001398  2.278912  0.003
O  O107  1  0.28941424  0.40094014  0.16161332  1  -1.189326  0.003683  -0.301724  -0.582409  0.001395  2.279208  0.003
O  O108  1  0.54870432  0.16156999  0.09903205  1  -1.191114  0.003712  -0.301958  -0.581628  0.00141  2.278797  0.003
O  O109  1  0.64748755  0.90090406  0.66159731  1  -1.192822  0.003693  -0.30289  -0.582586  0.00141  2.278565  0.003
O  O110  1  0.30947325  0.33844615  0.40092702  1  -1.185005  0.003687  -0.302053  -0.581722  0.001399  2.278865  0.003
O  O111  1  0.71057832  0.59906241  0.83838827  1  -1.189282  0.003684  -0.301703  -0.582377  0.001395  2.279244  0.003
O  O112  1  0.80708941  0.86041151  0.96735055  1  -1.131594  0.086914  -0.330427  -0.555815  0.053698  2.42092  0.078
O  O113  1  0.77456133  0.03263628  0.36038256  1  -1.138983  0.086953  -0.329972  -0.555795  0.053742  2.419567  0.078
O  O114  1  0.13457646  0.63957874  0.53264456  1  -1.134263  0.086922  -0.33027  -0.556352  0.053738  2.418474  0.078
O  O115  1  0.66717145  0.46733875  0.13962437  1  -1.133758  0.086888  -0.330599  -0.55648  0.053624  2.419573  0.078
O  O116  1  0.19290944  0.13958820  0.03264831  1  -1.131621  0.08692  -0.33042  -0.555817  0.053702  2.420799  0.078
O  O117  1  0.22543667  0.96736287  0.63961741  1  -1.139027  0.086952  -0.329975  -0.555837  0.053742  2.419576  0.078
O  O118  1  0.86542684  0.36042096  0.46735621  1  -1.13428  0.086916  -0.330298  -0.556361  0.053735  2.418433  0.078
O  O119  1  0.33282456  0.53266323  0.86037617  1  -1.133593  0.086894  -0.33062  -0.556507  0.053626  2.419584  0.078
O  O120  1  0.20907106  0.93344381  0.29744063  1  -1.205451  0.060758  -0.579891  -0.780981  0.038344  2.162701  0.053
O  O121  1  0.50624765  0.70260360  0.43337049  1  -1.20362  0.06085  -0.580281  -0.780275  0.038481  2.162673  0.053
O  O122  1  0.94018752  0.56656328  0.20259475  1  -1.213366  0.060761  -0.58007  -0.779112  0.038339  2.163904  0.053
O  O123  1  0.14268504  0.79743906  0.06661043  1  -1.220169  0.060715  -0.579949  -0.78095  0.038381  2.162794  0.053
O  O124  1  0.79093020  0.06655590  0.70256007  1  -1.205462  0.060757  -0.57992  -0.780991  0.038343  2.162712  0.053
O  O125  1  0.49375651  0.29739555  0.56662972  1  -1.203628  0.060852  -0.580262  -0.780274  0.038482  2.162666  0.053
O  O126  1  0.05981374  0.43343757  0.79740538  1  -1.213351  0.060761  -0.580081  -0.779136  0.03834  2.163906  0.053
O  O127  1  0.85731650  0.20256122  0.93338971  1  -1.220181  0.060716  -0.579962  -0.78096  0.038382  2.162767  0.053
O  O128  1  0.77006803  0.12432531  0.23115919  1  -1.214825  0.099178  -0.571486  -0.731346  0.061651  2.150564  0.086
O  O129  1  0.00130152  0.76872038  0.62439600  1  -1.190173  0.099025  -0.570944  -0.73017  0.061427  2.149769  0.086
O  O130  1  0.62552822  0.37563569  0.26877436  1  -1.204665  0.09916  -0.571349  -0.73093  0.061496  2.150579  0.086
O  O131  1  0.89432622  0.73127737  0.87568171  1  -1.220982  0.099247  -0.571563  -0.732341  0.061586  2.148973  0.086
O  O132  1  0.22993202  0.87567384  0.76884086  1  -1.214828  0.099179  -0.571457  -0.73132  0.061651  2.150538  0.086
O  O133  1  0.99869796  0.23127877  0.37560461  1  -1.190173  0.099023  -0.570931  -0.730143  0.061425  2.149833  0.086
O  O134  1  0.37447417  0.62436402  0.73122521  1  -1.204674  0.099157  -0.571346  -0.730916  0.061494  2.150614  0.086
O  O135  1  0.10567793  0.26872290  0.12431794  1  -1.220958  0.099244  -0.571554  -0.732374  0.061585  2.148982  0.086
