# generated using pymatgen
data_Zn2H36C29N2O9
_symmetry_space_group_name_H-M   'P 1'
_cell_length_a   5.40219205
_cell_length_b   13.47952082
_cell_length_c   21.51838897
_cell_angle_alpha   94.33349231
_cell_angle_beta   98.61684093
_cell_angle_gamma   88.24200168
_symmetry_Int_Tables_number   1
_chemical_formula_structural   Zn2H36C29N2O9
_chemical_formula_sum   'Zn4 H72 C58 N4 O18'
_cell_volume   1544.53270094
_cell_formula_units_Z   2
loop_
 _symmetry_equiv_pos_site_id
 _symmetry_equiv_pos_as_xyz
  1  'x, y, z'
loop_
 _atom_site_type_symbol
 _atom_site_label
 _atom_site_symmetry_multiplicity
 _atom_site_fract_x
 _atom_site_fract_y
 _atom_site_fract_z
 _atom_site_occupancy
 _atom_site_pbe_bader_charge
 _atom_site_pbe_bader_spin_density
 _atom_site_pbe_cm5_charge
 _atom_site_pbe_ddec_charge
 _atom_site_pbe_ddec_spin_density
 _atom_site_pbe_ddec_sum_bond_order
 _atom_site_pbe_magmom
Zn  Zn0  1  0.68242706  0.14076992  0.03154896  1  1.270738  0  0.695397  0.863744  0  2.296252  0
Zn  Zn1  1  0.31757456  0.85922798  0.96845871  1  1.270947  0  0.695404  0.863808  0  2.296171  0
Zn  Zn2  1  0.70021729  0.87411253  0.48219271  1  1.304651  0  0.712623  0.880654  0  2.31849  0
Zn  Zn3  1  0.29979319  0.12588893  0.51780289  1  1.304757  0  0.712579  0.880551  0  2.318379  0
H  H4  1  0.25834773  0.07366879  0.97934978  1  0.653282  0  0.297219  0.391485  0  0.949991  0
H  H5  1  0.74165599  0.92633429  0.02065636  1  0.653429  0  0.297201  0.391481  0  0.950027  0
H  H6  1  0.23151580  0.11040544  0.05181155  1  0.656154  0  0.292764  0.383535  0  0.96603  0
H  H7  1  0.76849716  0.88959524  0.94819525  1  0.656158  0  0.292751  0.383487  0  0.96609  0
H  H8  1  0.92027710  0.95844672  0.19665776  1  0.037559  0  0.105436  0.092906  0  0.969382  0
H  H9  1  0.07971865  0.04155203  0.80334465  1  0.037542  0  0.105427  0.092895  0  0.969479  0
H  H10  1  0.79610537  0.83618007  0.11013808  1  0.065347  0  0.109477  0.105129  0  0.965075  0
H  H11  1  0.20387376  0.16381899  0.88986750  1  0.065305  0  0.109544  0.105072  0  0.964985  0
H  H12  1  0.00481155  0.68653251  0.15721483  1  0.015189  0  0.088242  0.085091  0  1.010156  0
H  H13  1  0.99513030  0.31346498  0.84279451  1  0.015379  0  0.088238  0.085081  0  1.010198  0
H  H14  1  0.89984853  0.77449324  0.21401843  1  -0.008265  0  0.083548  0.075044  0  1.011017  0
H  H15  1  0.10012009  0.22551419  0.78599044  1  -0.008027  0  0.083642  0.075225  0  1.011016  0
H  H16  1  0.43724842  0.74343499  0.18557409  1  -0.000479  0  0.086885  0.082211  0  0.99864  0
H  H17  1  0.56271132  0.25655399  0.81443035  1  -0.000455  0  0.08692  0.082282  0  0.998701  0
H  H18  1  0.32572167  0.71271542  0.25483641  1  -0.011977  0  0.077328  0.06103  0  1.04066  0
H  H19  1  0.67423455  0.28727586  0.74516941  1  -0.011863  0  0.077284  0.060952  0  1.040555  0
H  H20  1  0.24095561  0.89042659  0.28372075  1  0.004162  0  0.0816  0.073485  0  1.01679  0
H  H21  1  0.75904181  0.10956543  0.71628511  1  0.004246  0  0.081595  0.073426  0  1.01697  0
H  H22  1  0.55576501  0.87421546  0.27227544  1  0.025325  0  0.079798  0.067197  0  1.024781  0
H  H23  1  0.44422816  0.12577144  0.72772725  1  0.025319  0  0.079833  0.067255  0  1.02479  0
H  H24  1  0.45264208  0.93658349  0.16425626  1  0.028272  0  0.09107  0.096434  0  0.996898  0
H  H25  1  0.54735700  0.06340628  0.83574862  1  0.028162  0  0.091047  0.096386  0  0.996797  0
H  H26  1  0.35285499  0.02368887  0.22097553  1  0.033776  0  0.086108  0.079843  0  1.01872  0
H  H27  1  0.64714040  0.97630171  0.77902926  1  0.033948  0  0.086108  0.079802  0  1.018833  0
H  H28  1  0.45855943  0.75041566  0.58118647  1  0.08653  0  0.103956  0.097822  0  0.985093  0
H  H29  1  0.54145093  0.24958357  0.41880948  1  0.086952  0  0.103972  0.09787  0  0.985021  0
H  H30  1  0.52264483  0.87698085  0.66770345  1  0.040581  0  0.105152  0.093807  0  0.961424  0
H  H31  1  0.47737485  0.12301747  0.33229278  1  0.040619  0  0.105126  0.093715  0  0.96155  0
H  H32  1  0.17752226  0.99114395  0.69586034  1  0.039938  0  0.083413  0.074639  0  1.021327  0
H  H33  1  0.82249580  0.00886184  0.30413247  1  0.039785  0  0.083339  0.074609  0  1.021427  0
H  H34  1  0.95806707  0.92052979  0.64284242  1  0.053301  0  0.089754  0.096484  0  1.008863  0
H  H35  1  0.04195095  0.07947452  0.35715124  1  0.054086  0  0.08969  0.096443  0  1.008939  0
H  H36  1  0.29379937  0.84682306  0.75948085  1  0.01025  0  0.081804  0.071043  0  1.00678  0
H  H37  1  0.70620591  0.15318445  0.24051532  1  0.010625  0  0.081825  0.071069  0  1.006794  0
H  H38  1  0.96772663  0.86805892  0.75262180  1  0.007616  0  0.084618  0.081196  0  1.012615  0
H  H39  1  0.03227859  0.13195082  0.24737123  1  0.007186  0  0.084693  0.081297  0  1.012422  0
H  H40  1  0.89429849  0.73267480  0.66685951  1  0.049149  0  0.086438  0.085358  0  1.00853  0
H  H41  1  0.10570866  0.26733268  0.33313673  1  0.049166  0  0.086385  0.08527  0  1.00856  0
H  H42  1  0.07218414  0.68742501  0.73509056  1  -0.009896  0  0.075055  0.058655  0  1.045946  0
H  H43  1  0.92781744  0.31258331  0.26490552  1  -0.010161  0  0.075091  0.058702  0  1.046054  0
H  H44  1  0.24145481  0.62710359  0.63528071  1  0.046405  0  0.085798  0.083748  0  0.9977  0
H  H45  1  0.75855416  0.37290013  0.36471866  1  0.046563  0  0.085811  0.083791  0  0.997628  0
H  H46  1  0.46410221  0.69932397  0.68755812  1  -0.00075  0  0.080977  0.066524  0  1.017373  0
H  H47  1  0.53590308  0.30068206  0.31243984  1  -0.00073  0  0.081002  0.066536  0  1.017291  0
H  H48  1  0.42751524  0.20741265  0.13642150  1  0.161216  0  0.123789  0.105117  0  1.027795  0
H  H49  1  0.57248644  0.79259046  0.86358178  1  0.161105  0  0.123794  0.105097  0  1.027797  0
H  H50  1  0.40656977  0.35787538  0.20962932  1  0.087711  0  0.109374  0.113352  0  1.004075  0
H  H51  1  0.59342627  0.64213378  0.79036708  1  0.087685  0  0.109346  0.113344  0  1.003988  0
H  H52  1  0.97756964  0.48621560  0.12146025  1  0.071436  0  0.116506  0.131241  0  0.978805  0
H  H53  1  0.02243526  0.51378448  0.87853742  1  0.071498  0  0.11651  0.131246  0  0.97883  0
H  H54  1  0.96779024  0.33129294  0.04923774  1  0.147297  0  0.125492  0.107923  0  0.988941  0
H  H55  1  0.03223518  0.66869932  0.95076723  1  0.147405  0  0.125531  0.107999  0  0.989006  0
H  H56  1  0.51567832  0.52062844  0.24068183  1  0.044673  0  0.095643  0.091728  0  0.993599  0
H  H57  1  0.48431933  0.47937995  0.75931087  1  0.044561  0  0.095672  0.091772  0  0.99354  0
H  H58  1  0.64545299  0.59204886  0.18862388  1  0.065318  0  0.104294  0.109034  0  0.986454  0
H  H59  1  0.35454647  0.40795652  0.81137107  1  0.065462  0  0.104281  0.108974  0  0.98643  0
H  H60  1  0.97815080  0.47467814  0.28713762  1  0.046497  0  0.092259  0.088827  0  1.004224  0
H  H61  1  0.02182611  0.52532244  0.71286051  1  0.046954  0  0.092237  0.088808  0  1.004307  0
H  H62  1  0.06611044  0.57068766  0.24355275  1  0.026045  0  0.089776  0.08206  0  1.017316  0
H  H63  1  0.93389285  0.42931468  0.75644683  1  0.026076  0  0.089791  0.082105  0  1.017238  0
H  H64  1  0.71943355  0.67882715  0.29363551  1  0.029299  0  0.096061  0.093176  0  1.018306  0
H  H65  1  0.28056422  0.32117603  0.70636485  1  0.029378  0  0.096067  0.093155  0  1.018244  0
H  H66  1  0.72961968  0.58543061  0.34656863  1  0.052517  0  0.09796  0.097537  0  0.997984  0
H  H67  1  0.27038177  0.41457325  0.65343003  1  0.05257  0  0.097963  0.097558  0  0.998064  0
H  H68  1  0.88682249  0.82120292  0.34111169  1  0.101261  0  0.108436  0.112333  0  1.029949  0
H  H69  1  0.11318101  0.17879793  0.65889294  1  0.101178  0  0.108446  0.112393  0  1.029936  0
H  H70  1  0.22996551  0.91235268  0.40859685  1  0.169845  0  0.1239  0.100116  0  1.014341  0
H  H71  1  0.77004692  0.08764652  0.59140242  1  0.170174  0  0.123885  0.100092  0  1.014327  0
H  H72  1  0.60598705  0.65090598  0.45802831  1  0.149351  0  0.12145  0.099316  0  1.000947  0
H  H73  1  0.39401970  0.34909704  0.54196584  1  0.149361  0  0.121469  0.099278  0  1.000937  0
H  H74  1  0.27340893  0.54653144  0.39140045  1  0.113075  0  0.115363  0.129936  0  0.974712  0
H  H75  1  0.72659235  0.45347093  0.60859674  1  0.113028  0  0.115361  0.129953  0  0.974717  0
C  C76  1  0.99505540  0.02447300  0.11672094  1  1.560513  0  0.220156  0.612936  0  4.124348  0
C  C77  1  0.00494750  0.97552042  0.88328145  1  1.56009  0  0.220181  0.612933  0  4.124324  0
C  C78  1  0.05298480  0.94312350  0.16237672  1  0.005782  0  -0.085684  -0.125125  0  3.859341  0
C  C79  1  0.94701064  0.05687005  0.83762589  1  0.006694  0  -0.085602  -0.125252  0  3.859369  0
C  C80  1  0.99465713  0.83765954  0.13168759  1  -0.012156  0  -0.086781  -0.12678  0  3.832618  0
C  C81  1  0.00531976  0.16233434  0.86831720  1  -0.01271  0  -0.086926  -0.12651  0  3.831984  0
C  C82  1  0.03800252  0.76078123  0.18129091  1  0.029191  0  -0.167843  -0.158677  0  3.930429  0
C  C83  1  0.96196162  0.23921586  0.81871638  1  0.029131  0  -0.167875  -0.15889  0  3.930552  0
C  C84  1  0.30291964  0.76619658  0.21810178  1  0.006296  0  -0.173842  -0.152558  0  3.95349  0
C  C85  1  0.69704970  0.23379521  0.78190404  1  0.006234  0  -0.173824  -0.152461  0  3.953351  0
C  C86  1  0.36202214  0.87120169  0.24749431  1  -0.028667  0  -0.172165  -0.141365  0  3.948208  0
C  C87  1  0.63796768  0.12879047  0.75250944  1  -0.028729  0  -0.172272  -0.141561  0  3.948381  0
C  C88  1  0.31971481  0.94849184  0.19836202  1  -0.038693  0  -0.170472  -0.164604  0  3.92344  0
C  C89  1  0.68027867  0.05149951  0.80164135  1  -0.03888  0  -0.170461  -0.164446  0  3.923187  0
C  C90  1  0.13822733  0.80880981  0.07626141  1  1.566393  0  0.199136  0.5882  0  4.166372  0
C  C91  1  0.86173799  0.19117907  0.92374275  1  1.566311  0  0.199304  0.588334  0  4.166213  0
C  C92  1  0.06355476  0.76818208  0.55513161  1  1.550974  0  0.199953  0.58732  0  4.150955  0
C  C93  1  0.93645937  0.23181708  0.44486493  1  1.550914  0  0.19986  0.587027  0  4.151195  0
C  C94  1  0.29780236  0.77299322  0.60560422  1  -0.03162  0  -0.086727  -0.126427  0  3.815491  0
C  C95  1  0.70220995  0.22700673  0.39439230  1  -0.031928  0  -0.086676  -0.126366  0  3.815632  0
C  C96  1  0.34276226  0.88059657  0.63557566  1  0.031368  0  -0.085021  -0.125308  0  3.842636  0
C  C97  1  0.65725934  0.11940395  0.36441934  1  0.031185  0  -0.085058  -0.125266  0  3.843108  0
C  C98  1  0.13743646  0.91553837  0.67450526  1  -0.074746  0  -0.171941  -0.166457  0  3.925182  0
C  C99  1  0.86258345  0.08446665  0.32548804  1  -0.075341  0  -0.171812  -0.166464  0  3.925548  0
C  C100  1  0.11889109  0.84407859  0.72549456  1  -0.008025  0  -0.171566  -0.143837  0  3.942985  0
C  C101  1  0.88111976  0.15592956  0.27450044  1  -0.008085  0  -0.171625  -0.143862  0  3.943014  0
C  C102  1  0.07742411  0.73730522  0.69721118  1  -0.028557  0  -0.175437  -0.152235  0  3.954239  0
C  C103  1  0.92258119  0.26270229  0.30278546  1  -0.028107  0  -0.175477  -0.152269  0  3.954508  0
C  C104  1  0.28038231  0.70235514  0.65734186  1  -0.032453  0  -0.167825  -0.154609  0  3.940628  0
C  C105  1  0.71962470  0.29764862  0.34265605  1  -0.032944  0  -0.167815  -0.154616  0  3.940475  0
C  C106  1  0.39054281  0.95283887  0.58789118  1  1.550389  0  0.228971  0.635827  0  4.107326  0
C  C107  1  0.60948239  0.04715935  0.41210383  1  1.550849  0  0.229123  0.636022  0  4.107701  0
C  C108  1  0.54670084  0.27071690  0.13459086  1  0.436854  0  0.053403  0.10063  0  3.918315  0
C  C109  1  0.45330073  0.72928622  0.86541055  1  0.437164  0  0.053387  0.100637  0  3.918328  0
C  C110  1  0.53665756  0.35492052  0.17535929  1  -0.070694  0  -0.08162  -0.181569  0  3.956301  0
C  C111  1  0.46334404  0.64508557  0.82463948  1  -0.070982  0  -0.081631  -0.181518  0  3.956105  0
C  C112  1  0.69200493  0.43504292  0.17235654  1  -0.013889  0  0.016889  0.169107  0  3.948805  0
C  C113  1  0.30799831  0.56496091  0.82764078  1  -0.013316  0  0.016897  0.169009  0  3.94875  0
C  C114  1  0.85409899  0.42595978  0.12697280  1  0.019116  0  -0.079017  -0.183572  0  3.919135  0
C  C115  1  0.14590791  0.57404100  0.87302636  1  0.018837  0  -0.07898  -0.183447  0  3.919113  0
C  C116  1  0.85275114  0.34006804  0.08689087  1  0.469943  0  0.059527  0.109588  0  3.92596  0
C  C117  1  0.14726326  0.65992963  0.91311165  1  0.470099  0  0.059428  0.109362  0  3.926108  0
C  C118  1  0.67929359  0.52620267  0.21626596  1  -0.040044  0  -0.154457  -0.202526  0  3.93898  0
C  C119  1  0.32070782  0.47380342  0.78372955  1  -0.040816  0  -0.154499  -0.2025  0  3.938886  0
C  C120  1  0.91285743  0.54435277  0.26604367  1  -0.021672  0  -0.159142  -0.138555  0  3.915184  0
C  C121  1  0.08713823  0.45564971  0.73395333  1  -0.021872  0  -0.159145  -0.138615  0  3.915203  0
C  C122  1  0.84324033  0.62205894  0.31682900  1  -0.014556  0  -0.155745  -0.205118  0  3.950741  0
C  C123  1  0.15675718  0.37794276  0.68316849  1  -0.014665  0  -0.155748  -0.205112  0  3.950824  0
C  C124  1  0.05345424  0.67546566  0.35834146  1  0.008465  0  0.017633  0.172892  0  3.931467  0
C  C125  1  0.94654329  0.32453455  0.64165782  1  0.008455  0  0.017587  0.172851  0  3.931438  0
C  C126  1  0.04448610  0.77943226  0.36483841  1  -0.009877  0  -0.081461  -0.184858  0  3.942678  0
C  C127  1  0.95551711  0.22056710  0.63516288  1  -0.009823  0  -0.08149  -0.184953  0  3.942662  0
C  C128  1  0.23560731  0.83134738  0.40241970  1  0.413667  0  0.057015  0.122304  0  3.92672  0
C  C129  1  0.76439767  0.16865270  0.59757936  1  0.41345  0  0.057051  0.122359  0  3.926512  0
C  C130  1  0.44396702  0.68408287  0.42974629  1  0.556929  0  0.052006  0.099421  0  3.938438  0
C  C131  1  0.55603792  0.31591943  0.57024962  1  0.556858  0  0.051988  0.099394  0  3.938357  0
C  C132  1  0.25819065  0.62753569  0.39275002  1  -0.11716  0  -0.081189  -0.183155  0  3.918332  0
C  C133  1  0.74180881  0.37246671  0.60724803  1  -0.117151  0  -0.081128  -0.183075  0  3.918287  0
N  N134  1  0.70148693  0.26368955  0.09071564  1  -1.243769  0  -0.33175  -0.239595  0  3.602747  0
N  N135  1  0.29852580  0.73630964  0.90928875  1  -1.243856  0  -0.331715  -0.239541  0  3.602603  0
N  N136  1  0.43498135  0.78449157  0.43354780  1  -1.324208  0  -0.334605  -0.255439  0  3.602265  0
N  N137  1  0.56502734  0.21550993  0.56644913  1  -1.324142  0  -0.334598  -0.255385  0  3.60206  0
O  O138  1  0.31035194  0.12525089  0.01419256  1  -1.274993  0  -0.577707  -0.75131  0  2.198339  0
O  O139  1  0.68965175  0.87475218  0.98581311  1  -1.275169  0  -0.577673  -0.7513  0  2.198366  0
O  O140  1  0.78341036  0.01887122  0.07889808  1  -1.197108  0  -0.32735  -0.576408  0  2.361923  0
O  O141  1  0.21659074  0.98112371  0.92110386  1  -1.197248  0  -0.327412  -0.576446  0  2.361903  0
O  O142  1  0.13943353  0.09651435  0.11907364  1  -1.196771  0  -0.317392  -0.570356  0  2.249553  0
O  O143  1  0.86056763  0.90347984  0.88093013  1  -1.196808  0  -0.317392  -0.570357  0  2.249536  0
O  O144  1  0.20816275  0.88495842  0.04945114  1  -1.169926  0  -0.337483  -0.562656  0  2.36967  0
O  O145  1  0.79182849  0.11502554  0.95055366  1  -1.17017  0  -0.337655  -0.562718  0  2.36947  0
O  O146  1  0.17189428  0.72025032  0.05840838  1  -1.18006  0  -0.34036  -0.565792  0  2.088861  0
O  O147  1  0.82805395  0.27973291  0.94159725  1  -1.179785  0  -0.340281  -0.565824  0  2.089101  0
O  O148  1  0.03926928  0.84373670  0.52016131  1  -1.172178  0  -0.330651  -0.560185  0  2.381542  0
O  O149  1  0.96074268  0.15625953  0.47983316  1  -1.172123  0  -0.33066  -0.560062  0  2.381495  0
O  O150  1  0.91406666  0.69824551  0.54930914  1  -1.172293  0  -0.337621  -0.570127  0  2.099434  0
O  O151  1  0.08595117  0.30175210  0.45068839  1  -1.172365  0  -0.337555  -0.569983  0  2.099572  0
O  O152  1  0.25800640  0.03265077  0.58337982  1  -1.167412  0  -0.310407  -0.537456  0  2.347824  0
O  O153  1  0.74201106  0.96734535  0.41661297  1  -1.167291  0  -0.310523  -0.53757  0  2.347976  0
O  O154  1  0.57860125  0.93510852  0.55906060  1  -1.226955  0  -0.336176  -0.600301  0  2.439805  0
O  O155  1  0.42143369  0.06489325  0.44093724  1  -1.227143  0  -0.336172  -0.600362  0  2.440069  0
