# generated using pymatgen
data_CdH28C40(NO4)2
_symmetry_space_group_name_H-M   'P 1'
_cell_length_a   9.56554062
_cell_length_b   12.21654809
_cell_length_c   28.79152637
_cell_angle_alpha   90.00011049
_cell_angle_beta   90.00009657
_cell_angle_gamma   90.00003717
_symmetry_Int_Tables_number   1
_chemical_formula_structural   CdH28C40(NO4)2
_chemical_formula_sum   'Cd4 H112 C160 N8 O32'
_cell_volume   3364.51693468
_cell_formula_units_Z   4
loop_
 _symmetry_equiv_pos_site_id
 _symmetry_equiv_pos_as_xyz
  1  'x, y, z'
loop_
 _atom_site_type_symbol
 _atom_site_label
 _atom_site_symmetry_multiplicity
 _atom_site_fract_x
 _atom_site_fract_y
 _atom_site_fract_z
 _atom_site_occupancy
 _atom_site_pbe_bader_charge
 _atom_site_pbe_bader_spin_density
 _atom_site_pbe_cm5_charge
 _atom_site_pbe_ddec_charge
 _atom_site_pbe_ddec_spin_density
 _atom_site_pbe_ddec_sum_bond_order
 _atom_site_pbe_magmom
Cd  Cd0  1  0.49833504  0.15183901  0.97305247  1  1.266058  0  0.774853  0.883834  0  2.205447  0
Cd  Cd1  1  0.49833712  0.84815876  0.02694939  1  1.266012  0  0.774857  0.883876  0  2.205402  0
Cd  Cd2  1  0.99833926  0.84816564  0.47305162  1  1.265989  0  0.774865  0.883838  0  2.205447  0
Cd  Cd3  1  0.99833179  0.15184222  0.52694913  1  1.266039  0  0.774835  0.883828  0  2.205436  0
H  H4  1  0.24681345  0.50097836  0.91674465  1  0.079402  0  0.102781  0.103673  0  1.018619  0
H  H5  1  0.24681553  0.49901192  0.08325289  1  0.079292  0  0.102756  0.103554  0  1.018684  0
H  H6  1  0.74681320  0.49901117  0.41674838  1  0.079232  0  0.102739  0.103527  0  1.01867  0
H  H7  1  0.74680630  0.50098264  0.58325570  1  0.079387  0  0.102733  0.103608  0  1.018649  0
H  H8  1  0.19692070  0.63195873  0.85098507  1  0.084532  0  0.09909  0.112656  0  1.048307  0
H  H9  1  0.19692196  0.36803070  0.14901280  1  0.08438  0  0.099143  0.112713  0  1.048119  0
H  H10  1  0.69692348  0.36803211  0.35098730  1  0.084435  0  0.099121  0.112678  0  1.048122  0
H  H11  1  0.69691807  0.63196577  0.64901572  1  0.084404  0  0.09916  0.11276  0  1.048105  0
H  H12  1  0.42944044  0.42377702  0.75808306  1  0.065704  0  0.091801  0.099528  0  1.059938  0
H  H13  1  0.42942665  0.57621990  0.24191598  1  0.065713  0  0.091858  0.099618  0  1.059817  0
H  H14  1  0.92943293  0.57622497  0.25808720  1  0.065818  0  0.091855  0.099605  0  1.059873  0
H  H15  1  0.92944245  0.42378448  0.74191664  1  0.065808  0  0.091799  0.099539  0  1.059925  0
H  H16  1  0.47502501  0.29409653  0.82394407  1  0.135774  0  0.101868  0.111729  0  1.038096  0
H  H17  1  0.47501518  0.70590124  0.17605535  1  0.135759  0  0.101915  0.111863  0  1.037954  0
H  H18  1  0.97501866  0.70590088  0.32394970  1  0.135785  0  0.101891  0.111841  0  1.037976  0
H  H19  1  0.97502460  0.29410123  0.67605590  1  0.135743  0  0.101871  0.111753  0  1.03799  0
H  H20  1  0.26313715  0.51830357  0.70727956  1  0.053894  0  0.100465  0.073772  0  0.980386  0
H  H21  1  0.26313086  0.48169409  0.29271765  1  0.053933  0  0.100459  0.073774  0  0.980398  0
H  H22  1  0.76314420  0.48169729  0.20728536  1  0.053775  0  0.100465  0.073799  0  0.980507  0
H  H23  1  0.76313419  0.51830471  0.79271769  1  0.053923  0  0.10046  0.073775  0  0.980393  0
H  H24  1  0.42510296  0.58737470  0.71791680  1  0.047496  0  0.100492  0.069234  0  0.998126  0
H  H25  1  0.42509761  0.41262631  0.28208189  1  0.047597  0  0.100491  0.069241  0  0.998106  0
H  H26  1  0.92510577  0.41262629  0.21792219  1  0.047443  0  0.100485  0.069211  0  0.998147  0
H  H27  1  0.92510204  0.58737252  0.78208443  1  0.047496  0  0.100506  0.069245  0  0.998136  0
H  H28  1  0.29698376  0.96737473  0.68337377  1  0.072547  0  0.095074  0.091645  0  1.052953  0
H  H29  1  0.29698037  0.03262376  0.31662485  1  0.072539  0  0.095073  0.091649  0  1.052908  0
H  H30  1  0.79699463  0.03262686  0.18337746  1  0.072478  0  0.095071  0.091677  0  1.052852  0
H  H31  1  0.79698825  0.96737598  0.81662353  1  0.072502  0  0.095085  0.091665  0  1.052908  0
H  H32  1  0.08162205  0.94537572  0.63608374  1  0.095863  0  0.103106  0.109226  0  1.025076  0
H  H33  1  0.08162309  0.05462266  0.36391684  1  0.095847  0  0.103107  0.109217  0  1.025061  0
H  H34  1  0.58163189  0.05462227  0.13608641  1  0.095999  0  0.103107  0.109187  0  1.024959  0
H  H35  1  0.58162259  0.94538128  0.86391376  1  0.095864  0  0.103092  0.109164  0  1.02504  0
H  H36  1  0.97776785  0.76024753  0.62540022  1  0.083451  0  0.096609  0.095322  0  1.026179  0
H  H37  1  0.97777118  0.23975132  0.37460087  1  0.083436  0  0.096626  0.095305  0  1.026173  0
H  H38  1  0.47777372  0.23974980  0.12540380  1  0.083617  0  0.096579  0.095323  0  1.02605  0
H  H39  1  0.47776955  0.76025206  0.87459805  1  0.083524  0  0.096547  0.095273  0  1.026097  0
H  H40  1  0.08791645  0.59908156  0.66336628  1  0.070113  0  0.095415  0.095374  0  1.034871  0
H  H41  1  0.08791659  0.40091764  0.33663326  1  0.070145  0  0.0954  0.095327  0  1.034851  0
H  H42  1  0.58791821  0.40091574  0.16337062  1  0.069906  0  0.095412  0.095364  0  1.034811  0
H  H43  1  0.58791790  0.59908536  0.83663442  1  0.070162  0  0.095388  0.095365  0  1.034829  0
H  H44  1  0.40992369  0.82572037  0.76741027  1  0.115164  0  0.113423  0.100084  0  0.970809  0
H  H45  1  0.40992626  0.17428391  0.23258876  1  0.115152  0  0.11345  0.10008  0  0.970786  0
H  H46  1  0.90993363  0.17428494  0.26741303  1  0.115195  0  0.113454  0.100106  0  0.970726  0
H  H47  1  0.90992357  0.82571305  0.73258940  1  0.115238  0  0.11345  0.100089  0  0.970763  0
H  H48  1  0.51046258  0.74079043  0.73039694  1  0.096019  0  0.102306  0.069471  0  1.01629  0
H  H49  1  0.51046644  0.25920653  0.26960492  1  0.095984  0  0.102293  0.069439  0  1.016305  0
H  H50  1  0.01047474  0.25921205  0.23039811  1  0.095987  0  0.102289  0.069483  0  1.016271  0
H  H51  1  0.01046480  0.74078630  0.76960382  1  0.095948  0  0.102259  0.069438  0  1.016314  0
H  H52  1  0.51469214  0.75896805  0.64940611  1  0.047614  0  0.101102  0.111195  0  1.038462  0
H  H53  1  0.51469014  0.24102646  0.35059055  1  0.047915  0  0.101107  0.111169  0  1.038456  0
H  H54  1  0.01469698  0.24103242  0.14940830  1  0.047515  0  0.101132  0.111233  0  1.038419  0
H  H55  1  0.01469582  0.75896756  0.85059259  1  0.047493  0  0.101124  0.111199  0  1.038436  0
H  H56  1  0.70682332  0.05281375  0.70208040  1  0.07762  0  0.099325  0.10772  0  1.036028  0
H  H57  1  0.70682684  0.94718086  0.29791914  1  0.077536  0  0.09931  0.107696  0  1.035953  0
H  H58  1  0.20682977  0.94718624  0.20208004  1  0.077601  0  0.099355  0.107759  0  1.035958  0
H  H59  1  0.20683091  0.05281138  0.79791853  1  0.077601  0  0.099334  0.107714  0  1.035988  0
H  H60  1  0.66444200  0.77003325  0.57944911  1  0.08671  0  0.100357  0.102189  0  1.033344  0
H  H61  1  0.66443825  0.22996380  0.42054902  1  0.086766  0  0.100356  0.10216  0  1.033273  0
H  H62  1  0.16444160  0.22996617  0.07944921  1  0.086727  0  0.100366  0.102183  0  1.0333  0
H  H63  1  0.16444394  0.77003307  0.92055003  1  0.086738  0  0.100365  0.102183  0  1.03332  0
H  H64  1  0.85869015  0.06250949  0.63158297  1  0.139733  0  0.107166  0.12581  0  1.026033  0
H  H65  1  0.85869298  0.93748847  0.36841666  1  0.139582  0  0.107149  0.125756  0  1.026052  0
H  H66  1  0.35869136  0.93749026  0.13158225  1  0.139728  0  0.107162  0.125791  0  1.026062  0
H  H67  1  0.35869287  0.06250908  0.86841675  1  0.139673  0  0.107166  0.125787  0  1.026042  0
H  H68  1  0.44198259  0.37015878  0.03889436  1  0.083045  0  0.122838  0.099015  0  0.978496  0
H  H69  1  0.44198188  0.62984470  0.96110538  1  0.083071  0  0.122851  0.099069  0  0.97842  0
H  H70  1  0.94197974  0.62985206  0.53889380  1  0.083054  0  0.122824  0.099004  0  0.978462  0
H  H71  1  0.94198362  0.37015905  0.46110588  1  0.083097  0  0.122855  0.099028  0  0.978463  0
H  H72  1  0.57734049  0.52096418  0.07812162  1  0.144463  0  0.109072  0.119842  0  1.021792  0
H  H73  1  0.57733528  0.47903936  0.92187646  1  0.144233  0  0.109093  0.11989  0  1.021773  0
H  H74  1  0.07733236  0.47904336  0.57812031  1  0.144359  0  0.10901  0.119735  0  1.021736  0
H  H75  1  0.07734139  0.52096074  0.42187505  1  0.144264  0  0.109069  0.119769  0  1.021691  0
H  H76  1  0.83655740  0.52133177  0.07228804  1  0.104412  0  0.103086  0.100285  0  1.030129  0
H  H77  1  0.83655222  0.47867109  0.92770880  1  0.104443  0  0.103094  0.100245  0  1.03019  0
H  H78  1  0.33655031  0.47866688  0.57228707  1  0.104549  0  0.103101  0.100251  0  1.030184  0
H  H79  1  0.33655937  0.52133245  0.42771122  1  0.104388  0  0.103135  0.100356  0  1.030087  0
H  H80  1  0.05447184  0.43568209  0.03869769  1  0.070161  0  0.103608  0.106972  0  1.008573  0
H  H81  1  0.05447213  0.56431627  0.96130010  1  0.070074  0  0.103593  0.106928  0  1.008589  0
H  H82  1  0.55447103  0.56431380  0.53869569  1  0.070147  0  0.103589  0.106887  0  1.008664  0
H  H83  1  0.55447288  0.43568646  0.46130620  1  0.070146  0  0.103578  0.106874  0  1.008697  0
H  H84  1  0.16534821  0.29029952  0.99091116  1  0.165281  0  0.108589  0.134492  0  1.032089  0
H  H85  1  0.16534904  0.70969563  0.00908843  1  0.165411  0  0.10859  0.134491  0  1.032144  0
H  H86  1  0.66535127  0.70970258  0.49091228  1  0.165239  0  0.108594  0.134512  0  1.032037  0
H  H87  1  0.66534905  0.29030510  0.50909141  1  0.165429  0  0.108588  0.134476  0  1.032077  0
H  H88  1  0.14142361  0.11834085  0.94476903  1  0.083674  0  0.114451  0.122598  0  0.989086  0
H  H89  1  0.14143108  0.88165510  0.05523123  1  0.083988  0  0.114452  0.122661  0  0.989071  0
H  H90  1  0.64142890  0.88166349  0.44477133  1  0.083604  0  0.114475  0.12271  0  0.989041  0
H  H91  1  0.64142468  0.11834419  0.55523443  1  0.083999  0  0.114442  0.122606  0  0.98908  0
H  H92  1  0.98529358  0.97314874  0.91119099  1  0.096396  0  0.10177  0.109595  0  1.050603  0
H  H93  1  0.98530262  0.02685092  0.08880801  1  0.09632  0  0.101759  0.109556  0  1.050602  0
H  H94  1  0.48529824  0.02684989  0.41119023  1  0.096297  0  0.101787  0.109632  0  1.050572  0
H  H95  1  0.48529280  0.97314870  0.58880780  1  0.096429  0  0.10176  0.109575  0  1.050592  0
H  H96  1  0.72684613  0.98287814  0.92700981  1  0.123291  0  0.118213  0.094086  0  1.011692  0
H  H97  1  0.72685717  0.01712303  0.07298870  1  0.12303  0  0.118226  0.094067  0  1.011684  0
H  H98  1  0.22685287  0.01712125  0.42700869  1  0.122999  0  0.118215  0.094064  0  1.011668  0
H  H99  1  0.22684632  0.98288212  0.57299023  1  0.12274  0  0.118217  0.094101  0  1.011731  0
H  H100  1  0.35032085  0.10486773  0.74273742  1  0.088509  0  0.115506  0.132536  0  1.003178  0
H  H101  1  0.35031263  0.89513324  0.25726366  1  0.088219  0  0.115475  0.132442  0  1.003278  0
H  H102  1  0.85031674  0.89513825  0.24273313  1  0.08831  0  0.115538  0.132519  0  1.003248  0
H  H103  1  0.85031876  0.10486380  0.75726267  1  0.088239  0  0.115497  0.132466  0  1.003189  0
H  H104  1  0.58389055  0.18643176  0.74697488  1  0.136251  0  0.109508  0.106498  0  1.031829  0
H  H105  1  0.58387597  0.81355869  0.25302078  1  0.136265  0  0.109457  0.106376  0  1.031965  0
H  H106  1  0.08387703  0.81355527  0.24697615  1  0.136416  0  0.109426  0.106386  0  1.031828  0
H  H107  1  0.08388014  0.18644229  0.75302131  1  0.136265  0  0.109511  0.106483  0  1.03191  0
H  H108  1  0.66625590  0.32358742  0.68892211  1  0.107208  0  0.102317  0.09914  0  1.049729  0
H  H109  1  0.66624568  0.67641126  0.31107532  1  0.1073  0  0.102298  0.099074  0  1.049718  0
H  H110  1  0.16623600  0.67640185  0.18892223  1  0.107633  0  0.10229  0.099091  0  1.049677  0
H  H111  1  0.16624474  0.32359493  0.81107562  1  0.107559  0  0.102295  0.099099  0  1.0497  0
H  H112  1  0.51447135  0.38757339  0.62522072  1  0.100524  0  0.109347  0.125893  0  1.011091  0
H  H113  1  0.51446976  0.61242930  0.37477976  1  0.100608  0  0.109363  0.125935  0  1.011106  0
H  H114  1  0.01445349  0.61242042  0.12521904  1  0.100791  0  0.109421  0.12597  0  1.011082  0
H  H115  1  0.01446574  0.38757137  0.87478011  1  0.10058  0  0.109374  0.125943  0  1.011082  0
C  C116  1  0.38519028  0.31197983  0.91335994  1  1.55077  0  0.183651  0.545372  0  4.272224  0
C  C117  1  0.38518416  0.68801543  0.08663908  1  1.550679  0  0.183719  0.545577  0  4.272005  0
C  C118  1  0.88517868  0.68801549  0.41336486  1  1.54989  0  0.183584  0.545209  0  4.272398  0
C  C119  1  0.88518419  0.31198494  0.58663965  1  1.550764  0  0.183665  0.545424  0  4.272154  0
C  C120  1  0.36068036  0.38886724  0.87370663  1  0.021356  0  -0.031174  -0.057946  0  3.998602  0
C  C121  1  0.36066811  0.61112964  0.12629237  1  0.020935  0  -0.031232  -0.058119  0  3.998815  0
C  C122  1  0.86067183  0.61112706  0.37371045  1  0.020755  0  -0.031156  -0.057844  0  3.998694  0
C  C123  1  0.86067656  0.38887418  0.62629231  1  0.021195  0  -0.031261  -0.058038  0  3.99865  0
C  C124  1  0.28384419  0.48505317  0.88156556  1  -0.021514  0  -0.087382  -0.084342  0  4.022272  0
C  C125  1  0.28383601  0.51494204  0.11843271  1  -0.021569  0  -0.087333  -0.084151  0  4.02236  0
C  C126  1  0.78383768  0.51494195  0.38156895  1  -0.021139  0  -0.087362  -0.084169  0  4.022224  0
C  C127  1  0.78383827  0.48505761  0.61843515  1  -0.021787  0  -0.08728  -0.084199  0  4.022444  0
C  C128  1  0.25617711  0.55699075  0.84562028  1  -0.102044  0  -0.109821  -0.207926  0  4.003905  0
C  C129  1  0.25617428  0.44300199  0.15437797  1  -0.101882  0  -0.109899  -0.208011  0  4.00364  0
C  C130  1  0.75617577  0.44300419  0.34562292  1  -0.102164  0  -0.109895  -0.208034  0  4.003584  0
C  C131  1  0.75617660  0.55699699  0.65437978  1  -0.101842  0  -0.10996  -0.208127  0  4.003931  0
C  C132  1  0.30702513  0.53481337  0.80081370  1  0.46237  0  0.081138  0.258289  0  4.080045  0
C  C133  1  0.30701418  0.46518349  0.19918492  1  0.462432  0  0.081174  0.258388  0  4.079995  0
C  C134  1  0.80701859  0.46518467  0.30081774  1  0.462374  0  0.081189  0.258374  0  4.080033  0
C  C135  1  0.80702694  0.53481981  0.69918568  1  0.462357  0  0.081192  0.258419  0  4.080071  0
C  C136  1  0.38784330  0.44087930  0.79254215  1  -0.04881  0  -0.122328  -0.249251  0  4.032767  0
C  C137  1  0.38782828  0.55911841  0.20745582  1  -0.048628  0  -0.122413  -0.249411  0  4.03302  0
C  C138  1  0.88783683  0.55911874  0.29254593  1  -0.048648  0  -0.122307  -0.249227  0  4.032888  0
C  C139  1  0.88784410  0.44088579  0.70745650  1  -0.048868  0  -0.122307  -0.249283  0  4.03293  0
C  C140  1  0.41351154  0.36829997  0.82921542  1  -0.115993  0  -0.087583  -0.077082  0  3.983522  0
C  C141  1  0.41350058  0.63169612  0.17078396  1  -0.115726  0  -0.087562  -0.077147  0  3.983698  0
C  C142  1  0.91350722  0.63169579  0.32921995  1  -0.115778  0  -0.087575  -0.077252  0  3.983806  0
C  C143  1  0.91351320  0.36830711  0.67078457  1  -0.115746  0  -0.087532  -0.077068  0  3.983478  0
C  C144  1  0.31029085  0.59468198  0.72038520  1  0.387506  0  -0.061925  -0.013264  0  3.922083  0
C  C145  1  0.31028652  0.40531652  0.27961342  1  0.387447  0  -0.06199  -0.013342  0  3.922195  0
C  C146  1  0.81029366  0.40531651  0.22038920  1  0.387691  0  -0.062017  -0.013387  0  3.922376  0
C  C147  1  0.81028992  0.59468388  0.77961457  1  0.387465  0  -0.062003  -0.013324  0  3.922143  0
C  C148  1  0.25400859  0.69215870  0.69480131  1  -0.012242  0  -0.024267  0.016689  0  3.975455  0
C  C149  1  0.25400849  0.30783976  0.30519763  1  -0.012218  0  -0.024314  0.016628  0  3.975596  0
C  C150  1  0.75401550  0.30784128  0.19480453  1  0.034179  0  -0.02427  0.016681  0  3.975546  0
C  C151  1  0.75401301  0.69215990  0.80519921  1  -0.012253  0  -0.024196  0.016777  0  3.975467  0
C  C152  1  0.31379303  0.79685443  0.70071283  1  -0.042871  0  -0.015926  0.028559  0  3.943149  0
C  C153  1  0.31379282  0.20314407  0.29928649  1  -0.042858  0  -0.01598  0.028399  0  3.943147  0
C  C154  1  0.81380300  0.20314725  0.20071562  1  -0.089417  0  -0.015946  0.028532  0  3.94301  0
C  C155  1  0.81379952  0.79685478  0.79928815  1  -0.042867  0  -0.015968  0.028522  0  3.943143  0
C  C156  1  0.25083682  0.88659903  0.67903668  1  -0.014968  0  -0.096288  -0.128605  0  3.985966  0
C  C157  1  0.25083561  0.11340026  0.32096226  1  -0.015014  0  -0.096256  -0.128569  0  3.985841  0
C  C158  1  0.75084462  0.11340252  0.17903939  1  -0.014556  0  -0.096302  -0.128806  0  3.985972  0
C  C159  1  0.75084133  0.88659948  0.82096295  1  -0.015042  0  -0.096315  -0.12879  0  3.98608  0
C  C160  1  0.13033651  0.87428285  0.65225862  1  -0.062127  0  -0.088085  -0.07068  0  3.986524  0
C  C161  1  0.13033752  0.12571719  0.34774129  1  -0.062125  0  -0.088082  -0.070607  0  3.986502  0
C  C162  1  0.63034641  0.12571769  0.15226204  1  -0.062273  0  -0.088043  -0.070419  0  3.986477  0
C  C163  1  0.63034219  0.87428588  0.84774024  1  -0.062073  0  -0.088059  -0.07042  0  3.98647  0
C  C164  1  0.07198010  0.77054648  0.64620435  1  -0.01891  0  -0.095117  -0.07994  0  4.009373  0
C  C165  1  0.07198228  0.22945271  0.35379588  1  -0.018861  0  -0.09516  -0.080029  0  4.009444  0
C  C166  1  0.57199113  0.22945073  0.14620786  1  -0.019169  0  -0.09513  -0.080164  0  4.009594  0
C  C167  1  0.57198477  0.77055118  0.85379509  1  -0.018928  0  -0.095076  -0.080048  0  4.009444  0
C  C168  1  0.13390239  0.68027064  0.66751130  1  -0.111933  0  -0.094874  -0.132167  0  4.00424  0
C  C169  1  0.13390244  0.31972777  0.33248792  1  -0.111929  0  -0.094805  -0.131984  0  4.004082  0
C  C170  1  0.63390722  0.31972916  0.16751453  1  -0.111466  0  -0.094831  -0.131964  0  4.004235  0
C  C171  1  0.63390486  0.68027114  0.83248880  1  -0.111901  0  -0.094832  -0.132089  0  4.004085  0
C  C172  1  0.44121926  0.81284432  0.73111140  1  0.350296  0  -0.05892  -0.016083  0  3.886214  0
C  C173  1  0.44122098  0.18715507  0.26888834  1  0.350189  0  -0.058887  -0.015987  0  3.886061  0
C  C174  1  0.94123026  0.18716002  0.23111313  1  0.349947  0  -0.058932  -0.016127  0  3.885942  0
C  C175  1  0.94122455  0.81283962  0.76888863  1  0.350188  0  -0.058868  -0.016048  0  3.885967  0
C  C176  1  0.60220328  0.90550708  0.68065740  1  0.416915  0  0.087318  0.265831  0  4.058241  0
C  C177  1  0.60220099  0.09448747  0.31934104  1  0.416702  0  0.087265  0.265651  0  4.058535  0
C  C178  1  0.10220799  0.09449440  0.18065947  1  0.416945  0  0.087349  0.265801  0  4.058226  0
C  C179  1  0.10220994  0.90550481  0.81934112  1  0.416782  0  0.087384  0.265809  0  4.05826  0
C  C180  1  0.59099836  0.82455123  0.64626565  1  -0.022311  0  -0.114312  -0.234531  0  4.023561  0
C  C181  1  0.59099736  0.17544495  0.35373174  1  -0.022554  0  -0.114325  -0.234424  0  4.023581  0
C  C182  1  0.09100523  0.17545090  0.14626744  1  -0.022184  0  -0.114357  -0.234633  0  4.023597  0
C  C183  1  0.09100310  0.82454912  0.85373211  1  -0.022174  0  -0.114332  -0.234522  0  4.023465  0
C  C184  1  0.69946701  0.99082088  0.67503289  1  -0.002747  0  -0.107742  -0.206682  0  3.986983  0
C  C185  1  0.69946991  0.00917454  0.32496595  1  -0.002626  0  -0.107702  -0.206611  0  3.986907  0
C  C186  1  0.19947270  0.00917980  0.17503385  1  -0.002628  0  -0.107779  -0.206738  0  3.987033  0
C  C187  1  0.19946952  0.99081946  0.82496541  1  -0.002636  0  -0.107735  -0.206693  0  3.986917  0
C  C188  1  0.67486388  0.83091794  0.60684713  1  -0.063433  0  -0.087129  -0.074857  0  4.003657  0
C  C189  1  0.67486412  0.16907829  0.39315100  1  -0.06291  0  -0.087159  -0.074928  0  4.0036  0
C  C190  1  0.17486552  0.16908160  0.10684822  1  -0.063127  0  -0.087128  -0.074779  0  4.003717  0
C  C191  1  0.17486673  0.83091846  0.89315241  1  -0.063099  0  -0.087147  -0.07485  0  4.003623  0
C  C192  1  0.78438528  0.99545715  0.63591412  1  -0.068879  0  -0.081508  -0.072367  0  3.964372  0
C  C193  1  0.78438523  0.00453996  0.36408443  1  -0.068915  0  -0.081474  -0.072291  0  3.964316  0
C  C194  1  0.28438887  0.00454340  0.13591472  1  -0.068988  0  -0.081479  -0.072278  0  3.964278  0
C  C195  1  0.28438902  0.99545754  0.86408597  1  -0.068889  0  -0.081481  -0.072264  0  3.964127  0
C  C196  1  0.77207534  0.91559572  0.60101597  1  -0.007743  0  -0.031831  -0.069374  0  4.00095  0
C  C197  1  0.77207240  0.08440220  0.39898188  1  -0.008009  0  -0.031899  -0.069409  0  4.000869  0
C  C198  1  0.27207587  0.08440548  0.10101699  1  -0.008017  0  -0.031881  -0.069446  0  4.000919  0
C  C199  1  0.27207508  0.91559545  0.89898336  1  -0.007953  0  -0.031891  -0.069461  0  4.000936  0
C  C200  1  0.86059402  0.91816593  0.55832149  1  1.550864  0  0.198635  0.56775  0  4.218855  0
C  C201  1  0.86059338  0.08183203  0.44167745  1  1.550996  0  0.198687  0.567873  0  4.218935  0
C  C202  1  0.36059350  0.08183431  0.05832146  1  1.550921  0  0.198677  0.567782  0  4.218942  0
C  C203  1  0.36059502  0.91816421  0.94167789  1  1.550784  0  0.198667  0.567802  0  4.218891  0
C  C204  1  0.55590192  0.37142103  0.03842168  1  0.563108  0  0.064861  0.121954  0  3.928806  0
C  C205  1  0.55590226  0.62858251  0.96157639  1  0.562939  0  0.064823  0.121862  0  3.928657  0
C  C206  1  0.05590122  0.62858797  0.53842188  1  0.562181  0  0.064874  0.121941  0  3.92855  0
C  C207  1  0.05590720  0.37142268  0.46157834  1  0.563022  0  0.064825  0.121908  0  3.928914  0
C  C208  1  0.63205452  0.45578699  0.05994161  1  -0.086514  0  -0.078781  -0.115915  0  3.958236  0
C  C209  1  0.63205051  0.54421822  0.94005615  1  -0.085912  0  -0.078777  -0.115977  0  3.958284  0
C  C210  1  0.13204958  0.54421969  0.55994070  1  -0.086195  0  -0.078671  -0.115718  0  3.958002  0
C  C211  1  0.13205761  0.45578363  0.44005782  1  -0.086099  0  -0.078778  -0.115845  0  3.958303  0
C  C212  1  0.77603801  0.45540721  0.05659414  1  -0.007306  0  -0.067506  -0.07788  0  3.938575  0
C  C213  1  0.77603506  0.54459481  0.94340371  1  -0.00709  0  -0.067533  -0.077866  0  3.938636  0
C  C214  1  0.27603307  0.54459544  0.55659358  1  -0.007131  0  -0.067529  -0.077838  0  3.938615  0
C  C215  1  0.27603902  0.45540877  0.44340607  1  -0.007352  0  -0.067495  -0.077912  0  3.938666  0
C  C216  1  0.84380722  0.37172723  0.03137143  1  -0.023876  0  -0.004845  0.042412  0  4.022519  0
C  C217  1  0.84380864  0.62827318  0.96862646  1  -0.023665  0  -0.004754  0.042635  0  4.022439  0
C  C218  1  0.34380652  0.62827370  0.53137128  1  -0.023673  0  -0.004872  0.042361  0  4.022513  0
C  C219  1  0.34380835  0.37173218  0.46863014  1  -0.023678  0  -0.004911  0.042358  0  4.022589  0
C  C220  1  0.99163052  0.36995261  0.02373693  1  -0.065544  0  -0.087856  -0.130642  0  3.999272  0
C  C221  1  0.99163094  0.63004461  0.97626069  1  -0.064719  0  -0.087862  -0.130712  0  3.999272  0
C  C222  1  0.49163296  0.63004590  0.52373644  1  -0.065061  0  -0.08781  -0.130443  0  3.999154  0
C  C223  1  0.49163169  0.36995760  0.47626577  1  -0.06551  0  -0.087789  -0.130497  0  3.999398  0
C  C224  1  0.05293012  0.29023648  0.99742381  1  -0.052356  0  -0.081257  -0.114177  0  3.952219  0
C  C225  1  0.05293196  0.70976271  0.00257502  1  -0.05308  0  -0.081267  -0.11416  0  3.952209  0
C  C226  1  0.55293109  0.70976723  0.49742493  1  -0.052218  0  -0.081272  -0.11426  0  3.952389  0
C  C227  1  0.55293197  0.29024285  0.50257905  1  -0.052597  0  -0.08129  -0.114205  0  3.952309  0
C  C228  1  0.97009095  0.20446285  0.97753415  1  0.027928  0  1.9e-05  0.045427  0  3.994944  0
C  C229  1  0.97009610  0.79553763  0.02246450  1  0.027322  0  5.4e-05  0.045523  0  3.994893  0
C  C230  1  0.47009728  0.79553853  0.47753645  1  0.026993  0  3e-06  0.045349  0  3.994942  0
C  C231  1  0.47009402  0.20446659  0.52246852  1  0.027923  0  -7e-06  0.045436  0  3.994829  0
C  C232  1  0.02879434  0.11977004  0.95044116  1  -0.03238  0  -0.055773  -0.055749  0  3.89046  0
C  C233  1  0.02879969  0.88022831  0.04955766  1  -0.032205  0  -0.055789  -0.055898  0  3.890628  0
C  C234  1  0.52880067  0.88023344  0.45044380  1  -0.031821  0  -0.055752  -0.055764  0  3.890443  0
C  C235  1  0.52879225  0.11977417  0.54956016  1  -0.003174  0  -0.055725  -0.055827  0  3.890817  0
C  C236  1  0.94288269  0.03977137  0.93193455  1  -0.019837  0  -0.087243  -0.132551  0  3.969547  0
C  C237  1  0.94289134  0.96022827  0.06806409  1  -0.019651  0  -0.087214  -0.132481  0  3.969743  0
C  C238  1  0.44289020  0.96023143  0.43193559  1  -0.019645  0  -0.087303  -0.132643  0  3.969611  0
C  C239  1  0.44288389  0.03977614  0.56806589  1  -0.049131  0  -0.087247  -0.132497  0  3.969737  0
C  C240  1  0.79837546  0.04459759  0.94060512  1  0.535648  0  0.056417  0.110252  0  3.931271  0
C  C241  1  0.79838406  0.95540525  0.05939344  1  0.535747  0  0.056374  0.110277  0  3.93135  0
C  C242  1  0.29838192  0.95540353  0.44060615  1  0.535778  0  0.056424  0.110251  0  3.931416  0
C  C243  1  0.29837557  0.04460151  0.55939524  1  0.536001  0  0.056431  0.11025  0  3.931299  0
C  C244  1  0.82281753  0.20291492  0.98436042  1  0.477607  0  0.118787  0.121677  0  3.976584  0
C  C245  1  0.82282056  0.79708629  0.01563814  1  0.477631  0  0.118782  0.121661  0  3.976671  0
C  C246  1  0.32282073  0.79709132  0.48436202  1  0.477682  0  0.118861  0.121841  0  3.9765  0
C  C247  1  0.32281847  0.20291946  0.51564043  1  0.477659  0  0.118889  0.121842  0  3.976304  0
C  C248  1  0.75833679  0.28910071  0.01132346  1  0.475739  0  0.118608  0.126252  0  3.969344  0
C  C249  1  0.75834152  0.71090129  0.98867438  1  0.475516  0  0.118543  0.126127  0  3.969158  0
C  C250  1  0.25834349  0.71090172  0.51132546  1  0.475433  0  0.118576  0.126094  0  3.969322  0
C  C251  1  0.25834012  0.28910494  0.48867904  1  0.475371  0  0.118641  0.126281  0  3.969251  0
C  C252  1  0.28357595  0.20115092  0.68232627  1  0.912873  0  0.154994  0.310992  0  3.956336  0
C  C253  1  0.28356063  0.79885084  0.31767443  1  0.913401  0  0.155095  0.311028  0  3.956769  0
C  C254  1  0.78356340  0.79885230  0.18232294  1  0.913335  0  0.154928  0.310764  0  3.956763  0
C  C255  1  0.78357417  0.20114726  0.81767422  1  0.912937  0  0.154919  0.310848  0  3.956467  0
C  C256  1  0.38334142  0.16654550  0.71767244  1  -0.063216  0  -0.089086  -0.203104  0  3.918687  0
C  C257  1  0.38333223  0.83345467  0.28232761  1  -0.063572  0  -0.089063  -0.20297  0  3.91875  0
C  C258  1  0.88333308  0.83345465  0.21766984  1  -0.063253  0  -0.089048  -0.202921  0  3.918966  0
C  C259  1  0.88333737  0.16654496  0.78232702  1  -0.063021  0  -0.089059  -0.202866  0  3.918825  0
C  C260  1  0.51287411  0.21122756  0.71924310  1  -0.058108  0  -0.05536  -0.008301  0  3.907794  0
C  C261  1  0.51286174  0.78876532  0.28075460  1  -0.057808  0  -0.055299  -0.008219  0  3.907801  0
C  C262  1  0.01285535  0.78876341  0.21924226  1  -0.058385  0  -0.055279  -0.008211  0  3.907909  0
C  C263  1  0.01286280  0.21123330  0.78075446  1  -0.05781  0  -0.055333  -0.008337  0  3.907829  0
C  C264  1  0.56005279  0.29207357  0.68557595  1  -0.01724  0  -0.06029  -0.019068  0  3.915994  0
C  C265  1  0.56004470  0.70792342  0.31442178  1  -0.017836  0  -0.060334  -0.018998  0  3.915807  0
C  C266  1  0.06003709  0.70791890  0.18557609  1  -0.017779  0  -0.0603  -0.018974  0  3.91562  0
C  C267  1  0.06004583  0.29207783  0.81442274  1  -0.018157  0  -0.060355  -0.01907  0  3.915822  0
C  C268  1  0.47730464  0.32786508  0.65051667  1  -0.048165  0  -0.090523  -0.202767  0  3.925768  0
C  C269  1  0.47729880  0.67213268  0.34948310  1  -0.04797  0  -0.090428  -0.202747  0  3.92571  0
C  C270  1  0.97728572  0.67212663  0.15051497  1  -0.048332  0  -0.090506  -0.202822  0  3.925757  0
C  C271  1  0.97729675  0.32786730  0.84948299  1  -0.047878  0  -0.09047  -0.202757  0  3.925879  0
C  C272  1  0.33427350  0.28744609  0.64583086  1  0.873408  0  0.153869  0.312356  0  3.965076  0
C  C273  1  0.33426457  0.71254914  0.35416952  1  0.873678  0  0.153761  0.312202  0  3.965467  0
C  C274  1  0.83426192  0.71255044  0.14583163  1  0.872934  0  0.153713  0.31224  0  3.965143  0
C  C275  1  0.83426562  0.28744751  0.85416868  1  0.873175  0  0.153849  0.312284  0  3.96546  0
N  N276  1  0.61744356  0.29026877  0.01545345  1  -1.194369  0  -0.320149  -0.270795  0  3.505375  0
N  N277  1  0.61744618  0.70973480  0.98454465  1  -1.194248  0  -0.320133  -0.270756  0  3.504956  0
N  N278  1  0.11744712  0.70974015  0.51545441  1  -1.193475  0  -0.32019  -0.270786  0  3.50501  0
N  N279  1  0.11744583  0.29027134  0.48454793  1  -1.19417  0  -0.320177  -0.270812  0  3.505156  0
N  N280  1  0.74045096  0.12383033  0.96581429  1  -1.255406  0  -0.321159  -0.268343  0  3.514126  0
N  N281  1  0.74045624  0.87617167  0.03418389  1  -1.255494  0  -0.321141  -0.268336  0  3.514142  0
N  N282  1  0.24045736  0.87617497  0.46581560  1  -1.255624  0  -0.321182  -0.268315  0  3.514271  0
N  N283  1  0.24045200  0.12383413  0.53418750  1  -1.255378  0  -0.321263  -0.268489  0  3.514112  0
O  O284  1  0.82032122  0.85950934  0.52401796  1  -1.151791  0  -0.32618  -0.542844  0  2.270392  0
O  O285  1  0.82031767  0.14048533  0.47598096  1  -1.151859  0  -0.326238  -0.542909  0  2.270511  0
O  O286  1  0.32031761  0.14048909  0.02401902  1  -1.151791  0  -0.326194  -0.542835  0  2.270432  0
O  O287  1  0.32032449  0.85950450  0.97598065  1  -1.151718  0  -0.326209  -0.542894  0  2.270431  0
O  O288  1  0.35930790  0.34438923  0.95408964  1  -1.180817  0  -0.335147  -0.571118  0  2.163249  0
O  O289  1  0.35931829  0.65560765  0.04590971  1  -1.180714  0  -0.335153  -0.571171  0  2.163321  0
O  O290  1  0.85930987  0.65560789  0.45409280  1  -1.180186  0  -0.335103  -0.571058  0  2.163632  0
O  O291  1  0.85931625  0.34439580  0.54590996  1  -1.18065  0  -0.335154  -0.571155  0  2.163337  0
O  O292  1  0.97289193  0.97465736  0.55804299  1  -1.198549  0  -0.338213  -0.588268  0  2.305648  0
O  O293  1  0.97289125  0.02534475  0.44195428  1  -1.198214  0  -0.338173  -0.588305  0  2.305704  0
O  O294  1  0.47289240  0.02534457  0.05804396  1  -1.198173  0  -0.338234  -0.588303  0  2.305708  0
O  O295  1  0.47289188  0.97465565  0.94195650  1  -1.198586  0  -0.338212  -0.588251  0  2.305671  0
O  O296  1  0.43355549  0.21650522  0.90325729  1  -1.144273  0  -0.337979  -0.554024  0  2.268236  0
O  O297  1  0.43354219  0.78349498  0.09674349  1  -1.144134  0  -0.33805  -0.554175  0  2.268051  0
O  O298  1  0.93353770  0.78349498  0.40325986  1  -1.143957  0  -0.338025  -0.55404  0  2.268025  0
O  O299  1  0.93353586  0.21650629  0.59674259  1  -1.144257  0  -0.337983  -0.554038  0  2.268148  0
O  O300  1  0.27080444  0.61092316  0.76835834  1  -1.06871  0  -0.17943  -0.203763  0  2.553769  0
O  O301  1  0.27079986  0.38907122  0.23163992  1  -1.068861  0  -0.179344  -0.203669  0  2.553804  0
O  O302  1  0.77080620  0.38907225  0.26836197  1  -1.068793  0  -0.17937  -0.203721  0  2.553779  0
O  O303  1  0.77080955  0.61093139  0.73164143  1  -1.068761  0  -0.179382  -0.203779  0  2.55366  0
O  O304  1  0.52268148  0.90852109  0.71999812  1  -1.070713  0  -0.178088  -0.200979  0  2.534272  0
O  O305  1  0.52267899  0.09147587  0.28000062  1  -1.070646  0  -0.178023  -0.200831  0  2.53424  0
O  O306  1  0.02268933  0.09148134  0.22000019  1  -1.070747  0  -0.178137  -0.20096  0  2.53428  0
O  O307  1  0.02268793  0.90851701  0.77999966  1  -1.070721  0  -0.17818  -0.200966  0  2.53416  0
O  O308  1  0.16189332  0.16781004  0.68103313  1  -1.041693  0  -0.216378  -0.327358  0  2.127308  0
O  O309  1  0.16189267  0.83218920  0.31896923  1  -1.041777  0  -0.216457  -0.327425  0  2.127859  0
O  O310  1  0.66188811  0.83220047  0.18102740  1  -1.041793  0  -0.216277  -0.327206  0  2.127441  0
O  O311  1  0.66188945  0.16779984  0.81896934  1  -1.041776  0  -0.216304  -0.327316  0  2.127195  0
O  O312  1  0.25309872  0.31940102  0.61553652  1  -1.030291  0  -0.214377  -0.324471  0  2.124176  0
O  O313  1  0.25309619  0.68059172  0.38446138  1  -1.030451  0  -0.214336  -0.324377  0  2.124527  0
O  O314  1  0.75307667  0.68058878  0.11553622  1  -1.029855  0  -0.21438  -0.324465  0  2.123801  0
O  O315  1  0.75308996  0.31940749  0.88446092  1  -1.030088  0  -0.214401  -0.324433  0  2.124321  0
