# generated using pymatgen
data_CuH9C8S2IN
_symmetry_space_group_name_H-M   'P 1'
_cell_length_a   5.48995286
_cell_length_b   12.53916511
_cell_length_c   15.60614739
_cell_angle_alpha   93.39146058
_cell_angle_beta   90.00086657
_cell_angle_gamma   90.00082439
_symmetry_Int_Tables_number   1
_chemical_formula_structural   CuH9C8S2IN
_chemical_formula_sum   'Cu4 H36 C32 S8 I4 N4'
_cell_volume   1072.43671693
_cell_formula_units_Z   4
loop_
 _symmetry_equiv_pos_site_id
 _symmetry_equiv_pos_as_xyz
  1  'x, y, z'
loop_
 _atom_site_type_symbol
 _atom_site_label
 _atom_site_symmetry_multiplicity
 _atom_site_fract_x
 _atom_site_fract_y
 _atom_site_fract_z
 _atom_site_occupancy
 _atom_site_hle17_bader_spin_density
 _atom_site_hle17_ddec_charge
 _atom_site_hle17_ddec_spin_density
 _atom_site_hle17_ddec_sum_bond_order
 _atom_site_hle17_magmom
 _atom_site_hse06_10hf_bader_spin_density
 _atom_site_hse06_10hf_ddec_charge
 _atom_site_hse06_10hf_ddec_spin_density
 _atom_site_hse06_10hf_ddec_sum_bond_order
 _atom_site_hse06_10hf_magmom
 _atom_site_hse06_bader_spin_density
 _atom_site_hse06_ddec_charge
 _atom_site_hse06_ddec_spin_density
 _atom_site_hse06_ddec_sum_bond_order
 _atom_site_hse06_magmom
 _atom_site_pbe_bader_spin_density
 _atom_site_pbe_cm5_charge
 _atom_site_pbe_ddec_charge
 _atom_site_pbe_ddec_spin_density
 _atom_site_pbe_ddec_sum_bond_order
 _atom_site_pbe_magmom
Cu  Cu0  1  0.76941618  0.98938387  0.49450574  1  0  0.229127  0  2.301895  0  0  0.171119  0  2.77729  0  0  0.17883  0  2.727192  0  0  0.230748  0.167775  0  2.809772  0
Cu  Cu1  1  0.26942155  0.01061394  0.00549656  1  0  0.229128  0  2.301938  0  0  0.171132  0  2.77732  0  0  0.178847  0  2.727229  0  0  0.230735  0.167788  0  2.809805  0
Cu  Cu2  1  0.23056682  0.01061770  0.50549328  1  0  0.2291  0  2.301933  0  0  0.171086  0  2.77734  0  0  0.178823  0  2.727242  0  0  0.230719  0.167734  0  2.80981  0
Cu  Cu3  1  0.73057420  0.98938524  0.99450555  1  0  0.229133  0  2.301936  0  0  0.171127  0  2.777328  0  0  0.178846  0  2.727235  0  0  0.230714  0.167782  0  2.809803  0
H  H4  1  0.28775972  0.23452467  0.55584796  1  0  0.271254  0  0.941439  0  0  0.248319  0  1.025298  0  0  0.257476  0  1.016943  0  0  0.276606  0.241795  0  1.031309  0
H  H5  1  0.78777755  0.76548025  0.94414678  1  0  0.271331  0  0.941391  0  0  0.248362  0  1.025256  0  0  0.257525  0  1.016911  0  0  0.276631  0.24184  0  1.031268  0
H  H6  1  0.71222510  0.76546892  0.44414555  1  0  0.271391  0  0.941311  0  0  0.248453  0  1.025149  0  0  0.257611  0  1.016807  0  0  0.276663  0.24193  0  1.031161  0
H  H7  1  0.21223824  0.23452211  0.05586125  1  0  0.271419  0  0.941433  0  0  0.248438  0  1.025306  0  0  0.257599  0  1.016969  0  0  0.276689  0.24191  0  1.031325  0
H  H8  1  0.10514712  0.13473108  0.76215992  1  0  0.135764  0  0.933109  0  0  0.155879  0  0.990567  0  0  0.157462  0  0.990641  0  0  0.09227  0.154697  0  0.990576  0
H  H9  1  0.60512836  0.86529260  0.73783220  1  0  0.135733  0  0.932982  0  0  0.155835  0  0.990479  0  0  0.157421  0  0.990547  0  0  0.09225  0.154655  0  0.990489  0
H  H10  1  0.89483042  0.86526650  0.23783763  1  0  0.13581  0  0.933061  0  0  0.155887  0  0.990553  0  0  0.15747  0  0.990631  0  0  0.092287  0.154702  0  0.990562  0
H  H11  1  0.39485828  0.13471377  0.26216385  1  0  0.135789  0  0.932946  0  0  0.155861  0  0.990493  0  0  0.15745  0  0.990556  0  0  0.092243  0.154676  0  0.9905  0
H  H12  1  0.99253578  0.05362788  0.67206952  1  0  0.116464  0  1.006801  0  0  0.127546  0  1.083563  0  0  0.13019  0  1.082029  0  0  0.074778  0.125466  0  1.084809  0
H  H13  1  0.49251866  0.94639359  0.82792517  1  0  0.116403  0  1.006819  0  0  0.12749  0  1.083627  0  0  0.130149  0  1.082047  0  0  0.074724  0.125407  0  1.084877  0
H  H14  1  0.00744722  0.94636890  0.32793055  1  0  0.116445  0  1.006891  0  0  0.127573  0  1.08356  0  0  0.13021  0  1.082046  0  0  0.074779  0.125495  0  1.084803  0
H  H15  1  0.50746798  0.05361598  0.17206847  1  0  0.116414  0  1.006818  0  0  0.127513  0  1.083567  0  0  0.130149  0  1.082056  0  0  0.074748  0.125434  0  1.08481  0
H  H16  1  0.81143646  0.07384911  0.76841534  1  0  0.13049  0  0.977019  0  0  0.148551  0  1.036813  0  0  0.149452  0  1.03885  0  0  0.081722  0.147789  0  1.035534  0
H  H17  1  0.31140904  0.92616875  0.73157695  1  0  0.130377  0  0.977196  0  0  0.148485  0  1.036958  0  0  0.149383  0  1.039002  0  0  0.081714  0.147722  0  1.035677  0
H  H18  1  0.18854654  0.92614847  0.23158542  1  0  0.130499  0  0.976906  0  0  0.148546  0  1.03671  0  0  0.149449  0  1.038743  0  0  0.081706  0.147781  0  1.035431  0
H  H19  1  0.68856849  0.07383122  0.26841944  1  0  0.130386  0  0.977155  0  0  0.148508  0  1.036861  0  0  0.149408  0  1.0389  0  0  0.081731  0.147743  0  1.03558  0
H  H20  1  0.14006068  0.40008156  0.67543829  1  0  0.093824  0  0.99205  0  0  0.100201  0  1.063391  0  0  0.102609  0  1.06314  0  0  0.093045  0.098436  0  1.063701  0
H  H21  1  0.64004600  0.59993914  0.82456669  1  0  0.093912  0  0.992021  0  0  0.100277  0  1.063366  0  0  0.102688  0  1.063109  0  0  0.09309  0.098508  0  1.063677  0
H  H22  1  0.85993143  0.59992400  0.32456093  1  0  0.09383  0  0.992097  0  0  0.100199  0  1.063446  0  0  0.10261  0  1.063194  0  0  0.093045  0.098435  0  1.063751  0
H  H23  1  0.35996797  0.40006322  0.17544007  1  0  0.093863  0  0.992011  0  0  0.10016  0  1.063431  0  0  0.102571  0  1.063176  0  0  0.093045  0.098394  0  1.063733  0
H  H24  1  0.20467876  0.59615600  0.69590895  1  0  0.079319  0  0.984184  0  0  0.082826  0  1.05754  0  0  0.085467  0  1.05724  0  0  0.089384  0.080931  0  1.05782  0
H  H25  1  0.70465307  0.40385875  0.80409928  1  0  0.079454  0  0.984256  0  0  0.082891  0  1.057667  0  0  0.085521  0  1.057405  0  0  0.089391  0.080998  0  1.057951  0
H  H26  1  0.79532792  0.40384478  0.30409196  1  0  0.079325  0  0.984163  0  0  0.082849  0  1.057514  0  0  0.085487  0  1.057222  0  0  0.08938  0.080952  0  1.057794  0
H  H27  1  0.29536818  0.59614442  0.19590302  1  0  0.07941  0  0.984225  0  0  0.082866  0  1.057634  0  0  0.085497  0  1.057369  0  0  0.089363  0.080974  0  1.05791  0
H  H28  1  0.57951270  0.67892739  0.63799492  1  0  0.084272  0  0.96454  0  0  0.091821  0  1.032916  0  0  0.09503  0  1.031117  0  0  0.087522  0.089417  0  1.034382  0
H  H29  1  0.07947454  0.32108253  0.86201242  1  0  0.084285  0  0.964551  0  0  0.09179  0  1.032961  0  0  0.094994  0  1.031165  0  0  0.087487  0.089383  0  1.034436  0
H  H30  1  0.42049762  0.32106780  0.36200060  1  0  0.084229  0  0.964522  0  0  0.091746  0  1.032932  0  0  0.094941  0  1.031148  0  0  0.087477  0.089341  0  1.034395  0
H  H31  1  0.92054489  0.67891904  0.13799045  1  0  0.084335  0  0.964363  0  0  0.091858  0  1.032768  0  0  0.095056  0  1.030978  0  0  0.087464  0.089449  0  1.03424  0
H  H32  1  0.88606367  0.56513437  0.55991669  1  0  0.085598  0  0.961027  0  0  0.096278  0  1.023322  0  0  0.098694  0  1.022976  0  0  0.094027  0.09455  0  1.023619  0
H  H33  1  0.38605816  0.43487120  0.94008949  1  0  0.085575  0  0.961009  0  0  0.09625  0  1.023316  0  0  0.098673  0  1.022952  0  0  0.094035  0.094525  0  1.023612  0
H  H34  1  0.11393208  0.43486161  0.44008206  1  0  0.085613  0  0.961021  0  0  0.096299  0  1.02331  0  0  0.098712  0  1.02297  0  0  0.094021  0.09457  0  1.023611  0
H  H35  1  0.61396674  0.56512718  0.05991002  1  0  0.085546  0  0.960969  0  0  0.096224  0  1.023251  0  0  0.098651  0  1.022885  0  0  0.094097  0.094473  0  1.023615  0
H  H36  1  0.81451648  0.36830030  0.53584558  1  0  0.094029  0  0.984773  0  0  0.097986  0  1.060413  0  0  0.101264  0  1.058624  0  0  0.088633  0.095575  0  1.061813  0
H  H37  1  0.31454220  0.63171359  0.96415038  1  0  0.094116  0  0.984918  0  0  0.098026  0  1.060636  0  0  0.101297  0  1.058854  0  0  0.088653  0.095607  0  1.062041  0
H  H38  1  0.18547017  0.63169728  0.46415005  1  0  0.094079  0  0.984725  0  0  0.098016  0  1.060405  0  0  0.101294  0  1.058613  0  0  0.088638  0.095587  0  1.06182  0
H  H39  1  0.68548816  0.36828718  0.03585117  1  0  0.094132  0  0.984763  0  0  0.098029  0  1.060513  0  0  0.101299  0  1.05873  0  0  0.088641  0.095605  0  1.061918  0
C  C40  1  0.57363535  0.18545830  0.62491080  1  0  0.228269  0  3.762  0  0  0.206636  0  4.064403  0  0  0.231062  0  4.072037  0  0  0.131583  0.190338  0  4.058625  0
C  C41  1  0.07364505  0.81455239  0.87508117  1  0  0.228629  0  3.761815  0  0  0.206995  0  4.064162  0  0  0.231433  0  4.071785  0  0  0.131749  0.190695  0  4.058387  0
C  C42  1  0.42634036  0.81453928  0.37508483  1  0  0.228404  0  3.761606  0  0  0.206797  0  4.063956  0  0  0.231228  0  4.07158  0  0  0.131639  0.190504  0  4.058169  0
C  C43  1  0.92636527  0.18545158  0.12492438  1  0  0.228623  0  3.761591  0  0  0.206957  0  4.063992  0  0  0.231393  0  4.071613  0  0  0.131717  0.190658  0  4.05821  0
C  C44  1  0.94175419  0.10975982  0.72561424  1  0  -0.332375  0  3.653082  0  0  -0.398908  0  3.893211  0  0  -0.401711  0  3.901942  0  0  -0.24082  -0.396724  0  3.887458  0
C  C45  1  0.44174018  0.89026610  0.77437976  1  0  -0.332161  0  3.653077  0  0  -0.398717  0  3.893041  0  0  -0.401519  0  3.901786  0  0  -0.240749  -0.396531  0  3.887289  0
C  C46  1  0.05822152  0.89024175  0.27438670  1  0  -0.332481  0  3.653027  0  0  -0.399033  0  3.893256  0  0  -0.40184  0  3.90198  0  0  -0.240852  -0.396846  0  3.887499  0
C  C47  1  0.55825010  0.10973947  0.22561753  1  0  -0.332259  0  3.65304  0  0  -0.398775  0  3.893058  0  0  -0.401583  0  3.901785  0  0  -0.240805  -0.396587  0  3.8873  0
C  C48  1  0.47558255  0.37337887  0.60532074  1  0  0.204184  0  3.783475  0  0  0.207346  0  4.020221  0  0  0.210986  0  4.043256  0  0  0.079137  0.204832  0  4.004686  0
C  C49  1  0.97560457  0.62663450  0.89467732  1  0  0.204408  0  3.783853  0  0  0.207377  0  4.020775  0  0  0.210997  0  4.043848  0  0  0.079052  0.204882  0  4.005203  0
C  C50  1  0.52440045  0.62661711  0.39467801  1  0  0.204333  0  3.783272  0  0  0.207451  0  4.020051  0  0  0.211096  0  4.04308  0  0  0.079157  0.204935  0  4.004515  0
C  C51  1  0.02441486  0.37336468  0.10532351  1  0  0.204359  0  3.783626  0  0  0.207517  0  4.020292  0  0  0.211138  0  4.043362  0  0  0.079042  0.205026  0  4.004723  0
C  C52  1  0.30234263  0.43675112  0.64983360  1  0  -0.141986  0  3.717658  0  0  -0.159411  0  3.957336  0  0  -0.162445  0  3.978438  0  0  -0.092424  -0.157261  0  3.943045  0
C  C53  1  0.80234607  0.56326668  0.85017337  1  0  -0.142138  0  3.717916  0  0  -0.159503  0  3.957667  0  0  -0.162528  0  3.978779  0  0  -0.092462  -0.157357  0  3.943363  0
C  C54  1  0.69765676  0.56324646  0.35016523  1  0  -0.141944  0  3.717383  0  0  -0.159348  0  3.957086  0  0  -0.162383  0  3.978184  0  0  -0.092354  -0.157199  0  3.942794  0
C  C55  1  0.19766790  0.43674128  0.14983172  1  0  -0.142226  0  3.717958  0  0  -0.15959  0  3.957673  0  0  -0.162617  0  3.978789  0  0  -0.092525  -0.157447  0  3.943365  0
C  C56  1  0.33994976  0.54669063  0.66139560  1  0  -0.059916  0  3.779742  0  0  -0.069211  0  4.024471  0  0  -0.07156  0  4.046338  0  0  -0.093892  -0.067601  0  4.009668  0
C  C57  1  0.83990716  0.45332262  0.83861264  1  0  -0.059974  0  3.779407  0  0  -0.069191  0  4.024044  0  0  -0.071551  0  4.045907  0  0  -0.093817  -0.067582  0  4.00924  0
C  C58  1  0.66005692  0.45330615  0.33860512  1  0  -0.059924  0  3.77955  0  0  -0.06924  0  4.024301  0  0  -0.071588  0  4.046161  0  0  -0.093849  -0.067629  0  4.009496  0
C  C59  1  0.16011409  0.54668055  0.16139031  1  0  -0.059831  0  3.779444  0  0  -0.069053  0  4.024067  0  0  -0.071416  0  4.045932  0  0  -0.093682  -0.067439  0  4.009251  0
C  C60  1  0.55047806  0.59282957  0.62969869  1  0  -0.071178  0  3.759888  0  0  -0.08708  0  4.008717  0  0  -0.088581  0  4.029162  0  0  -0.094109  -0.086024  0  3.994954  0
C  C61  1  0.05045040  0.40717855  0.87031098  1  0  -0.071248  0  3.759957  0  0  -0.087083  0  4.008729  0  0  -0.088576  0  4.029171  0  0  -0.094135  -0.086028  0  3.994973  0
C  C62  1  0.44951951  0.40716880  0.37030403  1  0  -0.07109  0  3.759907  0  0  -0.086958  0  4.008736  0  0  -0.088445  0  4.029185  0  0  -0.094091  -0.0859  0  3.994967  0
C  C63  1  0.94957814  0.59281823  0.12968974  1  0  -0.071338  0  3.75953  0  0  -0.087232  0  4.008388  0  0  -0.088722  0  4.028833  0  0  -0.094213  -0.08617  0  3.994624  0
C  C64  1  0.72282178  0.52892753  0.58532188  1  0  -0.050091  0  3.758695  0  0  -0.0594  0  4.000748  0  0  -0.061679  0  4.023453  0  0  -0.090233  -0.057826  0  3.985337  0
C  C65  1  0.22281091  0.47107695  0.91467699  1  0  -0.05  0  3.758995  0  0  -0.059306  0  4.000997  0  0  -0.061578  0  4.023693  0  0  -0.090247  -0.057728  0  3.985564  0
C  C66  1  0.27717214  0.47106605  0.41467484  1  0  -0.050104  0  3.758753  0  0  -0.059417  0  4.000776  0  0  -0.061698  0  4.023477  0  0  -0.090186  -0.057841  0  3.985359  0
C  C67  1  0.77721399  0.52891903  0.08532113  1  0  -0.049955  0  3.758979  0  0  -0.059253  0  4.001005  0  0  -0.061521  0  4.023692  0  0  -0.090258  -0.057684  0  3.985562  0
C  C68  1  0.68552064  0.41920317  0.57230091  1  0  -0.149158  0  3.747975  0  0  -0.166184  0  3.991004  0  0  -0.169692  0  4.012599  0  0  -0.093164  -0.163716  0  3.976458  0
C  C69  1  0.18553035  0.58080666  0.92769609  1  0  -0.149483  0  3.748323  0  0  -0.166424  0  3.991371  0  0  -0.169921  0  4.012976  0  0  -0.093249  -0.163952  0  3.976816  0
C  C70  1  0.31447147  0.58079760  0.42769487  1  0  -0.149233  0  3.747851  0  0  -0.166227  0  3.990875  0  0  -0.169733  0  4.012466  0  0  -0.093208  -0.163745  0  3.976339  0
C  C71  1  0.81449272  0.41919571  0.07230425  1  0  -0.149388  0  3.748285  0  0  -0.166369  0  3.991229  0  0  -0.169865  0  4.012831  0  0  -0.093173  -0.16389  0  3.976686  0
S  S72  1  0.51165049  0.05302110  0.60857951  1  0  -0.279766  0  2.716592  0  0  -0.250888  0  3.164178  0  0  -0.260937  0  3.140749  0  0  -0.197212  -0.245043  0  3.179815  0
S  S73  1  0.01164342  0.94699156  0.89141606  1  0  -0.279943  0  2.716529  0  0  -0.251094  0  3.164163  0  0  -0.261147  0  3.140727  0  0  -0.197308  -0.245252  0  3.179809  0
S  S74  1  0.48833433  0.94697488  0.39141796  1  0  -0.279718  0  2.716444  0  0  -0.250879  0  3.16407  0  0  -0.260923  0  3.140632  0  0  -0.197189  -0.245034  0  3.179694  0
S  S75  1  0.98835780  0.05301240  0.10858628  1  0  -0.27997  0  2.716395  0  0  -0.2511  0  3.164003  0  0  -0.261143  0  3.140563  0  0  -0.197312  -0.24526  0  3.179648  0
S  S76  1  0.82016414  0.23043543  0.68685401  1  0  0.079199  0  2.551059  0  0  0.092704  0  2.90816  0  0  0.089495  0  2.90775  0  0  0.056064  0.094458  0  2.908547  0
S  S77  1  0.32016603  0.76958249  0.81313768  1  0  0.079147  0  2.550934  0  0  0.092642  0  2.908056  0  0  0.089429  0  2.907637  0  0  0.056048  0.09439  0  2.908445  0
S  S78  1  0.17981157  0.76956215  0.31314482  1  0  0.079235  0  2.551013  0  0  0.092757  0  2.908085  0  0  0.089552  0  2.907667  0  0  0.056067  0.094506  0  2.908462  0
S  S79  1  0.67984429  0.23042228  0.18686406  1  0  0.079097  0  2.550887  0  0  0.092609  0  2.907995  0  0  0.089402  0  2.907571  0  0  0.056038  0.094359  0  2.908377  0
I  I80  1  0.98505880  0.16264348  0.43453965  1  0  -0.391703  0  1.394394  0  0  -0.339424  0  1.768939  0  0  -0.357536  0  1.739667  0  0  -0.186809  -0.326511  0  1.788272  0
I  I81  1  0.48506315  0.83735577  0.06545745  1  0  -0.391758  0  1.394422  0  0  -0.339422  0  1.768916  0  0  -0.35753  0  1.739644  0  0  -0.186814  -0.326505  0  1.788256  0
I  I82  1  0.01493513  0.83735569  0.56545926  1  0  -0.391734  0  1.394293  0  0  -0.339447  0  1.768844  0  0  -0.357557  0  1.739571  0  0  -0.186816  -0.326533  0  1.788179  0
I  I83  1  0.51493625  0.16264580  0.93454862  1  0  -0.391761  0  1.394358  0  0  -0.339438  0  1.768911  0  0  -0.35755  0  1.73964  0  0  -0.186816  -0.326523  0  1.78825  0
N  N84  1  0.43463835  0.26093720  0.59249744  1  0  -0.355603  0  3.434243  0  0  -0.29668  0  3.662716  0  0  -0.313851  0  3.672275  0  0  -0.386819  -0.285318  0  3.656393  0
N  N85  1  0.93465190  0.73907589  0.90749847  1  0  -0.355795  0  3.434127  0  0  -0.296803  0  3.662738  0  0  -0.314  0  3.672331  0  0  -0.386753  -0.285444  0  3.656406  0
N  N86  1  0.56534465  0.73905718  0.40749803  1  0  -0.356053  0  3.434093  0  0  -0.297145  0  3.662686  0  0  -0.314336  0  3.672252  0  0  -0.387048  -0.285784  0  3.656365  0
N  N87  1  0.06537300  0.26092328  0.09250749  1  0  -0.355804  0  3.434122  0  0  -0.296855  0  3.66267  0  0  -0.314051  0  3.67226  0  0  -0.386797  -0.285499  0  3.656344  0
