# generated using pymatgen
data_Cu2H20C21(SN3)2
_symmetry_space_group_name_H-M   'P 1'
_cell_length_a   10.07553720
_cell_length_b   10.31583416
_cell_length_c   11.05000000
_cell_angle_alpha   109.15105847
_cell_angle_beta   102.96171326
_cell_angle_gamma   93.34443709
_symmetry_Int_Tables_number   1
_chemical_formula_structural   Cu2H20C21(SN3)2
_chemical_formula_sum   'Cu4 H40 C42 S4 N12'
_cell_volume   1046.39135400
_cell_formula_units_Z   2
loop_
 _symmetry_equiv_pos_site_id
 _symmetry_equiv_pos_as_xyz
  1  'x, y, z'
loop_
 _atom_site_type_symbol
 _atom_site_label
 _atom_site_symmetry_multiplicity
 _atom_site_fract_x
 _atom_site_fract_y
 _atom_site_fract_z
 _atom_site_occupancy
 _atom_site_pbe_bader_charge
 _atom_site_pbe_bader_spin_density
 _atom_site_pbe_cm5_charge
 _atom_site_pbe_ddec_charge
 _atom_site_pbe_ddec_spin_density
 _atom_site_pbe_ddec_sum_bond_order
 _atom_site_pbe_magmom
Cu  Cu0  1  0.03920309  0.18066853  0.28660789  1  0.633567  0  0.496188  0.364833  0  2.624746  0
Cu  Cu1  1  0.96079620  0.81933075  0.71339202  1  0.633549  0  0.496181  0.364785  0  2.624759  0
Cu  Cu2  1  0.13516875  0.08484037  0.77560916  1  0.627033  0  0.46942  0.323666  0  2.665794  0
Cu  Cu3  1  0.86483068  0.91515995  0.22439109  1  0.627015  0  0.469418  0.323684  0  2.665797  0
H  H4  1  0.88884670  0.40918271  0.20255137  1  0.088194  0  0.102585  0.115202  0  1.013315  0
H  H5  1  0.11115301  0.59081243  0.79744645  1  0.08812  0  0.102577  0.115205  0  1.013303  0
H  H6  1  0.74749460  0.60347995  0.21838171  1  0.051121  0  0.088481  0.089251  0  1.046648  0
H  H7  1  0.25250541  0.39651726  0.78161409  1  0.05115  0  0.088481  0.089272  0  1.046672  0
H  H8  1  0.64503060  0.69341761  0.40698491  1  0.056911  0  0.096676  0.095882  0  1.020465  0
H  H9  1  0.35497102  0.30658375  0.59301339  1  0.056904  0  0.09668  0.095871  0  1.020449  0
H  H10  1  0.67331207  0.59125310  0.58474041  1  0.081444  0  0.101737  0.109883  0  1.043736  0
H  H11  1  0.32668954  0.40874826  0.41525790  1  0.081423  0  0.101685  0.109804  0  1.043672  0
H  H12  1  0.97045852  0.21074729  0.56605640  1  0.175384  0  0.13152  0.103829  0  1.035218  0
H  H13  1  0.02954252  0.78925718  0.43394635  1  0.175417  0  0.131498  0.103795  0  1.035213  0
H  H14  1  0.83659580  0.50317560  0.76106519  1  0.082048  0  0.105773  0.088708  0  0.996983  0
H  H15  1  0.16340291  0.49682680  0.23893283  1  0.081592  0  0.105789  0.088745  0  0.996982  0
H  H16  1  0.88042392  0.33775123  0.75461253  1  0.076575  0  0.09908  0.083274  0  1.037032  0
H  H17  1  0.11957712  0.66225324  0.24538933  1  0.076274  0  0.099108  0.083279  0  1.037043  0
H  H18  1  0.63954998  0.22842086  0.64452310  1  -0.00396  0  0.088774  0.0886  0  0.986676  0
H  H19  1  0.36045149  0.77157946  0.35547757  1  -0.003905  0  0.088788  0.088605  0  0.986729  0
H  H20  1  0.59376918  0.38192011  0.61937757  1  0.024834  0  0.090991  0.085532  0  1.015127  0
H  H21  1  0.40623040  0.61808125  0.38062213  1  0.024844  0  0.091005  0.085547  0  1.015111  0
H  H22  1  0.65103817  0.50797634  0.86533281  1  -0.005353  0  0.084778  0.07903  0  1.020854  0
H  H23  1  0.34896330  0.49202399  0.13466967  1  -0.005347  0  0.08478  0.079006  0  1.020869  0
H  H24  1  0.51036332  0.37461116  0.80449997  1  -0.005577  0  0.087647  0.08211  0  1.004886  0
H  H25  1  0.48963495  0.62538812  0.19549972  1  -0.005498  0  0.087655  0.082109  0  1.004908  0
H  H26  1  0.80292020  0.34949904  0.94604539  1  0.001867  0  0.084455  0.086068  0  1.014535  0
H  H27  1  0.19707719  0.65050128  0.05395625  1  0.002106  0  0.084437  0.086044  0  1.01453  0
H  H28  1  0.66399488  0.38567464  0.01831441  1  0.043179  0  0.091121  0.088349  0  1.014399  0
H  H29  1  0.33600528  0.61432361  0.98168354  1  0.043164  0  0.091108  0.088325  0  1.014359  0
H  H30  1  0.52743553  0.15519973  0.83474682  1  0.070133  0  0.107662  0.086349  0  0.988958  0
H  H31  1  0.47256390  0.84480060  0.16525434  1  0.070135  0  0.107668  0.086375  0  0.988955  0
H  H32  1  0.68840649  0.11386256  0.80756051  1  0.098948  0  0.099263  0.088617  0  1.028043  0
H  H33  1  0.31159381  0.88613673  0.19244051  1  0.098943  0  0.099284  0.088649  0  1.028048  0
H  H34  1  0.42863089  0.27258559  0.03026499  1  0.07657  0  0.101149  0.106526  0  1.025564  0
H  H35  1  0.57136854  0.72741473  0.96973527  1  0.076564  0  0.101142  0.106513  0  1.025597  0
H  H36  1  0.33976567  0.28863956  0.22603329  1  0.059792  0  0.092985  0.091382  0  1.046176  0
H  H37  1  0.66023449  0.71135869  0.77396648  1  0.059784  0  0.092984  0.09136  0  1.046182  0
H  H38  1  0.45025057  0.18893140  0.39182026  1  0.054287  0  0.090879  0.088208  0  1.036211  0
H  H39  1  0.54975105  0.81106995  0.60817985  1  0.054285  0  0.090909  0.088237  0  1.036202  0
H  H40  1  0.65336644  0.06343405  0.36468819  1  0.101945  0  0.100264  0.115005  0  1.026833  0
H  H41  1  0.34663533  0.93656834  0.63531318  1  0.101955  0  0.100255  0.114987  0  1.026809  0
H  H42  1  0.83186256  0.01281372  0.96505389  1  0.149196  0  0.136167  0.111897  0  0.994099  0
H  H43  1  0.16813585  0.98718660  0.03494525  1  0.149181  0  0.136193  0.111923  0  0.994105  0
C  C44  1  0.86083214  0.39322829  0.38602789  1  0.417515  0  0.084959  0.145026  0  4.026185  0
C  C45  1  0.13916700  0.60676996  0.61397348  1  0.417687  0  0.084932  0.144984  0  4.026345  0
C  C46  1  0.84180372  0.44863484  0.28468982  1  -0.039976  0  -0.093974  -0.14839  0  3.96141  0
C  C47  1  0.15819731  0.55136237  0.71530981  1  -0.039879  0  -0.093936  -0.148347  0  3.961395  0
C  C48  1  0.76260022  0.55608846  0.29442923  1  -0.008666  0  -0.10437  -0.098516  0  4.032779  0
C  C49  1  0.23739994  0.44390979  0.70556873  1  -0.008726  0  -0.104404  -0.098572  0  4.032867  0
C  C50  1  0.70334301  0.60704162  0.40169333  1  -0.079044  0  -0.098696  -0.085928  0  4.041832  0
C  C51  1  0.29665730  0.39295766  0.59830678  1  -0.079086  0  -0.098695  -0.085935  0  4.041844  0
C  C52  1  0.72001703  0.55185178  0.50257191  1  0.022779  0  -0.10065  -0.178534  0  4.030041  0
C  C53  1  0.27998342  0.44814854  0.49742855  1  0.022803  0  -0.100585  -0.17837  0  4.029855  0
C  C54  1  0.79970514  0.44446141  0.49275732  1  0.267902  0  0.092259  0.094352  0  4.004092  0
C  C55  1  0.20029531  0.55553891  0.50724314  1  0.267745  0  0.092222  0.094221  0  4.004188  0
C  C56  1  0.92239857  0.28000652  0.51964058  1  0.995384  0  0.158817  0.135636  0  3.90032  0
C  C57  1  0.07760071  0.71999277  0.48036023  1  0.995568  0  0.158877  0.135756  0  3.90021  0
C  C58  1  0.81043730  0.39152573  0.70274271  1  0.291739  0  -0.055748  -0.053843  0  3.874797  0
C  C59  1  0.18956578  0.60847874  0.29725594  1  0.292823  0  -0.055791  -0.053937  0  3.874874  0
C  C60  1  0.65989783  0.34246694  0.68905441  1  0.000649  0  -0.16621  -0.168041  0  3.924499  0
C  C61  1  0.34010175  0.65753442  0.31094619  1  0.000724  0  -0.166275  -0.168087  0  3.924639  0
C  C62  1  0.62286647  0.39456689  0.82218730  1  0.056599  0  -0.166047  -0.137103  0  3.933607  0
C  C63  1  0.37713587  0.60543239  0.17782047  1  0.056402  0  -0.166029  -0.137046  0  3.933591  0
C  C64  1  0.68985396  0.33212202  0.92454307  1  0.007187  0  -0.168737  -0.176448  0  3.92356  0
C  C65  1  0.31014707  0.66787519  0.07546018  1  0.006903  0  -0.168696  -0.176349  0  3.923291  0
C  C66  1  0.63895623  0.17701976  0.88100780  1  0.258127  0  -0.053892  -0.052934  0  3.877228  0
C  C67  1  0.36104365  0.82298367  0.11899078  1  0.258142  0  -0.053951  -0.053086  0  3.87719  0
C  C68  1  0.59150657  0.15849492  0.08953401  1  0.32627  0  0.092259  0.09075  0  4.002617  0
C  C69  1  0.40849257  0.84150333  0.91046464  1  0.326272  0  0.092266  0.09076  0  4.002647  0
C  C70  1  0.47897951  0.22940071  0.10334537  1  -0.002567  0  -0.096422  -0.159315  0  4.003552  0
C  C71  1  0.52101876  0.77059858  0.89665524  1  -0.002609  0  -0.096441  -0.159375  0  4.003615  0
C  C72  1  0.43055868  0.23859884  0.21402140  1  -0.038094  0  -0.099721  -0.087485  0  4.014855  0
C  C73  1  0.56944060  0.76140044  0.78597941  1  -0.038038  0  -0.099672  -0.087332  0  4.014732  0
C  C74  1  0.49301477  0.18057729  0.30773180  1  0.017435  0  -0.102975  -0.096299  0  4.033428  0
C  C75  1  0.50698583  0.81942407  0.69226901  1  0.017439  0  -0.103024  -0.096459  0  4.033402  0
C  C76  1  0.60518337  0.10953567  0.29333856  1  -0.092482  0  -0.097722  -0.155634  0  3.976034  0
C  C77  1  0.39481708  0.89046465  0.70666280  1  -0.092472  0  -0.097688  -0.155484  0  3.975905  0
C  C78  1  0.65398564  0.09794961  0.18181916  1  0.351021  0  0.082923  0.141519  0  4.033741  0
C  C79  1  0.34601466  0.90204968  0.81818095  1  0.35099  0  0.082901  0.141414  0  4.033784  0
C  C80  1  0.76173947  0.05200145  0.02552316  1  1.004753  0  0.160204  0.144334  0  3.896815  0
C  C81  1  0.23825981  0.94799784  0.97447675  1  1.004763  0  0.160175  0.144306  0  3.896788  0
C  C82  1  0.07754088  0.24422286  0.04347326  1  0.559643  0  0.139947  0.258868  0  4.271629  0
C  C83  1  0.92246074  0.75577850  0.95652051  1  0.560432  0  0.140085  0.259024  0  4.271843  0
C  C84  1  0.15694278  0.05555586  0.49622573  1  0.553346  0  0.1433  0.266488  0  4.237414  0
C  C85  1  0.84305578  0.94444550  0.50377376  1  0.553298  0  0.143243  0.266373  0  4.237591  0
S  S86  1  0.09657864  0.28552581  0.91684450  1  0.018672  0  -0.174363  -0.308201  0  2.84411  0
S  S87  1  0.90342268  0.71447347  0.08315763  1  0.018028  0  -0.174381  -0.308261  0  2.843773  0
S  S88  1  0.15631331  0.02168421  0.34025456  1  0.014858  0  -0.177066  -0.326874  0  2.981733  0
S  S89  1  0.84368715  0.97831612  0.65974680  1  0.014866  0  -0.177033  -0.326789  0  2.981761  0
N  N90  1  0.93674071  0.28985478  0.40602981  1  -1.200777  0  -0.38815  -0.323072  0  3.658197  0
N  N91  1  0.06325843  0.71014347  0.59397156  1  -1.200784  0  -0.38813  -0.323091  0  3.658208  0
N  N92  1  0.84094906  0.36987782  0.57533852  1  -1.23442  0  -0.241732  -0.020626  0  3.724225  0
N  N93  1  0.15905037  0.63012250  0.42465992  1  -1.234856  0  -0.241738  -0.020591  0  3.724113  0
N  N94  1  0.66312038  0.12778367  0.99229416  1  -1.230544  0  -0.2415  -0.017148  0  3.723213  0
N  N95  1  0.33688094  0.87221562  0.00770435  1  -1.230601  0  -0.241525  -0.017095  0  3.723201  0
N  N96  1  0.76045578  0.03160401  0.13829688  1  -1.18809  0  -0.39225  -0.341247  0  3.693314  0
N  N97  1  0.23954525  0.96839321  0.86170274  1  -1.188061  0  -0.392195  -0.34118  0  3.693249  0
N  N98  1  0.06286194  0.21742685  0.13659391  1  -1.31271  0  -0.447838  -0.472462  0  3.527088  0
N  N99  1  0.93713618  0.78257139  0.86340816  1  -1.312824  0  -0.447933  -0.4725  0  3.52759  0
N  N100  1  0.15725761  0.07830701  0.60850141  1  -1.274654  0  -0.434212  -0.44109  0  3.498416  0
N  N101  1  0.84274197  0.92169435  0.39149920  1  -1.2746  0  -0.434194  -0.441054  0  3.49854  0
