# generated using pymatgen
data_Cu3H22C22N6(ClO3)2
_symmetry_space_group_name_H-M   'P 1'
_cell_length_a   11.64922535
_cell_length_b   18.34786954
_cell_length_c   18.34409264
_cell_angle_alpha   84.22966780
_cell_angle_beta   71.46150693
_cell_angle_gamma   71.45007837
_symmetry_Int_Tables_number   1
_chemical_formula_structural   Cu3H22C22N6(ClO3)2
_chemical_formula_sum   'Cu12 H88 C88 N24 Cl8 O24'
_cell_volume   3524.25614210
_cell_formula_units_Z   4
loop_
 _symmetry_equiv_pos_site_id
 _symmetry_equiv_pos_as_xyz
  1  'x, y, z'
loop_
 _atom_site_type_symbol
 _atom_site_label
 _atom_site_symmetry_multiplicity
 _atom_site_fract_x
 _atom_site_fract_y
 _atom_site_fract_z
 _atom_site_occupancy
 _atom_site_pbe_bader_charge
 _atom_site_pbe_bader_spin_density
 _atom_site_pbe_cm5_charge
 _atom_site_pbe_ddec_charge
 _atom_site_pbe_ddec_spin_density
 _atom_site_pbe_ddec_sum_bond_order
 _atom_site_pbe_magmom
Cu  Cu0  1  0.42356811  0.59794659  0.25475961  1  1.03348  0.53271  0.711585  0.780189  0.683758  2.178038  0.533
Cu  Cu1  1  0.77685239  0.90127148  0.24511882  1  1.039756  0.541518  0.715703  0.786349  0.695406  2.179626  0.542
Cu  Cu2  1  0.67865120  0.74515140  0.09822510  1  1.032797  0.530253  0.709351  0.777642  0.679518  2.17537  0.531
Cu  Cu3  1  0.02194891  0.75444941  0.40150132  1  1.039671  0.542348  0.71565  0.786736  0.696276  2.178179  0.543
Cu  Cu4  1  0.57635649  0.40193735  0.74537804  1  1.035386  -0.52247  0.71368  0.782516  -0.728026  2.182015  -0.523
Cu  Cu5  1  0.22322798  0.09880604  0.75483947  1  1.037324  0.537597  0.713723  0.783897  0.690171  2.178363  0.538
Cu  Cu6  1  0.32152027  0.25488872  0.90169888  1  1.037556  0.533971  0.713448  0.783045  0.684706  2.178986  0.534
Cu  Cu7  1  0.97840564  0.24542569  0.59838386  1  1.042547  0.539463  0.719465  0.790121  0.693172  2.184935  0.54
Cu  Cu8  1  0.50031345  0.49979919  0.49983418  1  0.925854  0.381799  0.649244  0.736489  0.501749  2.391451  0.382
Cu  Cu9  1  0.00005901  0.00006887  0.99999531  1  0.92366  0.386265  0.649134  0.738693  0.507381  2.392939  0.386
Cu  Cu10  1  0.99995801  0.49988262  0.99997010  1  0.929619  -0.346254  0.656578  0.743764  -0.496073  2.406644  -0.347
Cu  Cu11  1  0.99991754  0.00005167  0.49998008  1  0.926694  0.39345  0.647005  0.737693  0.516708  2.388251  0.394
H  H12  1  0.96138990  0.75757452  0.56526726  1  0.062884  0.000289  0.107231  0.110417  -5e-06  1.010852  0.0
H  H13  1  0.94829994  0.72710293  0.70178382  1  0.052232  6.6e-05  0.100925  0.09812  3.7e-05  1.028275  0.0
H  H14  1  0.12841058  0.62986736  0.73656618  1  0.091225  9.1e-05  0.098784  0.100716  5.7e-05  1.027132  0.0
H  H15  1  0.32266959  0.56182944  0.63296686  1  0.090303  0.000464  0.101475  0.108591  6.5e-05  1.03719  0.0
H  H16  1  0.17121212  0.63186794  0.23395665  1  0.130965  0.002129  0.128302  0.061455  0.000827  1.010005  0.001
H  H17  1  0.35067476  0.67131527  0.04199969  1  0.073829  0.000408  0.114843  0.138733  0.000317  0.981859  0.0
H  H18  1  0.24179300  0.64705559  0.00557200  1  0.084776  0.000181  0.106615  0.129528  6.9e-05  1.000289  0.0
H  H19  1  0.21235937  0.74475557  0.03049902  1  0.087215  0.000453  0.10055  0.124754  0.000318  1.006605  0.0
H  H20  1  0.99999593  0.67668990  0.20195066  1  0.06324  6.2e-05  0.107674  0.121504  -4e-06  1.014515  0.0
H  H21  1  0.00315777  0.75249190  0.13320187  1  0.019068  0.000419  0.1009  0.116876  0.000139  1.010751  0.0
H  H22  1  0.01689946  0.65827368  0.10473944  1  0.113084  -2.4e-05  0.100649  0.133227  7.3e-05  1.011101  0.0
H  H23  1  0.78459388  0.74223639  0.93487294  1  0.078322  0.000301  0.107414  0.111571  1.7e-05  1.011532  0.0
H  H24  1  0.87720532  0.77267799  0.79824551  1  0.042388  8.3e-05  0.101099  0.097979  4.7e-05  1.028108  0.0
H  H25  1  0.99461261  0.87000482  0.76330742  1  0.091879  9.8e-05  0.09924  0.101217  4.7e-05  1.025707  0.0
H  H26  1  0.01749343  0.93794773  0.86673971  1  0.09366  0.000448  0.101821  0.108794  0.000156  1.034285  0.0
H  H27  1  0.53730604  0.86748067  0.26597604  1  0.133507  0.002342  0.128706  0.062381  0.001044  1.00871  0.002
H  H28  1  0.56433503  0.82806728  0.45795103  1  0.090902  0.000419  0.114922  0.139638  0.000315  0.980668  0.0
H  H29  1  0.39465924  0.85249929  0.49423326  1  0.090264  0.000177  0.106682  0.129797  2.6e-05  0.999373  0.0
H  H30  1  0.48789099  0.75469724  0.46958413  1  0.077537  0.000482  0.100438  0.124998  0.00033  1.007548  0.0
H  H31  1  0.37893569  0.82274448  0.29809655  1  0.05953  0.000109  0.107695  0.12166  2.3e-05  1.01405  0.0
H  H32  1  0.38895308  0.74700925  0.36693782  1  0.038257  0.000402  0.101526  0.118034  0.000124  1.009897  0.0
H  H33  1  0.28026144  0.84139237  0.39529696  1  0.10886  -0.000223  0.100601  0.133791  -0.000227  1.012135  0.0
H  H34  1  0.52708141  0.43497314  0.25763919  1  0.104198  -0.000557  0.107173  0.11061  -0.000466  1.011525  0.0
H  H35  1  0.65038568  0.29827637  0.22734332  1  0.056455  0.000112  0.101493  0.098957  6.7e-05  1.027616  0.0
H  H36  1  0.86518459  0.26324381  0.12980305  1  0.104684  -5e-06  0.099555  0.102137  -1.4e-05  1.026373  0.0
H  H37  1  0.95609305  0.36650788  0.06186542  1  0.088851  0.000803  0.101953  0.109218  0.000543  1.03504  0.0
H  H38  1  0.40508950  0.76586334  0.13202807  1  0.13694  0.00225  0.128358  0.061319  0.001013  1.009568  0.002
H  H39  1  0.39227752  0.95796752  0.17125733  1  0.087866  0.00041  0.114629  0.138162  0.000306  0.980826  0.0
H  H40  1  0.24702146  0.99415469  0.14686337  1  0.086334  0.000182  0.106522  0.128911  2.9e-05  1.001802  0.0
H  H41  1  0.24235701  0.96968006  0.24465134  1  0.088095  0.000473  0.100729  0.124769  0.000319  1.006561  0.0
H  H42  1  0.20187424  0.79803403  0.17659146  1  0.06108  0.000108  0.107728  0.121587  5.8e-05  1.014166  0.0
H  H43  1  0.13595425  0.86691583  0.25242143  1  0.056927  0.000384  0.101027  0.117456  0.000118  1.011524  0.0
H  H44  1  0.12165421  0.89519534  0.15806663  1  0.11967  -0.00022  0.100829  0.134414  -0.000224  1.011569  0.0
H  H45  1  0.71942907  0.06453274  0.24208044  1  0.07575  0.000273  0.107027  0.110646  -1.1e-05  1.010523  0.0
H  H46  1  0.67551628  0.20119047  0.27242887  1  0.052695  9e-05  0.101037  0.098245  5.8e-05  1.027211  0.0
H  H47  1  0.75787284  0.23619534  0.36986288  1  0.09065  0.000107  0.099477  0.10193  5.2e-05  1.024008  0.0
H  H48  1  0.88431073  0.13289728  0.43772444  1  0.083742  0.000457  0.101451  0.107651  0.000161  1.03519  0.0
H  H49  1  0.80306531  0.73387340  0.36798804  1  0.135505  0.002333  0.128613  0.062946  0.001035  1.009295  0.002
H  H50  1  0.02189095  0.54178626  0.32853064  1  0.091111  0.00033  0.114884  0.139655  0.000245  0.980404  0.0
H  H51  1  0.88838647  0.50566246  0.35306142  1  0.115247  0.000119  0.106955  0.130409  3e-05  1.000198  0.0
H  H52  1  0.95696208  0.53006577  0.25523749  1  0.081364  -0.000382  0.100199  0.12461  -0.000346  1.007058  0.0
H  H53  1  0.67639064  0.70172398  0.32342193  1  0.063532  0.00012  0.107923  0.121349  2.8e-05  1.015459  0.0
H  H54  1  0.75538396  0.63295363  0.24750862  1  0.050032  0.000447  0.101205  0.116983  0.000186  1.010951  0.0
H  H55  1  0.67517594  0.60455687  0.34188326  1  0.099464  -0.000223  0.10014  0.134043  -0.000218  1.012783  0.0
H  H56  1  0.03858322  0.24254398  0.43487812  1  0.065569  0.000284  0.107272  0.110399  -7e-06  1.010606  0.0
H  H57  1  0.05142057  0.27297768  0.29841043  1  0.055061  -6e-06  0.101182  0.098262  2e-06  1.027857  0.0
H  H58  1  0.87118588  0.37016791  0.26371054  1  0.081942  3.2e-05  0.09883  0.100535  2.3e-05  1.027213  0.0
H  H59  1  0.67690601  0.43804316  0.36733527  1  0.0919  0.00049  0.101482  0.109086  0.000185  1.036654  0.0
H  H60  1  0.82869723  0.36814647  0.76614718  1  0.132387  -0.00233  0.128241  0.061371  -0.001176  1.010257  -0.002
H  H61  1  0.64934359  0.32863759  0.95806584  1  0.074306  -0.000292  0.114815  0.138733  -0.000238  0.981392  0.0
H  H62  1  0.75825460  0.35291621  0.99445209  1  0.085132  -0.000119  0.106794  0.129718  -3.9e-05  1.000216  0.0
H  H63  1  0.78763630  0.25519100  0.96959414  1  0.086667  0.000399  0.100558  0.124772  0.000331  1.006269  0.0
H  H64  1  0.99998120  0.32331526  0.79808955  1  0.063341  -0.000141  0.107444  0.120974  -0.0001  1.014484  0.0
H  H65  1  0.99692659  0.24748794  0.86680861  1  0.019777  -0.000683  0.100802  0.116976  -0.000414  1.010859  0.0
H  H66  1  0.98306119  0.34173147  0.89529695  1  0.113259  0.000134  0.100569  0.133147  0.00017  1.011286  0.0
H  H67  1  0.21549615  0.25790911  0.06523708  1  0.074972  0.000312  0.107279  0.111063  2.6e-05  1.012108  0.0
H  H68  1  0.12280713  0.22743529  0.20183332  1  0.055949  8.1e-05  0.101074  0.097949  4.4e-05  1.027927  0.0
H  H69  1  0.00540908  0.13008884  0.23670776  1  0.091555  9.6e-05  0.099305  0.10142  4.6e-05  1.0255  0.0
H  H70  1  0.98262554  0.06217866  0.13322699  1  0.096641  0.000465  0.101749  0.108513  0.000164  1.033592  0.0
H  H71  1  0.46287543  0.13247147  0.73392502  1  0.133961  0.002312  0.128403  0.061671  0.001029  1.008967  0.002
H  H72  1  0.43578937  0.17194582  0.54197200  1  0.091905  0.000417  0.114769  0.139542  0.000314  0.98101  0.0
H  H73  1  0.60544431  0.14752934  0.50570011  1  0.089335  0.00018  0.106904  0.13021  2.8e-05  0.999591  0.0
H  H74  1  0.51219479  0.24533307  0.53029921  1  0.07846  0.000484  0.100235  0.125013  0.000326  1.008013  0.0
H  H75  1  0.62109101  0.17728244  0.70185477  1  0.060101  0.000115  0.107551  0.12139  2.8e-05  1.014819  0.0
H  H76  1  0.61113331  0.25302398  0.63299864  1  0.039783  0.000588  0.10132  0.117685  0.000287  1.01027  0.0
H  H77  1  0.71981887  0.15861846  0.60466313  1  0.109545  -0.000213  0.100597  0.133827  -0.000231  1.012826  0.0
H  H78  1  0.47294537  0.56496700  0.74234285  1  0.099287  -0.000281  0.10713  0.110437  -5.8e-05  1.011161  0.0
H  H79  1  0.34954051  0.70167132  0.77271467  1  0.058454  1.9e-05  0.101415  0.098713  7e-06  1.027638  0.0
H  H80  1  0.13481154  0.73664526  0.87027954  1  0.10583  -1.1e-05  0.099495  0.101936  -2.1e-05  1.026098  0.0
H  H81  1  0.04385109  0.63338460  0.93818056  1  0.08709  -0.000362  0.101892  0.108894  -2.8e-05  1.034757  0.0
H  H82  1  0.59472660  0.23415960  0.86796926  1  0.136966  0.002361  0.128604  0.061635  0.001094  1.009854  0.002
H  H83  1  0.60757979  0.04201578  0.82877204  1  0.086509  0.000418  0.11494  0.138891  0.000312  0.980498  0.0
H  H84  1  0.75286447  0.00586482  0.85314912  1  0.086768  0.000189  0.106719  0.129316  3.3e-05  1.001582  0.0
H  H85  1  0.75747655  0.03033887  0.75536492  1  0.088829  0.000473  0.100851  0.125191  0.00032  1.006611  0.0
H  H86  1  0.79798295  0.20196654  0.82346738  1  0.061677  0.000137  0.107752  0.121566  9.1e-05  1.014266  0.0
H  H87  1  0.86393869  0.13306234  0.74765181  1  0.058377  0.000385  0.101028  0.117436  0.000109  1.010892  0.0
H  H88  1  0.87811193  0.10481390  0.84203725  1  0.118519  -0.000211  0.100945  0.134583  -0.000218  1.011679  0.0
H  H89  1  0.28042714  0.93554942  0.75792494  1  0.076179  0.000267  0.107041  0.11052  -1.2e-05  1.010766  0.0
H  H90  1  0.32434195  0.79888018  0.72756668  1  0.054604  8.5e-05  0.101225  0.098301  5.4e-05  1.026868  0.0
H  H91  1  0.24195521  0.76390174  0.63011883  1  0.091567  0.000101  0.09961  0.102064  4.8e-05  1.023376  0.0
H  H92  1  0.11559246  0.86718829  0.56224133  1  0.083158  0.000439  0.101714  0.1082  0.00015  1.034647  0.0
H  H93  1  0.19703053  0.26604538  0.63190220  1  0.136373  0.002366  0.128776  0.063026  0.001048  1.009294  0.002
H  H94  1  0.97799425  0.45812967  0.67137432  1  0.091676  0.000298  0.115156  0.139887  0.000228  0.980601  0.0
H  H95  1  0.11139562  0.49434610  0.64692823  1  0.110564  9.7e-05  0.107435  0.130931  1.7e-05  0.999804  0.0
H  H96  1  0.04290094  0.46978753  0.74470382  1  0.082613  -0.000355  0.100575  0.124823  -0.000325  1.006897  0.0
H  H97  1  0.32367517  0.29828903  0.67640227  1  0.063626  0.000126  0.107945  0.121461  3.2e-05  1.015265  0.0
H  H98  1  0.24471939  0.36716737  0.75222668  1  0.054751  0.000503  0.101587  0.117543  0.000249  1.010026  0.0
H  H99  1  0.32484335  0.39547787  0.65780556  1  0.096004  -0.000149  0.100778  0.133724  -0.000181  1.011647  0.0
C  C100  1  0.36185399  0.59557750  0.41035042  1  1.310552  0.001673  0.200155  0.340237  0.00308  4.17808  0.001
C  C101  1  0.25427028  0.65201305  0.39121331  1  1.29493  0.003265  0.201256  0.345834  0.003932  4.182158  0.003
C  C102  1  0.14600229  0.67465078  0.52190056  1  0.397037  0.006918  0.098026  0.168928  0.005549  4.014907  0.006
C  C103  1  0.03848868  0.71372457  0.58074990  1  0.023052  0.002094  -0.092439  -0.161154  0.001389  3.988753  0.002
C  C104  1  0.03259098  0.69683195  0.65689657  1  -0.023531  -0.00042  -0.093778  -0.08152  -0.000277  4.032582  0.0
C  C105  1  0.13407653  0.64195233  0.67633848  1  -0.029742  0.000167  -0.092308  -0.078321  0.000132  4.02435  0.0
C  C106  1  0.24212637  0.60383941  0.61900073  1  -0.086055  0.001994  -0.094055  -0.176092  0.001189  3.999046  0.002
C  C107  1  0.24966085  0.61916385  0.54110165  1  0.435212  0.007672  0.096969  0.156697  0.006012  4.019483  0.006
C  C108  1  0.23570806  0.63873464  0.17688263  1  1.358755  -0.000653  0.176684  0.295975  0.000768  4.065723  -0.001
C  C109  1  0.25060346  0.68418462  0.04563279  1  0.248634  0.000933  -0.130086  -0.270831  0.000855  3.852065  0.001
C  C110  1  0.04164326  0.69046797  0.14177137  1  0.303788  0.000854  -0.132385  -0.271582  0.000616  3.870094  0.001
C  C111  1  0.86827668  0.90401941  0.08951627  1  1.303759  0.001663  0.200052  0.33995  0.003147  4.181636  0.001
C  C112  1  0.79804277  0.84765971  0.10862499  1  1.271904  0.003462  0.200899  0.344707  0.00408  4.181898  0.003
C  C113  1  0.84289945  0.82514613  0.97801961  1  0.425786  0.006879  0.097582  0.166866  0.005463  4.018029  0.006
C  C114  1  0.83325570  0.78608447  0.91922887  1  -0.040608  0.00202  -0.091782  -0.162358  0.00127  3.992258  0.002
C  C115  1  0.88636821  0.80297764  0.84306050  1  -0.012048  -0.000359  -0.093584  -0.079722  -0.000235  4.030741  0.0
C  C116  1  0.95224400  0.85790090  0.82355318  1  -0.035774  0.000193  -0.092105  -0.078577  0.000128  4.021069  0.0
C  C117  1  0.96495578  0.89599823  0.88081831  1  -0.023613  0.001995  -0.094013  -0.175915  0.001234  3.996428  0.002
C  C118  1  0.91010458  0.88066808  0.95876119  1  0.393363  0.007323  0.097174  0.158542  0.005723  4.01951  0.006
C  C119  1  0.55179135  0.86045984  0.32298034  1  1.345059  -0.000106  0.176533  0.294202  0.001406  4.062769  -0.001
C  C120  1  0.48077980  0.81522322  0.45431831  1  0.240073  0.000951  -0.129777  -0.272169  0.000858  3.849586  0.001
C  C121  1  0.37419908  0.80899516  0.35827435  1  0.281987  0.000936  -0.132909  -0.27376  0.000717  3.870941  0.001
C  C122  1  0.77264170  0.58933053  0.09584298  1  1.328581  0.005728  0.202134  0.343001  0.00498  4.181339  0.005
C  C123  1  0.64547683  0.60863745  0.15232842  1  1.265926  -0.003946  0.203021  0.34813  -0.001523  4.180651  -0.004
C  C124  1  0.66840453  0.47802342  0.17476024  1  0.454416  -9.9e-05  0.098206  0.168069  0.000684  4.015949  0.0
C  C125  1  0.61974391  0.41925016  0.21382924  1  0.010102  0.001875  -0.091166  -0.159667  0.001139  3.989423  0.002
C  C126  1  0.68985771  0.34305212  0.19699045  1  -0.088796  -0.001024  -0.093035  -0.080049  -0.000702  4.034576  -0.001
C  C127  1  0.81070967  0.32348559  0.14202345  1  -0.047595  0.00088  -0.092927  -0.080812  0.000547  4.024825  0.001
C  C128  1  0.86161254  0.38069719  0.10392951  1  -0.023671  -0.000404  -0.094268  -0.175656  -0.000109  3.995834  0.0
C  C129  1  0.79145894  0.45862425  0.11923900  1  0.356164  0.006553  0.096769  0.156128  0.004031  4.01743  0.007
C  C130  1  0.41246568  0.82292802  0.13892696  1  1.339995  -4.4e-05  0.176079  0.295055  0.001374  4.063954  -0.001
C  C131  1  0.29586398  0.95431894  0.18412110  1  0.238238  0.000927  -0.129808  -0.26931  0.000834  3.850133  0.0
C  C132  1  0.18323698  0.85822151  0.19041158  1  0.259483  0.000877  -0.132701  -0.274137  0.000687  3.872359  0.001
C  C133  1  0.95788690  0.91006215  0.40386468  1  1.333865  0.001755  0.200886  0.342079  0.003227  4.176373  0.001
C  C134  1  0.90670395  0.89084967  0.34754574  1  1.30197  0.003335  0.200346  0.341858  0.004057  4.181418  0.003
C  C135  1  0.82096163  0.02149225  0.32497014  1  0.406647  0.007027  0.097179  0.167573  0.005611  4.01599  0.006
C  C136  1  0.75242845  0.08023334  0.28593060  1  0.012071  0.002026  -0.091355  -0.161299  0.001316  3.987422  0.002
C  C137  1  0.72944593  0.15641415  0.30278307  1  -0.047217  -0.000346  -0.092978  -0.079615  -0.000223  4.03248  0.0
C  C138  1  0.77585252  0.17594729  0.35770294  1  -0.052431  0.000185  -0.092513  -0.079928  0.000124  4.023571  0.0
C  C139  1  0.84598728  0.11871609  0.39573269  1  -0.039917  0.002116  -0.093355  -0.173372  0.001267  3.994767  0.002
C  C140  1  0.86916072  0.04076658  0.38039145  1  0.432529  0.007473  0.097004  0.157307  0.005854  4.018551  0.006
C  C141  1  0.87440994  0.67678049  0.36102487  1  1.354011  -0.000203  0.175336  0.291487  0.001366  4.062918  -0.001
C  C142  1  0.93463434  0.54546021  0.31574197  1  0.205971  0.00032  -0.129954  -0.272883  0.000219  3.851186  0.0
C  C143  1  0.73198189  0.64157839  0.30951832  1  0.268711  0.000962  -0.131977  -0.271778  0.000781  3.871916  0.001
C  C144  1  0.63827523  0.40429735  0.58989309  1  1.334975  0.000803  0.200471  0.339969  -0.000571  4.184614  0.001
C  C145  1  0.74599705  0.34803948  0.60908003  1  1.29758  0.004168  0.20095  0.344211  0.002585  4.18319  0.004
C  C146  1  0.85388216  0.32539537  0.47833349  1  0.392219  0.004752  0.098237  0.169532  0.003731  4.012905  0.003
C  C147  1  0.96136715  0.28634914  0.41944557  1  0.035728  0.001437  -0.092006  -0.160629  0.000959  3.987897  0.001
C  C148  1  0.96713244  0.30322855  0.34331842  1  -0.043819  6.9e-05  -0.093503  -0.081206  5.4e-05  4.032487  0.0
C  C149  1  0.86555600  0.35805074  0.32392826  1  -0.014528  -0.000221  -0.091451  -0.076255  -0.000134  4.023152  0.0
C  C150  1  0.75747600  0.39607515  0.38129707  1  -0.078309  0.002694  -0.093823  -0.176311  0.001671  3.999011  0.002
C  C151  1  0.75013300  0.38075815  0.45915667  1  0.428926  0.003139  0.097401  0.15625  0.002283  4.016369  0.001
C  C152  1  0.76427312  0.36118376  0.82321287  1  1.358721  0.000282  0.176566  0.295416  -0.00168  4.065975  0.001
C  C153  1  0.74941774  0.31575387  0.95443438  1  0.247919  -0.000246  -0.129973  -0.270586  -0.000205  3.850323  0.0
C  C154  1  0.95836687  0.30950844  0.85826705  1  0.303314  -0.001054  -0.131918  -0.271038  -0.000972  3.869231  -0.001
C  C155  1  0.13181441  0.09611162  0.91049588  1  1.309706  0.001723  0.200379  0.340685  0.003168  4.182818  0.001
C  C156  1  0.20206452  0.15247934  0.89135880  1  1.26989  0.003433  0.200666  0.344743  0.00403  4.182883  0.003
C  C157  1  0.15726549  0.17498780  0.02201771  1  0.421752  0.007027  0.097979  0.167855  0.00558  4.016886  0.006
C  C158  1  0.16685971  0.21404373  0.08083006  1  -0.035326  0.002104  -0.091995  -0.162534  0.001325  3.99192  0.002
C  C159  1  0.11367684  0.19714768  0.15699600  1  -0.030859  -0.000379  -0.093034  -0.079092  -0.000251  4.028999  0.0
C  C160  1  0.04779674  0.14222612  0.17647511  1  -0.035125  0.000232  -0.09233  -0.079079  0.000154  4.020002  0.0
C  C161  1  0.03514083  0.10414027  0.11918730  1  -0.024777  0.002018  -0.093522  -0.174767  0.001251  3.994295  0.002
C  C162  1  0.09003515  0.11947561  0.04125392  1  0.399417  0.007485  0.097438  0.158601  0.005844  4.01882  0.006
C  C163  1  0.44833406  0.13954520  0.67693304  1  1.344454  -9.8e-05  0.176537  0.294949  0.001396  4.063402  -0.001
C  C164  1  0.51932466  0.18481057  0.54560434  1  0.240113  0.000959  -0.13014  -0.272822  0.000861  3.849967  0.001
C  C165  1  0.62587536  0.19103406  0.64166883  1  0.278169  0.001053  -0.13315  -0.274182  0.000806  3.872819  0.001
C  C166  1  0.22752378  0.41049686  0.90405330  1  1.317608  -0.000675  0.201174  0.341932  0.000247  4.18176  -0.001
C  C167  1  0.35443705  0.39127978  0.84774447  1  1.262424  -0.003409  0.202209  0.34752  -0.002497  4.182208  -0.004
C  C168  1  0.33156244  0.52194379  0.82527977  1  0.454766  -0.004209  0.097795  0.168355  -0.003715  4.016274  -0.003
C  C169  1  0.38030540  0.58068081  0.78618193  1  0.011735  -0.001517  -0.091438  -0.159956  -0.001057  3.989391  -0.001
C  C170  1  0.31014596  0.65686738  0.80305759  1  -0.090006  4.7e-05  -0.092902  -0.079763  8e-06  4.033938  0.0
C  C171  1  0.18926847  0.67640232  0.85804694  1  -0.044623  0.000259  -0.092779  -0.08071  0.000137  4.023674  0.0
C  C172  1  0.13834335  0.61918667  0.89611357  1  -0.022914  -0.002049  -0.093553  -0.17392  -0.001428  3.993531  -0.002
C  C173  1  0.20861067  0.54126930  0.88071724  1  0.353471  -0.003352  0.096662  0.155536  -0.002801  4.017453  -0.001
C  C174  1  0.58738211  0.17709779  0.86106440  1  1.346009  -0.000114  0.176411  0.294998  0.001345  4.061025  -0.001
C  C175  1  0.70398401  0.04568160  0.81589991  1  0.239311  0.000946  -0.129807  -0.270098  0.000847  3.849515  0.001
C  C176  1  0.81659822  0.14178137  0.80965361  1  0.259875  0.000919  -0.13253  -0.273692  0.000715  3.871874  0.001
C  C177  1  0.04214001  0.09000388  0.59610666  1  1.329606  0.00172  0.201389  0.341737  0.003219  4.176979  0.001
C  C178  1  0.09333203  0.10917608  0.65237157  1  1.301638  0.003314  0.200167  0.341597  0.004062  4.181235  0.003
C  C179  1  0.17892322  0.97859105  0.67501871  1  0.404581  0.006905  0.097091  0.167032  0.005516  4.015123  0.006
C  C180  1  0.24743000  0.91984250  0.71407933  1  0.012283  0.002024  -0.091258  -0.160621  0.001316  3.986955  0.002
C  C181  1  0.27040811  0.84366916  0.69721576  1  -0.060033  -0.000414  -0.092654  -0.079229  -0.000271  4.031479  0.0
C  C182  1  0.22401057  0.82414922  0.64227662  1  -0.03863  0.000181  -0.092144  -0.079135  0.000122  4.02174  0.0
C  C183  1  0.15390064  0.88137868  0.60423107  1  -0.039836  0.002078  -0.093208  -0.174193  0.001242  3.993667  0.002
C  C184  1  0.13073038  0.95932821  0.61958541  1  0.434498  0.007342  0.097761  0.158791  0.005773  4.016873  0.006
C  C185  1  0.12567766  0.32312505  0.63884043  1  1.352429  -0.000117  0.175774  0.292302  0.001436  4.061772  -0.001
C  C186  1  0.06523344  0.45446838  0.68417317  1  0.210239  0.000298  -0.12994  -0.272834  0.000191  3.851393  0.0
C  C187  1  0.26808612  0.35844835  0.69023167  1  0.267422  0.00104  -0.131774  -0.271273  0.00084  3.870322  0.001
N  N188  1  0.35550611  0.58078906  0.48343479  1  -1.199791  0.071126  -0.370143  -0.332285  0.046954  3.642684  0.061
N  N189  1  0.15164271  0.68877700  0.44573015  1  -1.255756  0.073979  -0.373841  -0.359181  0.048865  3.602799  0.061
N  N190  1  0.17913658  0.66991201  0.12391583  1  -1.233466  0.005449  -0.271256  0.048876  0.003349  3.728545  0.005
N  N191  1  0.92002278  0.91893433  0.01643370  1  -1.200219  0.070798  -0.368648  -0.332303  0.0466  3.641778  0.061
N  N192  1  0.78672513  0.81090216  0.05418655  1  -1.227367  0.070243  -0.373368  -0.356006  0.046411  3.603003  0.058
N  N193  1  0.47348786  0.82933657  0.37600616  1  -1.217189  0.006748  -0.269849  0.052631  0.00417  3.725356  0.005
N  N194  1  0.83933940  0.51637155  0.08103931  1  -1.210346  -0.05663  -0.368412  -0.328215  -0.041028  3.647833  -0.05
N  N195  1  0.59762656  0.55414495  0.18902411  1  -1.228101  0.07527  -0.374203  -0.358969  0.049925  3.607031  0.063
N  N196  1  0.30286108  0.87597217  0.17002398  1  -1.228989  0.006675  -0.271265  0.050337  0.004126  3.726179  0.005
N  N197  1  0.93673162  0.98314475  0.41869664  1  -1.216512  0.072037  -0.368555  -0.332618  0.047506  3.638748  0.062
N  N198  1  0.84081793  0.94529501  0.31083512  1  -1.26212  0.073469  -0.373239  -0.356451  0.04846  3.602799  0.061
N  N199  1  0.84906455  0.62382078  0.32983855  1  -1.215871  0.006794  -0.271418  0.051016  0.004261  3.727102  0.005
N  N200  1  0.64427148  0.41891811  0.51702247  1  -1.221474  0.059112  -0.369922  -0.328983  0.038949  3.648913  0.052
N  N201  1  0.84848332  0.31122145  0.55452339  1  -1.256508  0.068284  -0.37377  -0.359418  0.045251  3.600547  0.057
N  N202  1  0.82088087  0.32999256  0.87613859  1  -1.233949  -0.006663  -0.271206  0.049628  -0.004515  3.728426  -0.005
N  N203  1  0.08008722  0.08122316  0.98358520  1  -1.202083  0.070729  -0.36876  -0.332487  0.046571  3.64094  0.061
N  N204  1  0.21343945  0.18919266  0.94582730  1  -1.229834  0.07281  -0.373215  -0.356802  0.048074  3.602537  0.06
N  N205  1  0.52659202  0.17071333  0.62392393  1  -1.218049  0.006651  -0.2697  0.053063  0.004099  3.7255  0.005
N  N206  1  0.16062368  0.48346560  0.91885351  1  -1.206889  -0.058359  -0.368842  -0.329622  -0.042016  3.644016  -0.051
N  N207  1  0.40236073  0.44575961  0.81102337  1  -1.225988  -0.064152  -0.374812  -0.360403  -0.046233  3.604294  -0.054
N  N208  1  0.69695310  0.12404275  0.83000191  1  -1.236451  0.006826  -0.271124  0.050286  0.004221  3.725792  0.005
N  N209  1  0.06315468  0.01696037  0.58127621  1  -1.219094  0.07149  -0.368301  -0.332349  0.047161  3.640242  0.062
N  N210  1  0.15912198  0.05478311  0.68915197  1  -1.261606  0.072241  -0.372923  -0.356202  0.047664  3.602331  0.06
N  N211  1  0.15093023  0.37613647  0.66998866  1  -1.214476  0.00668  -0.270924  0.050785  0.004171  3.727532  0.005
Cl  Cl212  1  0.59686499  0.58938743  0.50268305  1  -0.58455  0.138527  -0.361351  -0.517858  0.090037  0.979225  0.106
Cl  Cl213  1  0.18930096  0.91039850  0.99591750  1  -0.582408  0.135965  -0.360169  -0.5149  0.088569  0.978025  0.104
Cl  Cl214  1  0.09956014  0.49572726  0.08922917  1  -0.574459  -0.129291  -0.355505  -0.509302  -0.092519  0.98163  -0.099
Cl  Cl215  1  0.18549601  0.00371475  0.41042585  1  -0.584218  0.137739  -0.361456  -0.516858  0.08962  0.977251  0.105
Cl  Cl216  1  0.40532189  0.40978898  0.49510556  1  -0.585281  0.141328  -0.3635  -0.519458  0.091904  0.972474  0.108
Cl  Cl217  1  0.81084619  0.08976229  0.00394591  1  -0.582659  0.135564  -0.360272  -0.515353  0.088314  0.97847  0.103
Cl  Cl218  1  0.90006817  0.50394160  0.91082558  1  -0.575359  -0.13039  -0.35616  -0.510331  -0.093319  0.981187  -0.1
Cl  Cl219  1  0.81433268  0.99648012  0.58961482  1  -0.584833  0.137465  -0.361536  -0.517119  0.089436  0.977591  0.105
O  O220  1  0.45926770  0.56184033  0.35393154  1  -1.103815  0.10226  -0.32154  -0.516229  0.065611  2.348342  0.092
O  O221  1  0.26350020  0.66488505  0.31902137  1  -1.112754  0.075412  -0.33555  -0.538893  0.048474  2.414488  0.068
O  O222  1  0.35496358  0.61953765  0.16461486  1  -1.126491  0.0696  -0.319667  -0.460908  0.045092  2.39966  0.062
O  O223  1  0.87563883  0.93760716  0.14599344  1  -1.094763  0.10543  -0.321364  -0.517306  0.067618  2.346571  0.095
O  O224  1  0.74785157  0.83481652  0.18087647  1  -1.110919  0.079689  -0.335211  -0.537613  0.051147  2.413437  0.072
O  O225  1  0.63986062  0.87944344  0.33513188  1  -1.123834  0.072459  -0.318933  -0.460202  0.046959  2.399275  0.065
O  O226  1  0.81350947  0.64566485  0.06215608  1  -1.098172  0.099109  -0.322846  -0.519831  0.064015  2.353024  0.089
O  O227  1  0.58266072  0.68081929  0.16474484  1  -1.110307  0.076605  -0.332766  -0.533943  0.049269  2.415752  0.069
O  O228  1  0.51946878  0.83510920  0.11985143  1  -1.123718  0.06947  -0.319316  -0.460301  0.045111  2.399023  0.062
O  O229  1  0.02150189  0.85361460  0.43756943  1  -1.100763  0.105314  -0.321258  -0.516202  0.067476  2.344519  0.095
O  O230  1  0.92887937  0.81858640  0.33473545  1  -1.113297  0.079605  -0.335337  -0.53757  0.051085  2.412962  0.072
O  O231  1  0.97463391  0.66448259  0.38007141  1  -1.122426  0.072116  -0.317688  -0.457614  0.046799  2.396756  0.065
O  O232  1  0.54073118  0.43807707  0.64633496  1  -1.10183  -0.088507  -0.322559  -0.518194  -0.062175  2.347634  -0.08
O  O233  1  0.73677126  0.33546699  0.68126167  1  -1.11118  -0.077252  -0.333365  -0.534276  -0.054335  2.41592  -0.069
O  O234  1  0.64502091  0.38025483  0.83546080  1  -1.126416  -0.070107  -0.319219  -0.46035  -0.049396  2.399529  -0.063
O  O235  1  0.12442583  0.06251930  0.85404560  1  -1.094399  0.104071  -0.321756  -0.517718  0.066787  2.347473  0.094
O  O236  1  0.25220963  0.16534727  0.81911929  1  -1.110184  0.078358  -0.33548  -0.538238  0.050323  2.414237  0.07
O  O237  1  0.36024806  0.12058403  0.66479514  1  -1.12412  0.071275  -0.319223  -0.460601  0.046189  2.399603  0.064
O  O238  1  0.18654445  0.35412577  0.93776065  1  -1.092884  0.089652  -0.322988  -0.519902  0.057883  2.349778  0.081
O  O239  1  0.41750816  0.31907480  0.83516892  1  -1.111208  0.076734  -0.333495  -0.535751  0.049531  2.414719  0.069
O  O240  1  0.48033145  0.16492234  0.88010950  1  -1.122087  0.071158  -0.319009  -0.45953  0.046171  2.397499  0.064
O  O241  1  0.97855229  0.14654282  0.56237321  1  -1.096569  0.107636  -0.32138  -0.515879  0.068992  2.343789  0.097
O  O242  1  0.07125180  0.18149617  0.66509083  1  -1.112469  0.081476  -0.335521  -0.537076  0.052297  2.412777  0.073
O  O243  1  0.02542422  0.33537409  0.61980077  1  -1.12249  0.073869  -0.317497  -0.457481  0.047984  2.396431  0.066
