# generated using pymatgen
data_Zr3H18C25O16F7
_symmetry_space_group_name_H-M   'P 1'
_cell_length_a   14.30051975
_cell_length_b   17.78260551
_cell_length_c   23.82105140
_cell_angle_alpha   88.34622402
_cell_angle_beta   89.50691354
_cell_angle_gamma   86.72177604
_symmetry_Int_Tables_number   1
_chemical_formula_structural   Zr3H18C25O16F7
_chemical_formula_sum   'Zr12 H72 C100 O64 F28'
_cell_volume   6045.12668455
_cell_formula_units_Z   4
loop_
 _symmetry_equiv_pos_site_id
 _symmetry_equiv_pos_as_xyz
  1  'x, y, z'
loop_
 _atom_site_type_symbol
 _atom_site_label
 _atom_site_symmetry_multiplicity
 _atom_site_fract_x
 _atom_site_fract_y
 _atom_site_fract_z
 _atom_site_occupancy
 _atom_site_pbe_bader_charge
 _atom_site_pbe_bader_spin_density
 _atom_site_pbe_cm5_charge
 _atom_site_pbe_ddec_charge
 _atom_site_pbe_ddec_spin_density
 _atom_site_pbe_ddec_sum_bond_order
 _atom_site_pbe_magmom
Zr  Zr0  1  0.47985225  0.37933490  0.45528151  1  2.618222  0  1.576588  2.348701  0  2.785088  0
Zr  Zr1  1  0.55788667  0.58827711  0.56579014  1  2.585724  0  1.55124  2.314726  0  2.804227  0
Zr  Zr2  1  0.59768941  0.55323789  0.42181906  1  2.617521  0  1.560139  2.384761  0  2.817379  0
Zr  Zr3  1  0.45969648  0.41645345  0.59871082  1  2.61074  0  1.5638  2.362172  0  2.789798  0
Zr  Zr4  1  0.68295081  0.41894593  0.53072825  1  2.598042  0  1.522631  2.363166  0  2.831103  0
Zr  Zr5  1  0.35473315  0.54554714  0.49653163  1  2.61742  0  1.550803  2.380432  0  2.775613  0
Zr  Zr6  1  0.07841611  0.06806109  0.95902960  1  2.60737  0  1.574036  2.337884  0  2.785361  0
Zr  Zr7  1  0.98232412  0.86154852  0.07775968  1  2.598051  0  1.565366  2.323055  0  2.797029  0
Zr  Zr8  1  0.97409797  0.89502151  0.93175875  1  2.625761  0  1.564118  2.386401  0  2.792275  0
Zr  Zr9  1  0.08469056  0.03300285  0.10542457  1  2.629768  0  1.568652  2.394957  0  2.757514  0
Zr  Zr10  1  0.86781141  0.03212431  0.02774703  1  2.617044  0  1.562006  2.391392  0  2.748619  0
Zr  Zr11  1  0.19470541  0.89942001  0.00890237  1  2.610116  0  1.543589  2.378719  0  2.764421  0
H  H12  1  0.57842129  0.30036424  0.55389954  1  0.630586  0  0.324103  0.435649  0  0.849177  0
H  H13  1  0.73780978  0.56483994  0.51532993  1  0.613965  0  0.322375  0.430965  0  0.859639  0
H  H14  1  0.38357634  0.56540302  0.61600473  1  0.620863  0  0.334701  0.436517  0  0.844781  0
H  H15  1  0.37554525  0.48830648  0.38808093  1  0.615119  0  0.326386  0.428215  0  0.859923  0
H  H16  1  0.84932901  0.44326344  0.49632105  1  0.662165  0  0.29394  0.39714  0  0.933268  0
H  H17  1  0.50205607  0.60831546  0.33245709  1  0.610578  0  0.288895  0.38153  0  0.937306  0
H  H18  1  0.33194482  0.67831188  0.43184859  1  0.603606  0  0.321507  0.408424  0  0.878419  0
H  H19  1  0.77174138  0.32451169  0.60586039  1  0.562344  0  0.284321  0.381494  0  0.924022  0
H  H20  1  0.51588132  0.34688275  0.69737896  1  0.646351  0  0.329453  0.417663  0  0.877104  0
H  H21  1  0.32527894  0.44616376  0.67520571  1  0.595117  0  0.29494  0.39113  0  0.910791  0
H  H22  1  0.19345934  0.51210322  0.54668329  1  0.63297  0  0.320531  0.429222  0  0.860446  0
H  H23  1  0.83490465  0.44648725  0.59760657  1  0.614832  0  0.2916  0.391525  0  0.908334  0
H  H24  1  0.68370596  0.68480688  0.60976848  1  0.625135  0  0.333776  0.425727  0  0.860393  0
H  H25  1  0.35480679  0.27930340  0.41559089  1  0.655551  0  0.327363  0.419686  0  0.874202  0
H  H26  1  0.20778213  0.55038194  0.42883884  1  0.614343  0  0.294063  0.402735  0  0.893769  0
H  H27  1  0.46912386  0.28460036  0.66166741  1  0.632604  0  0.333511  0.418513  0  0.87339  0
H  H28  1  0.65194971  0.62655659  0.65831952  1  0.657163  0  0.316115  0.411117  0  0.900476  0
H  H29  1  0.77614103  0.51401597  0.40921909  1  0.643931  0  0.27933  0.40607  0  0.915389  0
H  H30  1  0.82880680  0.38431070  0.44862410  1  0.631796  0  0.327565  0.413541  0  0.876913  0
H  H31  1  0.26696493  0.48019697  0.59623336  1  0.638897  0  0.285571  0.400543  0  0.935544  0
H  H32  1  0.41216774  0.62751291  0.39677378  1  0.653186  0  0.276787  0.411622  0  0.932222  0
H  H33  1  0.39727365  0.32489739  0.36331197  1  0.647968  0  0.318331  0.405961  0  0.903209  0
H  H34  1  0.98915975  0.15140460  0.04603332  1  0.617969  0  0.330832  0.426502  0  0.85558  0
H  H35  1  0.81710066  0.88019459  0.00943454  1  0.624387  0  0.325708  0.421308  0  0.868574  0
H  H36  1  0.15415727  0.88480245  0.12931718  1  0.589123  0  0.328488  0.424944  0  0.859699  0
H  H37  1  0.17679951  0.94758762  0.90205531  1  0.617361  0  0.320837  0.423929  0  0.867776  0
H  H38  1  0.70661457  0.99866171  0.97872896  1  0.609737  0  0.316022  0.399687  0  0.893989  0
H  H39  1  0.06802467  0.84073179  0.84277869  1  0.588927  0  0.298405  0.392166  0  0.909923  0
H  H40  1  0.21177921  0.75554920  0.95654832  1  0.653658  0  0.303359  0.389739  0  0.924339  0
H  H41  1  0.79260669  0.09285739  0.11775686  1  0.621468  0  0.312719  0.407761  0  0.891052  0
H  H42  1  0.02112084  0.15713061  0.16300687  1  0.589024  0  0.299102  0.392008  0  0.907229  0
H  H43  1  0.25418178  0.06400659  0.14013902  1  0.604626  0  0.302204  0.394658  0  0.904482  0
H  H44  1  0.33818033  0.88407977  0.09590893  1  0.590242  0  0.327501  0.409228  0  0.873769  0
H  H45  1  0.74250336  0.95494147  0.08916969  1  0.591062  0  0.281105  0.394436  0  0.917128  0
H  H46  1  0.82579828  0.78493137  0.11033295  1  0.646564  0  0.327402  0.41755  0  0.876379  0
H  H47  1  0.23160788  0.14847082  0.92346177  1  0.661794  0  0.326863  0.422279  0  0.874737  0
H  H48  1  0.35588547  0.94924543  0.98167571  1  0.599658  0  0.287483  0.392066  0  0.911061  0
H  H49  1  0.90149185  0.11714921  0.12467099  1  0.65458  0  0.281395  0.4078  0  0.930954  0
H  H50  1  0.85510601  0.83341871  0.16139007  1  0.64976  0  0.321028  0.408528  0  0.896911  0
H  H51  1  0.83101459  0.91634952  0.86294420  1  0.599485  0  0.304143  0.398805  0  0.897533  0
H  H52  1  0.78519291  0.97005826  0.93240241  1  0.650998  0  0.281056  0.404128  0  0.938126  0
H  H53  1  0.27600443  0.96483231  0.10505108  1  0.638098  0  0.278196  0.407396  0  0.936323  0
H  H54  1  0.14595849  0.80723278  0.91470309  1  0.632958  0  0.282453  0.400648  0  0.940282  0
H  H55  1  0.18846053  0.11333984  0.86926739  1  0.64873  0  0.331947  0.41984  0  0.872041  0
H  H56  1  0.19556072  0.65820290  0.17694298  1  0.128821  0  0.124784  0.153168  0  0.957275  0
H  H57  1  0.29170430  0.51761479  0.00778400  1  0.069107  0  0.117476  0.144689  0  0.976092  0
H  H58  1  0.14644116  0.27603025  0.13254182  1  0.121738  0  0.11963  0.145378  0  0.971554  0
H  H59  1  0.39191300  0.36309059  0.00205235  1  0.111024  0  0.109631  0.133867  0  1.006318  0
H  H60  1  0.65357984  0.36134043  0.01356730  1  0.11396  0  0.113387  0.139961  0  1.003865  0
H  H61  1  0.42603004  0.57876364  0.03089131  1  0.110463  0  0.11227  0.142157  0  1.008399  0
H  H62  1  0.80114746  0.72472692  0.90614349  1  0.148039  0  0.125621  0.156998  0  0.971548  0
H  H63  1  0.79062619  0.49636316  0.02859841  1  0.093049  0  0.113898  0.141606  0  0.979048  0
H  H64  1  0.88522715  0.44885633  0.95045135  1  0.124685  0  0.113133  0.143129  0  0.998242  0
H  H65  1  0.72016025  0.21534135  0.92258878  1  0.130593  0  0.126854  0.157964  0  0.958137  0
H  H66  1  0.46978488  0.31887494  0.26930683  1  0.115988  0  0.118479  0.142274  0  0.978358  0
H  H67  1  0.46705344  0.55363733  0.15351437  1  0.093792  0  0.111479  0.135027  0  0.984577  0
H  H68  1  0.72082865  0.50922317  0.73795224  1  0.076366  0  0.120379  0.146292  0  0.966908  0
H  H69  1  0.50007993  0.48128703  0.89813447  1  0.066621  0  0.107876  0.130822  0  1.007054  0
H  H70  1  0.66822738  0.97170342  0.45879533  1  0.102954  0  0.111934  0.136677  0  1.001942  0
H  H71  1  0.82442084  0.71549701  0.45030725  1  0.132273  0  0.125431  0.154625  0  0.958467  0
H  H72  1  0.69545643  0.16614847  0.52957227  1  0.072221  0  0.120643  0.148391  0  0.966905  0
H  H73  1  0.82254109  0.08509173  0.34499653  1  0.106879  0  0.112117  0.136966  0  1.002005  0
H  H74  1  0.04742405  0.95264207  0.39513780  1  0.101917  0  0.110324  0.133524  0  1.007003  0
H  H75  1  0.82363218  0.92660600  0.23993032  1  0.089266  0  0.117614  0.140627  0  0.975276  0
H  H76  1  0.88634646  0.89861019  0.53329349  1  0.118294  0  0.114442  0.13905  0  0.9975  0
H  H77  1  0.12563302  0.08424307  0.50107959  1  0.10007  0  0.109598  0.137432  0  1.018134  0
H  H78  1  0.10847569  0.85515085  0.56939707  1  0.149869  0  0.103648  0.129101  0  1.068081  0
H  H79  1  0.45081831  0.83893868  0.58983181  1  0.099876  0  0.120184  0.149498  0  0.971603  0
H  H80  1  0.28887140  0.01727686  0.51196611  1  0.097399  0  0.11586  0.139685  0  0.978038  0
H  H81  1  0.25817712  0.24436743  0.62693435  1  0.137623  0  0.121493  0.150859  0  0.975266  0
H  H82  1  0.98868981  0.04068419  0.63877930  1  0.089174  0  0.111009  0.132247  0  0.999213  0
H  H83  1  0.20725718  0.97688154  0.79514683  1  0.067168  0  0.117621  0.142228  0  0.974182  0
C  C84  1  0.16530273  0.99551020  0.59856063  1  0.084502  0  0.031439  0.086166  0  3.69048  0
C  C85  1  0.85997252  0.97559439  0.43089766  1  0.099124  0  0.024017  0.07976  0  3.769323  0
C  C86  1  0.66367991  0.27231852  0.44931559  1  1.631697  0  0.24031  0.671257  0  4.124362  0
C  C87  1  0.38028666  0.26232769  0.54406442  1  1.612333  0  0.235748  0.659842  0  4.122635  0
C  C88  1  0.53546736  0.43423587  0.32687993  1  1.604385  0  0.230467  0.646203  0  4.15679  0
C  C89  1  0.64261124  0.71136684  0.47970965  1  1.621419  0  0.235008  0.657058  0  4.153139  0
C  C90  1  0.37924252  0.70382492  0.56134258  1  1.600745  0  0.238566  0.659998  0  4.109689  0
C  C91  1  0.53688299  0.51378748  0.70390950  1  1.600676  0  0.236185  0.670016  0  4.12121  0
C  C92  1  0.68908415  0.47878062  0.93361367  1  0.07708  0  0.026844  0.079137  0  3.720614  0
C  C93  1  0.37558205  0.45069354  0.09956761  1  0.064915  0  0.027102  0.080605  0  3.727749  0
C  C94  1  0.89863303  0.18468639  0.95195939  1  1.601927  0  0.238407  0.65768  0  4.110474  0
C  C95  1  0.17215500  0.18424721  0.04520592  1  1.598673  0  0.233297  0.655103  0  4.123968  0
C  C96  1  0.03132198  0.01526150  0.83250896  1  1.615535  0  0.237709  0.670805  0  4.135607  0
C  C97  1  0.90162276  0.73937554  0.99611721  1  1.598745  0  0.232504  0.648475  0  4.131946  0
C  C98  1  0.16063583  0.74108585  0.07848596  1  1.616675  0  0.239134  0.659032  0  4.123972  0
C  C99  1  0.00670910  0.91999275  0.20433481  1  1.610618  0  0.237465  0.663828  0  4.123104  0
C  C100  1  0.21795727  0.62894221  0.13913040  1  -0.013604  0  -0.08701  -0.199185  0  3.970669  0
C  C101  1  0.19857122  0.66090972  0.08612760  1  0.055515  0  -0.014623  -0.098585  0  3.981609  0
C  C102  1  0.22392622  0.61709776  0.04016614  1  0.349693  0  0.097002  0.252956  0  4.05401  0
C  C103  1  0.27379659  0.54845779  0.04560701  1  0.123842  0  -0.095283  -0.233404  0  4.010577  0
C  C104  1  0.30537055  0.52042798  0.09841734  1  0.01587  0  -0.010511  -0.032634  0  3.902879  0
C  C105  1  0.26926859  0.56015162  0.14471339  1  0.493997  0  0.097403  0.233676  0  4.049216  0
C  C106  1  0.19835533  0.29604463  0.10284943  1  0.039842  0  -0.08737  -0.190191  0  3.981729  0
C  C107  1  0.21918726  0.25604661  0.05399555  1  0.027307  0  -0.019158  -0.116102  0  3.967585  0
C  C108  1  0.28674330  0.28477853  0.01794248  1  0.470942  0  0.101812  0.274348  0  4.028496  0
C  C109  1  0.33682917  0.34667310  0.03097960  1  -0.013128  0  -0.100935  -0.241767  0  3.998983  0
C  C110  1  0.31947241  0.38432336  0.08108148  1  0.065779  0  -0.009061  -0.018106  0  3.934255  0
C  C111  1  0.24554688  0.35928645  0.11444795  1  0.444489  0  0.092097  0.232012  0  4.063497  0
C  C112  1  0.60388435  0.40992939  0.01526742  1  0.049944  0  -0.097823  -0.230236  0  4.000931  0
C  C113  1  0.61266586  0.47325720  0.97972930  1  0.057135  0  -0.009905  -0.023151  0  3.928233  0
C  C114  1  0.54712112  0.53307670  0.98941468  1  0.375552  0  0.091896  0.232156  0  4.054899  0
C  C115  1  0.47327360  0.52896517  0.02745661  1  0.039823  0  -0.101946  -0.242196  0  4.001043  0
C  C116  1  0.45910115  0.46277860  0.05893708  1  0.026232  0  -0.01032  -0.022518  0  3.921772  0
C  C117  1  0.52982433  0.40558537  0.05293917  1  0.411313  0  0.092519  0.231715  0  4.048322  0
C  C118  1  0.79921768  0.67441393  0.93321848  1  0.073697  0  -0.084243  -0.184655  0  3.972173  0
C  C119  1  0.84853300  0.67148418  0.98367483  1  -0.050154  0  -0.021652  -0.122271  0  3.97584  0
C  C120  1  0.84180745  0.60613921  0.01734955  1  0.541668  0  0.098085  0.265989  0  4.055654  0
C  C121  1  0.79227257  0.54573087  0.00045066  1  0.004911  0  -0.100474  -0.246917  0  3.99505  0
C  C122  1  0.74471520  0.54746018  0.94888183  1  -0.015796  0  -0.008581  -0.022695  0  3.907973  0
C  C123  1  0.74723101  0.61534789  0.91749867  1  0.460496  0  0.093489  0.231081  0  4.058979  0
C  C124  1  0.84711851  0.39878913  0.94339887  1  0.064896  0  -0.097877  -0.238106  0  3.99158  0
C  C125  1  0.75073469  0.40432237  0.93320816  1  0.03884  0  -0.008458  -0.019655  0  3.921141  0
C  C126  1  0.70967958  0.33612217  0.92243107  1  0.418318  0  0.088702  0.216391  0  4.057515  0
C  C127  1  0.75746602  0.26652689  0.92698499  1  0.064858  0  -0.084211  -0.189446  0  3.979177  0
C  C128  1  0.85314181  0.26131435  0.93945837  1  0.040673  0  -0.016323  -0.11292  0  3.966339  0
C  C129  1  0.89654505  0.32896492  0.94569939  1  0.364279  0  0.10281  0.269617  0  4.043399  0
C  C130  1  0.46896824  0.37118463  0.24434472  1  0.009978  0  -0.0886  -0.191093  0  3.98626  0
C  C131  1  0.50689431  0.43470258  0.26647840  1  0.11313  0  -0.019531  -0.119524  0  3.962992  0
C  C132  1  0.50710529  0.49890279  0.23079856  1  0.384041  0  0.103511  0.275806  0  4.027107  0
C  C133  1  0.46718437  0.50090491  0.17805130  1  0.06721  0  -0.102376  -0.24455  0  4.028279  0
C  C134  1  0.42297864  0.43913019  0.15751012  1  0.035201  0  -0.009927  -0.022134  0  3.931986  0
C  C135  1  0.42964903  0.37329553  0.19129683  1  0.457184  0  0.092208  0.231143  0  4.05714  0
C  C136  1  0.67127798  0.50279062  0.77253926  1  0.116793  0  -0.092724  -0.204183  0  3.988682  0
C  C137  1  0.57474374  0.50490162  0.76274169  1  0.035687  0  -0.021242  -0.120803  0  3.984708  0
C  C138  1  0.51648645  0.49547224  0.80941198  1  0.361741  0  0.094462  0.262624  0  4.047214  0
C  C139  1  0.55015702  0.48736149  0.86387762  1  0.150954  0  -0.099733  -0.229328  0  4.01146  0
C  C140  1  0.64618818  0.48675414  0.87417417  1  0.045671  0  -0.014199  -0.029286  0  3.94395  0
C  C141  1  0.70455971  0.49225068  0.82681632  1  0.435009  0  0.089765  0.2316  0  4.060371  0
C  C142  1  0.70496172  0.91640336  0.45890148  1  0.046581  0  -0.096963  -0.22755  0  4.010537  0
C  C143  1  0.80045845  0.90843221  0.44591637  1  0.022136  0  -0.016178  -0.038768  0  3.966182  0
C  C144  1  0.84077811  0.83471796  0.44458354  1  0.376004  0  0.09018  0.223656  0  4.060465  0
C  C145  1  0.79037518  0.77150756  0.45444871  1  0.061474  0  -0.087958  -0.201768  0  3.981285  0
C  C146  1  0.69569397  0.78057000  0.46914068  1  0.022272  0  -0.01556  -0.10336  0  3.997521  0
C  C147  1  0.65514299  0.85334220  0.47138033  1  0.46535  0  0.095819  0.257867  0  4.062356  0
C  C148  1  0.72011442  0.14798314  0.48842910  1  0.155021  0  -0.090792  -0.202401  0  3.991036  0
C  C149  1  0.70938995  0.19560580  0.44105236  1  0.015981  0  -0.015342  -0.102522  0  3.995561  0
C  C150  1  0.74511571  0.17014215  0.39020012  1  0.459263  0  0.096652  0.260314  0  4.062456  0
C  C151  1  0.79218725  0.10019206  0.38545965  1  0.079317  0  -0.096177  -0.228005  0  4.003023  0
C  C152  1  0.80257731  0.05131573  0.43233523  1  0.002387  0  -0.013786  -0.031957  0  3.950479  0
C  C153  1  0.76458544  0.07744192  0.48318419  1  0.340409  0  0.089776  0.221167  0  4.061548  0
C  C154  1  0.99679825  0.94952948  0.36160717  1  0.031032  0  -0.096451  -0.228453  0  4.010082  0
C  C155  1  0.90062469  0.95975917  0.37214958  1  0.100385  0  -0.010543  -0.025971  0  3.944149  0
C  C156  1  0.84119057  0.94896617  0.32692878  1  0.396401  0  0.091732  0.225478  0  4.056051  0
C  C157  1  0.87384015  0.93181796  0.27356697  1  0.01162  0  -0.092168  -0.205857  0  3.993128  0
C  C158  1  0.97021457  0.92528966  0.26313176  1  0.117314  0  -0.016707  -0.109891  0  3.988444  0
C  C159  1  0.02989188  0.93371857  0.30824411  1  0.399223  0  0.101955  0.272982  0  4.048899  0
C  C160  1  0.93912315  0.93915275  0.52454561  1  0.114607  0  -0.095446  -0.220452  0  4.023572  0
C  C161  1  0.93713576  0.98233242  0.47476262  1  -0.005227  0  -0.010575  -0.023969  0  3.949652  0
C  C162  1  0.00431546  0.03631428  0.47045387  1  0.395607  0  0.093151  0.233941  0  4.051895  0
C  C163  1  0.07467471  0.04220982  0.50959138  1  0.086002  0  -0.101516  -0.235167  0  3.991913  0
C  C164  1  0.08049523  0.99568523  0.55807118  1  0.027421  0  -0.008624  -0.017395  0  3.896596  0
C  C165  1  0.00647818  0.94735816  0.56480195  1  0.345911  0  0.089555  0.222177  0  4.039769  0
C  C166  1  0.18331058  0.85585720  0.57462453  1  -0.037844  0  -0.107511  -0.252729  0  4.024789  0
C  C167  1  0.22729410  0.92112488  0.58853508  1  0.023666  0  -0.007687  -0.018623  0  3.865584  0
C  C168  1  0.32557145  0.91092789  0.59367407  1  0.448476  0  0.0931  0.226104  0  4.04364  0
C  C169  1  0.37486280  0.84218771  0.58575711  1  0.127392  0  -0.086096  -0.186895  0  3.960424  0
C  C170  1  0.32875245  0.77788701  0.57207712  1  0.040581  0  -0.019927  -0.12137  0  3.977618  0
C  C171  1  0.23136309  0.78724325  0.56721108  1  0.437617  0  0.101633  0.279215  0  4.051472  0
C  C172  1  0.27965469  0.06701031  0.53757722  1  0.055626  0  -0.096366  -0.2364  0  4.016292  0
C  C173  1  0.22020421  0.06612593  0.58485327  1  0.059265  0  -0.007371  -0.017259  0  3.901499  0
C  C174  1  0.21270276  0.13328966  0.61464004  1  0.340256  0  0.093755  0.229732  0  4.038562  0
C  C175  1  0.26489643  0.19460964  0.60122192  1  0.089326  0  -0.089259  -0.194134  0  3.997513  0
C  C176  1  0.32522930  0.19423785  0.55483743  1  0.040933  0  -0.022239  -0.126045  0  3.989518  0
C  C177  1  0.32939330  0.12936237  0.52276454  1  0.429261  0  0.100152  0.267793  0  4.047778  0
C  C178  1  0.03721808  0.02328719  0.67224956  1  0.002484  0  -0.097351  -0.222262  0  4.027328  0
C  C179  1  0.12949700  0.99759822  0.65997662  1  0.085179  0  -0.017915  -0.038309  0  3.93678  0
C  C180  1  0.18753755  0.98175490  0.70627354  1  0.475054  0  0.090799  0.235907  0  4.060407  0
C  C181  1  0.15725359  0.98976728  0.76141868  1  -0.011133  0  -0.098883  -0.22125  0  4.010139  0
C  C182  1  0.06442601  0.01342990  0.77267687  1  0.087221  0  -0.019519  -0.111503  0  4.010259  0
C  C183  1  0.00593715  0.02947270  0.72705075  1  0.462269  0  0.094094  0.261493  0  4.059889  0
O  O184  1  0.36135773  0.32944822  0.39846424  1  -1.260209  0  -0.585811  -0.778368  0  2.01494  0
O  O185  1  0.57730671  0.28177265  0.43710934  1  -1.176437  0  -0.356732  -0.612973  0  2.273409  0
O  O186  1  0.50840205  0.37982906  0.35828066  1  -1.193341  0  -0.348677  -0.635569  0  2.30606  0
O  O187  1  0.39686508  0.29983385  0.58710579  1  -1.188659  0  -0.338455  -0.609301  0  2.316824  0
O  O188  1  0.57937375  0.48887190  0.34313140  1  -1.179755  0  -0.340426  -0.612303  0  2.374662  0
O  O189  1  0.40484770  0.27823337  0.49388648  1  -1.178884  0  -0.344662  -0.62774  0  2.322381  0
O  O190  1  0.71452870  0.31877694  0.47174874  1  -1.186737  0  -0.335853  -0.623238  0  2.315572  0
O  O191  1  0.59067629  0.44367660  0.45866705  1  -1.229519  0  -0.774466  -1.19485  0  2.08462  0
O  O192  1  0.55403769  0.34918884  0.53914129  1  -1.272477  0  -0.68959  -1.0472  0  2.231134  0
O  O193  1  0.40996574  0.48283765  0.42293745  1  -1.262529  0  -0.682319  -1.029872  0  2.122433  0
O  O194  1  0.40561046  0.43423852  0.52016033  1  -1.220388  0  -0.781102  -1.149059  0  2.0252  0
O  O195  1  0.32847752  0.42371926  0.63846572  1  -1.23892  0  -0.668633  -0.940478  0  1.857368  0
O  O196  1  0.81661337  0.43623027  0.45989948  1  -1.277902  0  -0.568715  -0.774057  0  2.025193  0
O  O197  1  0.58405727  0.47368636  0.58386757  1  -1.228818  0  -0.775637  -1.165181  0  2.010543  0
O  O198  1  0.67547193  0.54711636  0.50993494  1  -1.269445  0  -0.680673  -1.048627  0  2.182097  0
O  O199  1  0.49901815  0.57829905  0.49188273  1  -1.217875  0  -0.767807  -1.169054  0  2.043589  0
O  O200  1  0.42241626  0.54102681  0.58746442  1  -1.256254  0  -0.694438  -1.066948  0  2.295275  0
O  O201  1  0.72752319  0.54992421  0.39435876  1  -1.229802  0  -0.714863  -0.946779  0  1.744647  0
O  O202  1  0.63101214  0.67248788  0.43753064  1  -1.167307  0  -0.329974  -0.571866  0  2.314978  0
O  O203  1  0.61836581  0.69637438  0.53040680  1  -1.183634  0  -0.358603  -0.648506  0  2.302327  0
O  O204  1  0.22504589  0.53160103  0.46615317  1  -1.248377  0  -0.699353  -0.977744  0  1.782968  0
O  O205  1  0.45763909  0.68772005  0.58530571  1  -1.180917  0  -0.352454  -0.612416  0  2.234413  0
O  O206  1  0.50136574  0.61979286  0.37208904  1  -1.248268  0  -0.656314  -0.919091  0  1.934443  0
O  O207  1  0.34637444  0.62746304  0.41910522  1  -1.254808  0  -0.613494  -0.841543  0  2.030849  0
O  O208  1  0.24730795  0.52363889  0.56929478  1  -1.254849  0  -0.607505  -0.814026  0  2.0352  0
O  O209  1  0.33833716  0.66178691  0.52805401  1  -1.191985  0  -0.356478  -0.643395  0  2.360981  0
O  O210  1  0.68053188  0.63162613  0.62059289  1  -1.243715  0  -0.588423  -0.790268  0  2.012598  0
O  O211  1  0.51821036  0.32070144  0.66170801  1  -1.227544  0  -0.578455  -0.768637  0  2.048334  0
O  O212  1  0.55262978  0.57262941  0.67505286  1  -1.187657  0  -0.314138  -0.600099  0  2.201681  0
O  O213  1  0.49139985  0.45886557  0.68749049  1  -1.196232  0  -0.349423  -0.654603  0  2.314055  0
O  O214  1  0.71189767  0.33209725  0.58720580  1  -1.217079  0  -0.702685  -0.979268  0  1.832436  0
O  O215  1  0.80819477  0.46028610  0.56131667  1  -1.296201  0  -0.678642  -0.991547  0  1.855433  0
O  O216  1  0.21267904  0.10182691  0.90702707  1  -1.255649  0  -0.578964  -0.778801  0  2.025796  0
O  O217  1  0.98304982  0.16998608  0.93673714  1  -1.171152  0  -0.351047  -0.61334  0  2.261469  0
O  O218  1  0.06073678  0.06684089  0.86261304  1  -1.18771  0  -0.344359  -0.623448  0  2.274401  0
O  O219  1  0.15270649  0.14674815  0.08963313  1  -1.188956  0  -0.341809  -0.631603  0  2.304613  0
O  O220  1  0.98200759  0.96170045  0.84839441  1  -1.186974  0  -0.34138  -0.629631  0  2.305253  0
O  O221  1  0.15416580  0.16690055  0.99505994  1  -1.187258  0  -0.349642  -0.634933  0  2.312772  0
O  O222  1  0.84629204  0.14057327  0.97899641  1  -1.160015  0  -0.348029  -0.601636  0  2.282939  0
O  O223  1  0.96369249  0.00643843  0.96142781  1  -1.21434  0  -0.785046  -1.169605  0  2.080082  0
O  O224  1  0.00012719  0.09864485  0.03744141  1  -1.25799  0  -0.697065  -1.066496  0  2.322169  0
O  O225  1  0.12724067  0.95228820  0.93023551  1  -1.265916  0  -0.673915  -1.037702  0  2.169679  0
O  O226  1  0.14571087  0.01119178  0.02453625  1  -1.222363  0  -0.776219  -1.160476  0  2.010016  0
O  O227  1  0.22201092  0.01742918  0.13844503  1  -1.240904  0  -0.652857  -0.915957  0  1.896751  0
O  O228  1  0.76094510  0.01447885  0.95741679  1  -1.254497  0  -0.60909  -0.809825  0  2.023075  0
O  O229  1  0.96117150  0.97583914  0.08536811  1  -1.221699  0  -0.77422  -1.156416  0  2.006502  0
O  O230  1  0.87566011  0.90420360  0.01405078  1  -1.276482  0  -0.679786  -1.052693  0  2.220646  0
O  O231  1  0.05227719  0.86563761  0.00459590  1  -1.219109  0  -0.787577  -1.172156  0  2.104108  0
O  O232  1  0.12227516  0.90633741  0.09632006  1  -1.230738  0  -0.691794  -1.064844  0  2.292329  0
O  O233  1  0.83472359  0.90515198  0.90311824  1  -1.235597  0  -0.656576  -0.930708  0  1.881037  0
O  O234  1  0.92520354  0.77778359  0.95353226  1  -1.171538  0  -0.333094  -0.581426  0  2.323499  0
O  O235  1  0.91549498  0.75549402  0.04747404  1  -1.189581  0  -0.360075  -0.652374  0  2.297385  0
O  O236  1  0.30825252  0.92279988  0.96270739  1  -1.218956  0  -0.706297  -0.953487  0  1.772295  0
O  O237  1  0.08145485  0.75969916  0.09972427  1  -1.172558  0  -0.341058  -0.59281  0  2.235785  0
O  O238  1  0.05401005  0.82331477  0.88074952  1  -1.225575  0  -0.664432  -0.928268  0  1.885747  0
O  O239  1  0.20370908  0.80624130  0.94013294  1  -1.271008  0  -0.608804  -0.803194  0  2.048475  0
O  O240  1  0.30620022  0.92593871  0.07556234  1  -1.240355  0  -0.604434  -0.841777  0  2.03232  0
O  O241  1  0.21535846  0.78334104  0.05118167  1  -1.181468  0  -0.352107  -0.645377  0  2.274528  0
O  O242  1  0.83154434  0.83659707  0.12268706  1  -1.263239  0  -0.576991  -0.776813  0  2.011817  0
O  O243  1  0.99810371  0.10985531  0.15128760  1  -1.240475  0  -0.659859  -0.939493  0  1.893506  0
O  O244  1  0.97932767  0.86693787  0.17393078  1  -1.206727  0  -0.361391  -0.655604  0  2.253976  0
O  O245  1  0.05943766  0.97103387  0.18906201  1  -1.161787  0  -0.32856  -0.581106  0  2.316198  0
O  O246  1  0.84356875  0.11777135  0.09846425  1  -1.268451  0  -0.616216  -0.819561  0  2.007552  0
O  O247  1  0.74890294  0.00416706  0.07134861  1  -1.255982  0  -0.7034  -1.003629  0  1.754264  0
F  F248  1  0.28311494  0.53404580  0.19839745  1  -0.628648  0  -0.09389  -0.13085  0  1.395888  0
F  F249  1  0.20022496  0.64312892  0.98720372  1  -0.629865  0  -0.089721  -0.137942  0  1.331451  0
F  F250  1  0.22220345  0.39615781  0.16241205  1  -0.628342  0  -0.098226  -0.138349  0  1.370212  0
F  F251  1  0.31035394  0.24945768  0.96920674  1  -0.633677  0  -0.104402  -0.150307  0  1.322228  0
F  F252  1  0.52606680  0.34046593  0.08427637  1  -0.626509  0  -0.091378  -0.12664  0  1.372867  0
F  F253  1  0.55266306  0.59908049  0.95934576  1  -0.63002  0  -0.093341  -0.128643  0  1.363978  0
F  F254  1  0.69645083  0.62830551  0.86974508  1  -0.630954  0  -0.094322  -0.134167  0  1.397837  0
F  F255  1  0.88606186  0.59914220  0.06770171  1  -0.624612  0  -0.10734  -0.142876  0  1.323785  0
F  F256  1  0.98939726  0.32815890  0.95787559  1  -0.628148  0  -0.105507  -0.141299  0  1.323165  0
F  F257  1  0.61645793  0.33652197  0.90982642  1  -0.636453  0  -0.100457  -0.139936  0  1.370499  0
F  F258  1  0.39671307  0.30757375  0.17376599  1  -0.630825  0  -0.098945  -0.13955  0  1.38499  0
F  F259  1  0.54256733  0.56410280  0.24737446  1  -0.630454  0  -0.087594  -0.130953  0  1.356207  0
F  F260  1  0.79930521  0.49126178  0.83409654  1  -0.653623  0  -0.10228  -0.142396  0  1.35172  0
F  F261  1  0.42184750  0.49570912  0.80201446  1  -0.627839  0  -0.114999  -0.153837  0  1.30319  0
F  F262  1  0.56226121  0.86334411  0.48465938  1  -0.631404  0  -0.107969  -0.147271  0  1.309625  0
F  F263  1  0.93424804  0.82332937  0.43294719  1  -0.635244  0  -0.100184  -0.137084  0  1.359171  0
F  F264  1  0.77185669  0.03289924  0.53093402  1  -0.637054  0  -0.098305  -0.13715  0  1.373837  0
F  F265  1  0.73635133  0.21629430  0.34358773  1  -0.623488  0  -0.11046  -0.147428  0  1.292865  0
F  F266  1  0.12413565  0.92492567  0.30029555  1  -0.621566  0  -0.10597  -0.142466  0  1.311104  0
F  F267  1  0.74635650  0.95622905  0.33451315  1  -0.628379  0  -0.098578  -0.13595  0  1.358403  0
F  F268  1  0.99774901  0.90296017  0.61246478  1  -0.636516  0  -0.090592  -0.13055  0  1.375818  0
F  F269  1  0.00318836  0.08599361  0.42564117  1  -0.638924  0  -0.098081  -0.133819  0  1.349923  0
F  F270  1  0.17825347  0.72868789  0.55613495  1  -0.628756  0  -0.096986  -0.130411  0  1.347389  0
F  F271  1  0.37871181  0.96903360  0.60700247  1  -0.634607  0  -0.101913  -0.141525  0  1.396606  0
F  F272  1  0.38556555  0.12468800  0.47643795  1  -0.630499  0  -0.105422  -0.142688  0  1.324117  0
F  F273  1  0.15319757  0.14300592  0.65926341  1  -0.641182  0  -0.098806  -0.137584  0  1.387699  0
F  F274  1  0.91506561  0.05354098  0.73659382  1  -0.627525  0  -0.111287  -0.148598  0  1.292913  0
F  F275  1  0.27951546  0.95974688  0.69894368  1  -0.628604  0  -0.09866  -0.138939  0  1.393047  0
