# generated using pymatgen
data_CuH20C28S4(NCl)2
_symmetry_space_group_name_H-M   'P 1'
_cell_length_a   8.79494301
_cell_length_b   10.92298772
_cell_length_c   13.39617468
_cell_angle_alpha   90.00000105
_cell_angle_beta   98.90416832
_cell_angle_gamma   89.99987924
_symmetry_Int_Tables_number   1
_chemical_formula_structural   CuH20C28S4(NCl)2
_chemical_formula_sum   'Cu2 H40 C56 S8 N4 Cl4'
_cell_volume   1271.42173259
_cell_formula_units_Z   2
loop_
 _symmetry_equiv_pos_site_id
 _symmetry_equiv_pos_as_xyz
  1  'x, y, z'
loop_
 _atom_site_type_symbol
 _atom_site_label
 _atom_site_symmetry_multiplicity
 _atom_site_fract_x
 _atom_site_fract_y
 _atom_site_fract_z
 _atom_site_occupancy
 _atom_site_hle17_ddec_charge
 _atom_site_hle17_ddec_spin_density
 _atom_site_hle17_ddec_sum_bond_order
 _atom_site_hle17_magmom
 _atom_site_hse06_10hf_ddec_charge
 _atom_site_hse06_10hf_ddec_spin_density
 _atom_site_hse06_10hf_ddec_sum_bond_order
 _atom_site_hse06_10hf_magmom
 _atom_site_hse06_ddec_charge
 _atom_site_hse06_ddec_spin_density
 _atom_site_hse06_ddec_sum_bond_order
 _atom_site_hse06_magmom
 _atom_site_pbe_cm5_charge
 _atom_site_pbe_ddec_charge
 _atom_site_pbe_ddec_spin_density
 _atom_site_pbe_ddec_sum_bond_order
 _atom_site_pbe_magmom
Cu  Cu0  1  0.99999763  0.00000007  0.00000052  1  0.743329  -0.604399  1.89452  -0.424  0.724081  -0.702684  2.294937  -0.535  0.80627  -0.770557  2.225492  -0.614  0.618781  0.679941  -0.661279  2.33715  -0.491
Cu  Cu1  1  0.00000145  0.49999965  0.49999963  1  0.74334  -0.604402  1.894507  -0.424  0.724104  -0.702679  2.294908  -0.535  0.806278  -0.77056  2.225467  -0.614  0.618797  0.679958  -0.661279  2.337117  -0.491
H  H2  1  0.39110034  0.01621410  0.20257701  1  0.101504  -0.000153  0.965073  0.0  0.111176  -0.000165  1.029938  0.0  0.114633  -9.6e-05  1.027368  0.0  0.093619  0.10886  -0.000224  1.031592  0.0
H  H3  1  0.60889406  0.51620990  0.29742045  1  0.101547  -0.000155  0.965098  0.0  0.111226  -0.000165  1.029952  0.0  0.114686  -9.6e-05  1.027379  0.0  0.093638  0.108913  -0.000224  1.031606  0.0
H  H4  1  0.60889443  0.98378710  0.79742222  1  0.10157  -0.000155  0.96509  0.0  0.111242  -0.000165  1.029946  0.0  0.1147  -9.6e-05  1.027375  0.0  0.093655  0.10893  -0.000225  1.0316  0.0
H  H5  1  0.39110874  0.48378947  0.70257805  1  0.10158  -0.000156  0.965152  0.0  0.111242  -0.000165  1.030013  0.0  0.1147  -9.7e-05  1.027443  0.0  0.093653  0.108926  -0.000225  1.031665  0.0
H  H6  1  0.46852543  0.80729704  0.26576026  1  0.072028  1.7e-05  1.016091  0.0  0.076917  -8.3e-05  1.090877  0.0  0.079349  -4.8e-05  1.090751  0.0  0.083536  0.075206  -0.000118  1.090991  0.0
H  H7  1  0.53146474  0.30729460  0.23423679  1  0.072074  1.4e-05  1.016075  0.0  0.076946  -8.3e-05  1.090866  0.0  0.079379  -4.9e-05  1.09074  0.0  0.083548  0.075239  -0.000118  1.090981  0.0
H  H8  1  0.53146937  0.19270507  0.73424121  1  0.072068  1.6e-05  1.016061  0.0  0.076944  -8.3e-05  1.09085  0.0  0.079378  -4.9e-05  1.090722  0.0  0.083552  0.075235  -0.000118  1.090965  0.0
H  H9  1  0.46853807  0.69270569  0.76576172  1  0.072082  1.5e-05  1.016061  0.0  0.076952  -8.3e-05  1.090853  0.0  0.079386  -4.9e-05  1.090725  0.0  0.083563  0.075245  -0.000118  1.09097  0.0
H  H10  1  0.70250738  0.70747708  0.21910226  1  0.092297  -0.001011  0.971256  0.0  0.104641  -0.001041  1.030918  0.0  0.107751  -0.000813  1.028755  0.0  0.089192  0.102074  -0.001224  1.033181  -0.001
H  H11  1  0.29748425  0.20747687  0.28089792  1  0.092345  -0.001016  0.971295  0.0  0.104682  -0.001041  1.030944  0.0  0.107793  -0.000813  1.028783  0.0  0.089223  0.102114  -0.001224  1.033207  0.0
H  H12  1  0.29748977  0.29252503  0.78090242  1  0.092356  -0.001017  0.971304  0.0  0.104691  -0.001041  1.030954  0.0  0.107802  -0.000813  1.02879  0.0  0.089222  0.102125  -0.001224  1.033217  0.0
H  H13  1  0.70251856  0.79252433  0.71910059  1  0.092398  -0.001012  0.971335  0.0  0.10473  -0.001041  1.030973  0.0  0.107843  -0.000813  1.028814  0.0  0.08924  0.102166  -0.001224  1.033238  0.0
H  H14  1  0.85812077  0.81178632  0.10513787  1  0.100936  0.000347  0.988896  0.0  0.108062  0.000299  1.057281  0.0  0.109938  0.000358  1.057384  0.0  0.096273  0.106767  0.000233  1.05721  0.0
H  H15  1  0.14187634  0.31179003  0.39486358  1  0.100966  0.000349  0.988861  0.0  0.108121  0.000299  1.057199  0.0  0.109997  0.000358  1.057302  0.0  0.096283  0.106824  0.000233  1.057126  0.0
H  H16  1  0.14187750  0.18821396  0.89486543  1  0.100973  0.000348  0.988806  0.0  0.108124  0.000299  1.05716  0.0  0.11  0.000358  1.057265  0.0  0.096318  0.106831  0.000233  1.057086  0.0
H  H17  1  0.85812646  0.68821208  0.60513418  1  0.100977  0.00035  0.988762  0.0  0.108094  0.000299  1.057152  0.0  0.10997  0.000358  1.057255  0.0  0.096288  0.106802  0.000233  1.057078  0.0
H  H18  1  0.84809946  0.55931787  0.92468702  1  0.10406  -0.000169  0.944432  0.0  0.114639  -0.000263  1.005162  0.0  0.118176  -0.0002  1.003212  0.0  0.101848  0.112715  -0.00029  1.005614  0.0
H  H19  1  0.15190490  0.05931881  0.57531635  1  0.104084  -0.000166  0.944337  0.0  0.114624  -0.000263  1.005108  0.0  0.118162  -0.000201  1.003157  0.0  0.101808  0.112699  -0.000289  1.005558  0.0
H  H20  1  0.15189878  0.44068241  0.07531329  1  0.104076  -0.000166  0.944395  0.0  0.114677  -0.000263  1.00511  0.0  0.118216  -0.0002  1.003158  0.0  0.101854  0.112752  -0.000289  1.00556  0.0
H  H21  1  0.84809793  0.94067781  0.42468365  1  0.104059  -0.000167  0.944355  0.0  0.114619  -0.000263  1.005117  0.0  0.118158  -0.000201  1.003164  0.0  0.101791  0.112698  -0.000289  1.005559  0.0
H  H22  1  0.94071989  0.48206145  0.77069163  1  0.090458  8.1e-05  0.958368  0.0  0.099464  9.8e-05  1.02326  0.0  0.101815  8.9e-05  1.022541  0.0  0.096755  0.09748  9.4e-05  1.024336  0.0
H  H23  1  0.05928564  0.98206277  0.72931260  1  0.090523  8.3e-05  0.958205  0.0  0.099478  9.8e-05  1.02316  0.0  0.101829  8.9e-05  1.022443  0.0  0.096759  0.097493  9.4e-05  1.024234  0.0
H  H24  1  0.05927835  0.51793791  0.22930942  1  0.090471  8.4e-05  0.958317  0.0  0.099482  9.8e-05  1.023204  0.0  0.101833  8.9e-05  1.022486  0.0  0.096749  0.097493  9.4e-05  1.024277  0.0
H  H25  1  0.94071950  0.01793477  0.27068837  1  0.090429  8.3e-05  0.958345  0.0  0.099423  9.7e-05  1.023242  0.0  0.101774  8.9e-05  1.022523  0.0  0.096737  0.097436  9.4e-05  1.024317  0.0
H  H26  1  0.93295140  0.26012859  0.73232475  1  0.097586  -3.2e-05  0.958906  0.0  0.106661  -0.000129  1.021646  0.0  0.11004  -8.8e-05  1.019784  0.0  0.09181  0.104132  -0.000166  1.023079  0.0
H  H27  1  0.06705125  0.76012897  0.76767697  1  0.09763  -2.8e-05  0.95892  0.0  0.106686  -0.000129  1.021673  0.0  0.110067  -8.8e-05  1.019807  0.0  0.091813  0.104158  -0.000166  1.023108  0.0
H  H28  1  0.06704915  0.73987078  0.26767653  1  0.097636  -2.8e-05  0.958884  0.0  0.106697  -0.000129  1.021634  0.0  0.110077  -8.8e-05  1.019772  0.0  0.09182  0.104163  -0.000166  1.023064  0.0
H  H29  1  0.93295385  0.23986765  0.23232101  1  0.097685  -2.6e-05  0.958878  0.0  0.106759  -0.000129  1.021622  0.0  0.11014  -8.7e-05  1.019759  0.0  0.091843  0.104226  -0.000166  1.023054  0.0
H  H30  1  0.83427268  0.11381981  0.84989918  1  0.085349  0.000609  0.987834  0.0  0.088666  0.000575  1.066221  0.0  0.091204  0.000645  1.064691  0.0  0.092599  0.086653  0.000497  1.067691  0.0
H  H31  1  0.16572459  0.61381819  0.65010127  1  0.085325  0.00061  0.98782  0.0  0.088643  0.000575  1.06621  0.0  0.091182  0.000645  1.064678  0.0  0.092595  0.08663  0.000497  1.067682  0.0
H  H32  1  0.16572441  0.88618139  0.15010176  1  0.085307  0.000611  0.987821  0.0  0.088615  0.000575  1.066226  0.0  0.091159  0.000645  1.06469  0.0  0.092585  0.086601  0.000497  1.067697  0.0
H  H33  1  0.83427820  0.38617752  0.34989574  1  0.085311  0.000613  0.987939  0.0  0.088647  0.000575  1.066302  0.0  0.09118  0.000645  1.064776  0.0  0.092617  0.086634  0.000497  1.067771  0.0
H  H34  1  0.53315631  0.59014761  0.08960652  1  0.096576  6e-05  0.938227  0.0  0.114925  5.8e-05  0.997661  0.0  0.115215  5.2e-05  0.999215  0.0  0.097276  0.114305  6e-05  0.997453  0.0
H  H35  1  0.46684251  0.09014527  0.41039211  1  0.096626  6.6e-05  0.938198  0.0  0.114918  5.8e-05  0.997711  0.0  0.115208  5.2e-05  0.999264  0.0  0.097264  0.114299  6e-05  0.997501  0.0
H  H36  1  0.46684307  0.40985542  0.91039315  1  0.096605  6.5e-05  0.93821  0.0  0.11492  5.8e-05  0.997679  0.0  0.11521  5.2e-05  0.999233  0.0  0.097267  0.114299  6e-05  0.99747  0.0
H  H37  1  0.53315800  0.90985410  0.58960692  1  0.096546  6.8e-05  0.938266  0.0  0.114894  5.8e-05  0.99769  0.0  0.115184  5.2e-05  0.999244  0.0  0.097253  0.114273  6e-05  0.997483  0.0
H  H38  1  0.60992654  0.60237772  0.97511388  1  0.091107  -6.7e-05  0.95333  0.0  0.10519  -8.6e-05  1.018811  0.0  0.106456  -6.5e-05  1.018554  0.0  0.092536  0.104203  -0.000105  1.019017  0.0
H  H39  1  0.39007306  0.10237734  0.52488605  1  0.091067  -6.8e-05  0.95331  0.0  0.105166  -8.6e-05  1.018784  0.0  0.106432  -6.5e-05  1.018527  0.0  0.092519  0.104178  -0.000104  1.018989  0.0
H  H40  1  0.39007284  0.39762348  0.02488579  1  0.091083  -6.8e-05  0.953301  0.0  0.105166  -8.6e-05  1.018778  0.0  0.106432  -6.5e-05  1.01852  0.0  0.092525  0.104179  -0.000104  1.01898  0.0
H  H41  1  0.60992631  0.89762111  0.47511287  1  0.091158  -6.9e-05  0.953285  0.0  0.105201  -8.6e-05  1.018815  0.0  0.106467  -6.5e-05  1.018559  0.0  0.092536  0.104213  -0.000104  1.019017  0.0
C  C42  1  0.73306991  0.16049027  0.02086266  1  0.175289  0.012611  3.707446  0.009  0.163685  0.003442  3.985686  0.003  0.180252  0.005751  4.00007  0.004  0.134416  0.153057  0.001633  3.975819  0.001
C  C43  1  0.26692990  0.66048940  0.47913831  1  0.17517  0.012623  3.707566  0.009  0.163547  0.003442  3.985777  0.003  0.180109  0.005751  4.000178  0.004  0.134366  0.152958  0.001633  3.975845  0.001
C  C44  1  0.26692721  0.83951093  0.97913978  1  0.175228  0.012618  3.70752  0.009  0.163617  0.003443  3.985755  0.003  0.180176  0.00575  4.000155  0.004  0.134391  0.153013  0.001633  3.975861  0.001
C  C45  1  0.73307521  0.33951089  0.52086042  1  0.175139  0.012607  3.707632  0.009  0.163564  0.003441  3.985818  0.003  0.180122  0.005752  4.000213  0.004  0.134351  0.152977  0.001633  3.975898  0.001
C  C46  1  0.71877612  0.97609497  0.09537922  1  0.172486  0.002038  3.843574  0.002  0.169885  8.6e-05  4.091284  0.0  0.174795  0.00109  4.116302  0.001  0.084254  0.166744  -0.000667  4.074971  0.0
C  C47  1  0.28122051  0.47609570  0.40461920  1  0.172462  0.002049  3.843392  0.002  0.16977  8.8e-05  4.09121  0.0  0.174712  0.00109  4.116188  0.001  0.084194  0.166612  -0.000667  4.074916  0.0
C  C48  1  0.28121867  0.02390623  0.90462150  1  0.172286  0.002055  3.843345  0.002  0.169669  8.5e-05  4.091144  0.0  0.174601  0.001091  4.116131  0.001  0.084172  0.166516  -0.000667  4.074856  0.0
C  C49  1  0.71878576  0.52390367  0.59538038  1  0.172241  0.002035  3.84353  0.002  0.169631  8.5e-05  4.091275  0.0  0.17454  0.00109  4.116291  0.001  0.084137  0.166479  -0.000667  4.074983  0.0
C  C50  1  0.58647264  0.03235146  0.12302562  1  -0.03588  -0.005824  3.779217  -0.006  -0.020013  -0.003152  4.031556  -0.004  -0.021086  -0.00275  4.054133  -0.003  -0.010623  -0.019122  -0.00336  4.015749  -0.004
C  C51  1  0.41352174  0.53234942  0.37697333  1  -0.035945  -0.005835  3.779263  -0.006  -0.02002  -0.003152  4.03157  -0.004  -0.021104  -0.00275  4.05414  -0.003  -0.010623  -0.019127  -0.003359  4.015767  -0.004
C  C52  1  0.41351985  0.96764883  0.87697488  1  -0.035737  -0.005833  3.779126  -0.006  -0.019898  -0.003151  4.031519  -0.004  -0.020978  -0.002752  4.054089  -0.003  -0.010579  -0.019002  -0.00336  4.015717  -0.004
C  C53  1  0.58648224  0.46765086  0.62302678  1  -0.035806  -0.005815  3.779181  -0.006  -0.019895  -0.003151  4.031456  -0.004  -0.020969  -0.00275  4.054032  -0.003  -0.010585  -0.019002  -0.00336  4.015655  -0.004
C  C54  1  0.49475847  0.97257048  0.18422182  1  -0.095531  0.001998  3.744859  0.001  -0.115943  0.000295  3.994893  0.0  -0.118124  0.000666  4.016036  0.0  -0.097626  -0.1141  -4.4e-05  3.979834  0.0
C  C55  1  0.50523471  0.47256900  0.31577552  1  -0.095453  0.002018  3.744814  0.001  -0.115875  0.000295  3.994815  0.0  -0.118057  0.000667  4.01596  0.0  -0.097627  -0.114033  -4.4e-05  3.979758  0.0
C  C56  1  0.50523515  0.02742980  0.81577730  1  -0.09563  0.002019  3.744927  0.001  -0.116026  0.000299  3.994967  0.0  -0.118207  0.000667  4.01611  0.0  -0.097688  -0.114186  -4.4e-05  3.979906  0.0
C  C57  1  0.49476926  0.52743037  0.68422384  1  -0.095551  0.001991  3.744917  0.001  -0.115959  0.000297  3.994925  0.0  -0.118141  0.000667  4.016069  0.0  -0.097664  -0.114113  -4.4e-05  3.979867  0.0
C  C58  1  0.53824895  0.85547428  0.21784529  1  -0.066975  -0.002754  3.765626  -0.002  -0.082585  -0.001044  4.021969  -0.001  -0.08546  -0.001073  4.044695  -0.001  -0.098382  -0.080228  -0.000946  4.00593  -0.001
C  C59  1  0.46173874  0.35547287  0.28214855  1  -0.067098  -0.00276  3.765542  -0.002  -0.082705  -0.001042  4.021905  -0.001  -0.085583  -0.001074  4.044636  -0.001  -0.098384  -0.080347  -0.000946  4.005868  -0.001
C  C60  1  0.46174234  0.14452601  0.78215212  1  -0.067059  -0.002759  3.765512  -0.002  -0.082665  -0.001047  4.02187  -0.001  -0.085542  -0.001073  4.044597  -0.001  -0.098417  -0.080313  -0.000946  4.005849  -0.001
C  C61  1  0.53826638  0.64452742  0.71785093  1  -0.067056  -0.002739  3.765538  -0.002  -0.082664  -0.001044  4.0219  -0.001  -0.085542  -0.001073  4.04463  -0.001  -0.09839  -0.080305  -0.000946  4.005862  -0.001
C  C62  1  0.66915675  0.79848701  0.19032632  1  -0.059005  -0.000254  3.754644  0.0  -0.073145  -0.001211  4.002822  -0.001  -0.073803  -0.000535  4.023256  0.0  -0.096735  -0.072257  -0.001765  3.989287  -0.001
C  C63  1  0.33083688  0.29848674  0.30967032  1  -0.05901  -0.00024  3.754646  0.0  -0.073145  -0.001213  4.002833  -0.001  -0.0738  -0.000534  4.023258  0.0  -0.096769  -0.072259  -0.001765  3.989298  -0.001
C  C64  1  0.33084034  0.20151510  0.80967463  1  -0.058959  -0.000241  3.754555  0.0  -0.073075  -0.001212  4.002718  -0.001  -0.073735  -0.000533  4.023157  0.0  -0.096682  -0.072188  -0.001765  3.989178  -0.001
C  C65  1  0.66916594  0.70151446  0.69032893  1  -0.059082  -0.000268  3.754762  0.0  -0.073209  -0.001214  4.002938  -0.001  -0.073867  -0.000535  4.023366  0.0  -0.096766  -0.072321  -0.001765  3.98941  -0.001
C  C66  1  0.75912480  0.85708903  0.12836248  1  -0.142744  -0.002445  3.737373  -0.003  -0.164697  -0.000941  3.99174  -0.001  -0.168549  -0.00085  4.012488  -0.001  -0.095986  -0.16283  -0.001035  3.978454  -0.001
C  C67  1  0.24087105  0.35708891  0.37163960  1  -0.14285  -0.002455  3.737338  -0.003  -0.164796  -0.00094  3.991717  -0.001  -0.168659  -0.00085  4.012456  -0.001  -0.096037  -0.162924  -0.001035  3.978429  -0.001
C  C68  1  0.24087234  0.14291217  0.87164220  1  -0.142853  -0.002457  3.737382  -0.003  -0.164814  -0.000938  3.991772  -0.001  -0.168674  -0.000851  4.012512  -0.001  -0.096087  -0.162945  -0.001035  3.97849  -0.001
C  C69  1  0.75913522  0.64291412  0.62835998  1  -0.142812  -0.002444  3.737249  -0.003  -0.16475  -0.000938  3.991623  -0.001  -0.168601  -0.00085  4.012368  -0.001  -0.096028  -0.16288  -0.001036  3.978345  -0.001
C  C70  1  0.78750920  0.25313613  0.95543917  1  -0.022038  -0.001564  3.794264  -0.002  -0.011697  -0.000538  4.031467  -0.001  -0.01674  -0.000502  4.056887  -0.001  -0.015506  -0.00886  -0.000572  4.0152  -0.001
C  C71  1  0.21249120  0.75313534  0.54456457  1  -0.022098  -0.001579  3.794366  -0.002  -0.011693  -0.000539  4.031534  -0.001  -0.016736  -0.0005  4.056956  -0.001  -0.015466  -0.008873  -0.000571  4.015266  -0.001
C  C72  1  0.21248907  0.74686507  0.04456338  1  -0.022166  -0.001571  3.7945  -0.002  -0.011761  -0.000537  4.03166  -0.001  -0.016805  -0.000502  4.057085  -0.001  -0.015509  -0.008924  -0.000572  4.015375  -0.001
C  C73  1  0.78750932  0.24686494  0.45543446  1  -0.022022  -0.001558  3.794355  -0.002  -0.011632  -0.000541  4.031533  -0.001  -0.016674  -0.0005  4.056954  -0.001  -0.015447  -0.008819  -0.000572  4.015279  -0.001
C  C74  1  0.78730444  0.38055548  0.97481986  1  0.015424  0.002004  3.723091  0.001  0.033631  0.000647  3.970604  0.0  0.035243  0.000871  3.993076  0.001  -0.006306  0.032514  0.0005  3.955433  0.0
C  C75  1  0.21269792  0.88055561  0.52518407  1  0.015437  0.002024  3.722992  0.001  0.033579  0.000648  3.970572  0.0  0.03519  0.000868  3.993046  0.001  -0.006312  0.032468  0.0005  3.955394  0.0
C  C76  1  0.21269267  0.61944481  0.02518183  1  0.01553  0.00201  3.722992  0.001  0.033688  0.000644  3.970551  0.0  0.035301  0.000872  3.993023  0.001  -0.006274  0.032572  0.0005  3.955384  0.0
C  C77  1  0.78730604  0.11944193  0.47481455  1  0.015337  0.001987  3.722939  0.001  0.033472  0.000649  3.970547  0.0  0.035084  0.000868  3.99302  0.001  -0.006344  0.032359  0.0005  3.955372  0.0
C  C78  1  0.84343567  0.46152137  0.90785386  1  -0.099111  -0.000783  3.733303  -0.001  -0.118778  -0.000128  3.981278  0.0  -0.121357  -0.000173  4.001513  0.0  -0.086862  -0.117069  -9.7e-05  3.96712  0.0
C  C79  1  0.15656416  0.96151885  0.59214982  1  -0.0991  -0.000799  3.733307  -0.001  -0.118712  -0.000129  3.981278  0.0  -0.121292  -0.000172  4.001513  0.0  -0.086843  -0.117001  -9.7e-05  3.967114  0.0
C  C80  1  0.15655682  0.53848074  0.09214664  1  -0.099174  -0.000789  3.733425  -0.001  -0.118869  -0.000127  3.98143  0.0  -0.12145  -0.000173  4.001665  0.0  -0.08692  -0.117159  -9.6e-05  3.967266  0.0
C  C81  1  0.84344094  0.03847869  0.40784816  1  -0.09899  -0.000774  3.733223  -0.001  -0.118622  -0.000129  3.981213  0.0  -0.121201  -0.000172  4.001448  0.0  -0.086776  -0.116911  -9.6e-05  3.967047  0.0
C  C82  1  0.89564248  0.41840492  0.82136800  1  -0.036677  0.002016  3.744412  0.001  -0.05565  0.000638  3.999983  0.0  -0.055457  0.00084  4.019786  0.0  -0.083754  -0.055753  0.000525  3.986659  0.0
C  C83  1  0.10436435  0.91840432  0.67863411  1  -0.036774  0.002028  3.744564  0.001  -0.055712  0.000638  4.000138  0.0  -0.055521  0.00084  4.019946  0.0  -0.083752  -0.055814  0.000525  3.986812  0.0
C  C84  1  0.10435689  0.58159628  0.17863092  1  -0.036689  0.002015  3.744542  0.001  -0.055665  0.000639  4.00011  0.0  -0.055474  0.000839  4.019916  0.0  -0.083737  -0.055764  0.000526  3.986775  0.0
C  C85  1  0.89564075  0.08159139  0.32136387  1  -0.036718  0.001998  3.744607  0.001  -0.055684  0.000638  4.000207  0.0  -0.05549  0.000839  4.02001  0.0  -0.083759  -0.055786  0.000526  3.986873  0.0
C  C86  1  0.89212756  0.29313150  0.80026524  1  -0.061622  -0.000935  3.744996  -0.001  -0.074804  -0.000145  3.994819  0.0  -0.076195  -0.000172  4.014468  0.0  -0.091722  -0.073366  -0.000117  3.981047  0.0
C  C87  1  0.10787504  0.79313181  0.69973946  1  -0.06162  -0.000952  3.745041  -0.001  -0.074767  -0.000143  3.994821  0.0  -0.076158  -0.000172  4.014467  0.0  -0.091724  -0.073331  -0.000117  3.981056  0.0
C  C88  1  0.10787070  0.70686878  0.19973656  1  -0.061637  -0.000947  3.744974  -0.001  -0.07478  -0.000146  3.994739  0.0  -0.076173  -0.000171  4.014393  0.0  -0.09171  -0.07334  -0.000117  3.980959  0.0
C  C89  1  0.89212892  0.20686664  0.30025916  1  -0.06167  -0.000933  3.745016  -0.001  -0.074846  -0.000144  3.994833  0.0  -0.076238  -0.000172  4.014479  0.0  -0.091768  -0.073406  -0.000117  3.981055  0.0
C  C90  1  0.83953067  0.21161997  0.86698565  1  -0.100861  0.002975  3.749391  0.002  -0.121779  0.001379  4.00473  0.001  -0.124742  0.001697  4.026745  0.001  -0.089956  -0.120251  0.00101  3.990637  0.0
C  C91  1  0.16047211  0.71161927  0.63301608  1  -0.100808  0.002996  3.749428  0.002  -0.121747  0.001378  4.004738  0.001  -0.12471  0.001695  4.026754  0.001  -0.089951  -0.120221  0.00101  3.990653  0.0
C  C92  1  0.16046873  0.78838032  0.13301551  1  -0.100803  0.00298  3.749445  0.002  -0.121734  0.001379  4.004753  0.001  -0.124702  0.001696  4.026769  0.001  -0.089961  -0.120208  0.00101  3.990663  0.0
C  C93  1  0.83953184  0.28837827  0.36698179  1  -0.100896  0.002958  3.749593  0.002  -0.12184  0.001381  4.004927  0.001  -0.124798  0.001695  4.026947  0.001  -0.08998  -0.12031  0.00101  3.990831  0.0
C  C94  1  0.56702481  0.53743489  0.02669341  1  -0.144742  9e-05  3.692331  0.0  -0.183867  5e-06  3.959617  0.0  -0.183064  3.2e-05  3.970499  0.0  -0.155408  -0.184465  -8e-06  3.952792  0.0
C  C95  1  0.43297531  0.03743445  0.47330609  1  -0.144704  8.5e-05  3.692253  0.0  -0.18379  5e-06  3.959492  0.0  -0.182987  3.2e-05  3.970374  0.0  -0.155362  -0.18439  -8e-06  3.952663  0.0
C  C96  1  0.43297458  0.46256722  0.97330700  1  -0.144719  8.9e-05  3.69228  0.0  -0.183794  7e-06  3.959532  0.0  -0.18299  3.1e-05  3.970413  0.0  -0.155369  -0.184391  -8e-06  3.952705  0.0
C  C97  1  0.56702635  0.96256492  0.52669231  1  -0.144822  8.2e-05  3.692394  0.0  -0.183879  6e-06  3.959633  0.0  -0.183078  3.2e-05  3.970517  0.0  -0.155409  -0.184477  -8e-06  3.952805  0.0
S  S98  1  0.56739396  0.17883337  0.07483024  1  0.109436  -0.006181  2.630436  -0.008  0.110392  -0.005245  2.964295  -0.006  0.108804  -0.003131  2.968307  -0.005  0.12716  0.111657  -0.006877  2.961171  -0.007
S  S99  1  0.43260463  0.67883131  0.42516912  1  0.109508  -0.006181  2.630407  -0.008  0.110456  -0.005245  2.96425  -0.006  0.108868  -0.003131  2.968265  -0.005  0.127175  0.111705  -0.006877  2.961108  -0.007
S  S100  1  0.43260082  0.82116691  0.92516974  1  0.109424  -0.006186  2.630428  -0.008  0.1104  -0.005246  2.96431  -0.006  0.10881  -0.00313  2.968326  -0.005  0.127163  0.111658  -0.006878  2.961182  -0.007
S  S101  1  0.56740164  0.32116806  0.57483047  1  0.109445  -0.006183  2.630336  -0.008  0.110373  -0.005246  2.964192  -0.006  0.108784  -0.003131  2.968207  -0.005  0.127168  0.111629  -0.006877  2.961054  -0.007
S  S102  1  0.72583624  0.44161574  0.08481008  1  -0.02086  -0.000387  2.376653  -0.001  -0.012948  -8.2e-05  2.709365  0.0  -0.018587  4.7e-05  2.712978  0.0  0.002817  -0.009404  -0.000156  2.707472  0.0
S  S103  1  0.27416282  0.94161486  0.41519081  1  -0.020866  -0.00039  2.376577  -0.001  -0.012933  -8.3e-05  2.709305  0.0  -0.018571  4.8e-05  2.712918  0.0  0.002827  -0.009392  -0.000156  2.707402  0.0
S  S104  1  0.27416200  0.55838638  0.91519023  1  -0.020868  -0.000389  2.376587  -0.001  -0.012955  -8.4e-05  2.709306  0.0  -0.018594  4.8e-05  2.712919  0.0  0.002828  -0.009414  -0.000156  2.707418  0.0
S  S105  1  0.72583766  0.05838451  0.58480598  1  -0.020774  -0.000387  2.376661  -0.001  -0.012866  -8.3e-05  2.709402  0.0  -0.018504  4.7e-05  2.713016  0.0  0.002856  -0.009324  -0.000156  2.70751  0.0
N  N106  1  0.79810787  0.05132869  0.03778370  1  -0.369815  -0.074817  3.323374  -0.094  -0.32346  -0.0545  3.611521  -0.072  -0.354373  -0.047108  3.632103  -0.066  -0.354766  -0.305809  -0.058137  3.599621  -0.073
N  N107  1  0.20188879  0.55132884  0.46221771  1  -0.369672  -0.074822  3.32313  -0.094  -0.323305  -0.054499  3.611335  -0.072  -0.35421  -0.047107  3.63187  -0.066  -0.354693  -0.305659  -0.058136  3.599414  -0.073
N  N108  1  0.20188578  0.94867068  0.96221766  1  -0.36958  -0.074822  3.322966  -0.094  -0.323288  -0.054504  3.611242  -0.072  -0.354184  -0.047109  3.631774  -0.066  -0.354701  -0.305646  -0.058137  3.599349  -0.073
N  N109  1  0.79811289  0.44867236  0.53778218  1  -0.369476  -0.074814  3.323159  -0.094  -0.323196  -0.054501  3.611395  -0.072  -0.35409  -0.047109  3.631948  -0.066  -0.354668  -0.305559  -0.058136  3.599491  -0.073
Cl  Cl110  1  0.12506372  0.14084414  0.10886875  1  -0.520377  -0.125272  0.88279  -0.149  -0.510623  -0.087427  1.146001  -0.111  -0.539291  -0.069253  1.126348  -0.095  -0.309844  -0.492832  -0.098008  1.158785  -0.118
Cl  Cl111  1  0.87493382  0.64084316  0.39112975  1  -0.520395  -0.125274  0.882753  -0.149  -0.510658  -0.08743  1.145968  -0.111  -0.539322  -0.069254  1.12631  -0.095  -0.309865  -0.492869  -0.098009  1.158748  -0.118
Cl  Cl112  1  0.87493337  0.85915614  0.89113144  1  -0.520394  -0.125276  0.882782  -0.149  -0.510644  -0.087428  1.145983  -0.111  -0.539314  -0.069254  1.126331  -0.095  -0.309857  -0.492852  -0.098004  1.158768  -0.118
Cl  Cl113  1  0.12506786  0.35915713  0.60887014  1  -0.520394  -0.125275  0.882762  -0.149  -0.510642  -0.087429  1.145958  -0.111  -0.539308  -0.069254  1.126304  -0.095  -0.309857  -0.492853  -0.098005  1.158742  -0.118
