# generated using pymatgen
data_SmPH19C24NO8
_symmetry_space_group_name_H-M   'P 1'
_cell_length_a   10.66840471
_cell_length_b   11.94904604
_cell_length_c   14.51668358
_cell_angle_alpha   74.08866764
_cell_angle_beta   74.59782168
_cell_angle_gamma   63.84175305
_symmetry_Int_Tables_number   1
_chemical_formula_structural   SmPH19C24NO8
_chemical_formula_sum   'Sm2 P2 H38 C48 N2 O16'
_cell_volume   1574.76104965
_cell_formula_units_Z   2
loop_
 _symmetry_equiv_pos_site_id
 _symmetry_equiv_pos_as_xyz
  1  'x, y, z'
loop_
 _atom_site_type_symbol
 _atom_site_label
 _atom_site_symmetry_multiplicity
 _atom_site_fract_x
 _atom_site_fract_y
 _atom_site_fract_z
 _atom_site_occupancy
 _atom_site_pbe_bader_charge
 _atom_site_pbe_bader_spin_density
 _atom_site_pbe_cm5_charge
 _atom_site_pbe_ddec_charge
 _atom_site_pbe_ddec_spin_density
 _atom_site_pbe_ddec_sum_bond_order
 _atom_site_pbe_magmom
Sm  Sm0  1  0.99536320  0.54751846  0.62709914  1  2.234247  0  1.513595  2.131685  0  2.13644  0
Sm  Sm1  1  0.00463746  0.45247727  0.37290388  1  2.234158  0  1.513627  2.131769  0  2.136482  0
P  P2  1  0.14616127  0.71418882  0.73221895  1  2.722745  0  0.276222  0.876258  0  4.81796  0
P  P3  1  0.85383500  0.28580331  0.26778513  1  2.723233  0  0.276303  0.87639  0  4.818085  0
H  H4  1  0.49532333  0.63457099  0.43691566  1  0.124563  0  0.109703  0.115561  0  0.99542  0
H  H5  1  0.50467290  0.36542583  0.56308529  1  0.124893  0  0.10971  0.11556  0  0.995365  0
H  H6  1  0.95009198  0.89277653  0.61066780  1  0.146079  0  0.111452  0.118328  0  1.023898  0
H  H7  1  0.04991553  0.10721342  0.38932407  1  0.146367  0  0.111489  0.118407  0  1.023877  0
H  H8  1  0.25583132  0.67543676  0.54006109  1  0.141945  0  0.113187  0.117249  0  1.043875  0
H  H9  1  0.74416760  0.32456089  0.45994254  1  0.141974  0  0.113192  0.117236  0  1.043853  0
H  H10  1  0.96201289  0.83518792  0.89289972  1  0.080357  0  0.102061  0.098345  0  1.01163  0
H  H11  1  0.03794490  0.16481587  0.10709055  1  0.07993  0  0.102058  0.098462  0  1.01157  0
H  H12  1  0.66590844  0.60300955  0.68461306  1  0.123022  0  0.11366  0.10914  0  1.047626  0
H  H13  1  0.33409429  0.39698331  0.31538811  1  0.1227  0  0.113616  0.109058  0  1.047707  0
H  H14  1  0.42879552  0.64954497  0.78657057  1  0.042567  0  0.101529  0.097054  0  1.010359  0
H  H15  1  0.57120742  0.35044039  0.21343434  1  0.04249  0  0.101547  0.09712  0  1.010437  0
H  H16  1  0.19435709  0.90560445  0.79850638  1  0.029956  0  0.100567  0.095198  0  1.006059  0
H  H17  1  0.80566084  0.09437206  0.20148843  1  0.030064  0  0.100584  0.095184  0  1.006072  0
H  H18  1  0.27623703  0.40042522  0.03155982  1  0.11058  0  0.105983  0.107516  0  0.993095  0
H  H19  1  0.72374261  0.59960386  0.96845102  1  0.110505  0  0.105985  0.10759  0  0.992975  0
H  H20  1  0.92338832  0.75168018  0.07160560  1  0.106489  0  0.108314  0.113706  0  0.992307  0
H  H21  1  0.07655189  0.24832329  0.92838226  1  0.106377  0  0.108263  0.113631  0  0.992301  0
H  H22  1  0.87698316  0.12775069  0.55098738  1  0.051107  0  0.102195  0.097458  0  1.040241  0
H  H23  1  0.12303252  0.87224363  0.44900864  1  0.050927  0  0.102158  0.097355  0  1.040245  0
H  H24  1  0.10973216  0.14172317  0.74376628  1  0.106637  0  0.111805  0.11918  0  0.995822  0
H  H25  1  0.89028782  0.85825326  0.25623018  1  0.105759  0  0.111859  0.119274  0  0.995566  0
H  H26  1  0.30869316  0.47648827  0.85160048  1  0.081754  0  0.112227  0.111506  0  0.982048  0
H  H27  1  0.69130467  0.52352245  0.14841072  1  0.081445  0  0.112228  0.111511  0  0.981995  0
H  H28  1  0.66571933  0.80158500  0.73819072  1  0.111353  0  0.126944  0.052043  0  0.979985  0
H  H29  1  0.33429149  0.19842628  0.26180589  1  0.111966  0  0.126973  0.052175  0  0.980108  0
H  H30  1  0.70294279  0.08006260  0.52356483  1  0.039747  0  0.101282  0.115174  0  1.014368  0
H  H31  1  0.29707306  0.91994295  0.47642513  1  0.039928  0  0.101241  0.115129  0  1.014394  0
H  H32  1  0.55683554  0.07074957  0.49442333  1  0.065347  0  0.104322  0.116574  0  1.004751  0
H  H33  1  0.44317364  0.92926084  0.50557245  1  0.065358  0  0.104287  0.11657  0  1.004743  0
H  H34  1  0.72798174  0.94053822  0.48566797  1  0.117116  0  0.112439  0.132998  0  1.009843  0
H  H35  1  0.27202389  0.05946860  0.51432456  1  0.116945  0  0.112471  0.133032  0  1.009854  0
H  H36  1  0.39837405  0.06541095  0.65887023  1  0.052411  0  0.107225  0.121197  0  0.992746  0
H  H37  1  0.60164683  0.93461210  0.34112981  1  0.052063  0  0.107151  0.121073  0  0.992833  0
H  H38  1  0.50858098  0.11978156  0.69172296  1  0.044163  0  0.111369  0.130112  0  0.968017  0
H  H39  1  0.49145440  0.88022703  0.30827250  1  0.044638  0  0.111503  0.130222  0  0.968135  0
H  H40  1  0.48574862  0.97930156  0.76143513  1  0.069848  0  0.110997  0.117858  0  0.990924  0
H  H41  1  0.51427359  0.02071306  0.23856173  1  0.069425  0  0.111053  0.117827  0  0.990967  0
C  C42  1  0.13957775  0.66186963  0.86113474  1  -0.60307  0  -0.023607  -0.153978  0  4.006085  0
C  C43  1  0.86040766  0.33813033  0.13887329  1  -0.603797  0  -0.023615  -0.153933  0  4.005607  0
C  C44  1  0.47789487  0.64006959  0.51327089  1  -0.072702  0  -0.077689  -0.090221  0  3.960294  0
C  C45  1  0.52210567  0.35992615  0.48672870  1  -0.073166  0  -0.077694  -0.090188  0  3.960316  0
C  C46  1  0.07678315  0.88535713  0.70754663  1  -0.601441  0  -0.027612  -0.155219  0  4.010633  0
C  C47  1  0.92322529  0.11463557  0.29244786  1  -0.601367  0  -0.027578  -0.155208  0  4.010705  0
C  C48  1  0.32666011  0.66801047  0.66917132  1  -0.571575  0  -0.019198  -0.141717  0  3.99024  0
C  C49  1  0.67333989  0.33197967  0.33083243  1  -0.571261  0  -0.019136  -0.141572  0  3.990256  0
C  C50  1  0.98460038  0.94793869  0.63941499  1  -0.054198  0  -0.080752  -0.07898  0  3.964445  0
C  C51  1  0.01540823  0.05205589  0.36057765  1  -0.054324  0  -0.080766  -0.079097  0  3.964487  0
C  C52  1  0.34515156  0.66309547  0.57061489  1  -0.021113  0  -0.073272  -0.07558  0  3.963345  0
C  C53  1  0.65485043  0.33689461  0.42938914  1  -0.021599  0  -0.073291  -0.075615  0  3.963429  0
C  C54  1  0.59359180  0.62053272  0.55318493  1  -0.063633  0  -0.006279  -0.017501  0  3.923378  0
C  C55  1  0.40640646  0.37945466  0.44682120  1  -0.063336  0  -0.006367  -0.017699  0  3.923504  0
C  C56  1  0.03070742  0.73973497  0.92308783  1  -0.003001  0  -0.082232  -0.081495  0  4.011491  0
C  C57  1  0.96925700  0.26026484  0.07690609  1  -0.001757  0  -0.082192  -0.081644  0  4.011023  0
C  C58  1  0.57558233  0.62289785  0.65200970  1  -0.034614  0  -0.074951  -0.086457  0  3.929782  0
C  C59  1  0.42441736  0.37709323  0.34799597  1  -0.034442  0  -0.074777  -0.086172  0  3.929478  0
C  C60  1  0.44206070  0.64781738  0.70973157  1  -0.03907  0  -0.084807  -0.088136  0  4.007268  0
C  C61  1  0.55793975  0.35216903  0.29027018  1  -0.038901  0  -0.084851  -0.088329  0  4.007212  0
C  C62  1  0.12257686  0.95446561  0.74549682  1  -0.078052  0  -0.08723  -0.091181  0  4.030635  0
C  C63  1  0.87743678  0.04551943  0.25450177  1  -0.078722  0  -0.087293  -0.091293  0  4.030549  0
C  C64  1  0.09846967  0.57233501  0.06157307  1  -0.018705  0  1.5e-05  0.006415  0  3.919213  0
C  C65  1  0.90148920  0.42768175  0.93842985  1  0.031834  0  -0.000128  0.006261  0  3.919501  0
C  C66  1  0.06972398  0.52702083  0.16914047  1  1.573283  0  0.187406  0.573242  0  4.238515  0
C  C67  1  0.93024751  0.47300110  0.83086272  1  1.573278  0  0.187499  0.573414  0  4.238784  0
C  C68  1  0.20818868  0.49527589  0.00003502  1  0.00854  0  -0.077486  -0.089167  0  3.948603  0
C  C69  1  0.79178551  0.50474061  0.99997659  1  0.008006  0  -0.077425  -0.089195  0  3.948603  0
C  C70  1  0.00938389  0.69431081  0.02242028  1  -0.071433  0  -0.079404  -0.089855  0  3.958062  0
C  C71  1  0.99056798  0.30570064  0.97757293  1  -0.122142  0  -0.079321  -0.089686  0  3.957914  0
C  C72  1  0.98950369  0.14731222  0.64393701  1  -0.073096  0  -0.005228  -0.012176  0  3.925322  0
C  C73  1  0.01051331  0.85267923  0.35606353  1  -0.072277  0  -0.005286  -0.012313  0  3.925402  0
C  C74  1  0.94309252  0.07811759  0.60717932  1  0.007521  0  -0.081475  -0.091093  0  3.961603  0
C  C75  1  0.05691891  0.92187779  0.39281943  1  0.007109  0  -0.081434  -0.090859  0  3.961576  0
C  C76  1  0.07684972  0.08530998  0.71510231  1  0.041104  0  -0.080417  -0.098662  0  3.963783  0
C  C77  1  0.92317060  0.91467296  0.28489534  1  0.041986  0  -0.080445  -0.098582  0  3.96322  0
C  C78  1  0.95563600  0.28559720  0.60174205  1  1.606871  0  0.229463  0.635639  0  4.174552  0
C  C79  1  0.04438495  0.71439221  0.39826432  1  1.60659  0  0.229258  0.635264  0  4.175132  0
C  C80  1  0.73532941  0.59111514  0.48908360  1  1.568193  0  0.212796  0.616453  0  4.19796  0
C  C81  1  0.26467320  0.40888330  0.51092251  1  1.567582  0  0.212728  0.616504  0  4.197663  0
C  C82  1  0.22734859  0.53858885  0.89992045  1  -0.077332  0  -0.07228  -0.064412  0  3.978387  0
C  C83  1  0.77264103  0.46141560  0.10009187  1  -0.076548  0  -0.072269  -0.064457  0  3.978216  0
C  C84  1  0.70063883  0.83720363  0.66132647  1  1.382976  0  0.185498  0.315074  0  4.112314  0
C  C85  1  0.29939586  0.16279104  0.33865648  1  1.381839  0  0.185669  0.315011  0  4.110719  0
C  C86  1  0.65344187  0.01529333  0.52670782  1  0.249173  0  -0.133744  -0.269795  0  3.885843  0
C  C87  1  0.34656931  0.98471423  0.47328404  1  0.249471  0  -0.133607  -0.269714  0  3.885626  0
C  C88  1  0.49609708  0.03464788  0.68788949  1  0.289344  0  -0.122831  -0.270253  0  3.926048  0
C  C89  1  0.50392472  0.96536770  0.31210655  1  0.289815  0  -0.122875  -0.270198  0  3.926163  0
N  N90  1  0.61773345  0.95711331  0.62665919  1  -1.207667  0  -0.284997  0.010877  0  3.72672  0
N  N91  1  0.38227274  0.04290188  0.37333405  1  -1.208749  0  -0.284978  0.011127  0  3.726594  0
O  O92  1  0.94411646  0.57799569  0.21325857  1  -1.168543  0  -0.379002  -0.617294  0  2.191137  0
O  O93  1  0.05586032  0.42201855  0.78675146  1  -1.168096  0  -0.379082  -0.617337  0  2.191094  0
O  O94  1  0.74830458  0.57310144  0.40421910  1  -1.166199  0  -0.37335  -0.614646  0  2.18267  0
O  O95  1  0.25170303  0.42688469  0.59578810  1  -1.16631  0  -0.373262  -0.61462  0  2.182759  0
O  O96  1  0.92217190  0.32334638  0.51732487  1  -1.192545  0  -0.380037  -0.652314  0  2.299785  0
O  O97  1  0.07783988  0.67664616  0.48267928  1  -1.192498  0  -0.379915  -0.652162  0  2.300286  0
O  O98  1  0.16993479  0.43989735  0.21287405  1  -1.200182  0  -0.389127  -0.660744  0  2.163146  0
O  O99  1  0.83004758  0.56012889  0.78712583  1  -1.200462  0  -0.389105  -0.660839  0  2.163517  0
O  O100  1  0.96779587  0.35057638  0.65213515  1  -1.1926  0  -0.383737  -0.657336  0  2.285138  0
O  O101  1  0.03221974  0.64940479  0.34787562  1  -1.19238  0  -0.38367  -0.657222  0  2.285221  0
O  O102  1  0.84107408  0.58073706  0.52139669  1  -1.206449  0  -0.422771  -0.747064  0  2.47096  0
O  O103  1  0.15891766  0.41925896  0.47860677  1  -1.205908  0  -0.422789  -0.747102  0  2.470511  0
O  O104  1  0.06343919  0.67002141  0.69165051  1  -1.433884  0  -0.431876  -0.740497  0  2.361201  0
O  O105  1  0.93656298  0.32997243  0.30834574  1  -1.433907  0  -0.43197  -0.740608  0  2.361155  0
O  O106  1  0.80836226  0.77028247  0.61162146  1  -1.177926  0  -0.336954  -0.516103  0  2.414125  0
O  O107  1  0.19161980  0.22973257  0.38838038  1  -1.176708  0  -0.337244  -0.516477  0  2.412085  0
