# generated using pymatgen
data_KH4C3(N3O)3
_symmetry_space_group_name_H-M   'P 1'
_cell_length_a   7.52629210
_cell_length_b   7.73409353
_cell_length_c   17.51056357
_cell_angle_alpha   84.47664341
_cell_angle_beta   78.47864782
_cell_angle_gamma   69.97579929
_symmetry_Int_Tables_number   1
_chemical_formula_structural   KH4C3(N3O)3
_chemical_formula_sum   'K4 H16 C12 N36 O12'
_cell_volume   937.92997856
_cell_formula_units_Z   4
loop_
 _symmetry_equiv_pos_site_id
 _symmetry_equiv_pos_as_xyz
  1  'x, y, z'
loop_
 _atom_site_type_symbol
 _atom_site_label
 _atom_site_symmetry_multiplicity
 _atom_site_fract_x
 _atom_site_fract_y
 _atom_site_fract_z
 _atom_site_occupancy
 _atom_site_hle17_bader_spin_density
 _atom_site_hle17_ddec_charge
 _atom_site_hle17_ddec_spin_density
 _atom_site_hle17_ddec_sum_bond_order
 _atom_site_hle17_magmom
 _atom_site_hse06_10hf_bader_spin_density
 _atom_site_hse06_10hf_ddec_charge
 _atom_site_hse06_10hf_ddec_spin_density
 _atom_site_hse06_10hf_ddec_sum_bond_order
 _atom_site_hse06_10hf_magmom
 _atom_site_hse06_bader_spin_density
 _atom_site_hse06_ddec_charge
 _atom_site_hse06_ddec_spin_density
 _atom_site_hse06_ddec_sum_bond_order
 _atom_site_hse06_magmom
 _atom_site_pbe_bader_spin_density
 _atom_site_pbe_cm5_charge
 _atom_site_pbe_ddec_charge
 _atom_site_pbe_ddec_spin_density
 _atom_site_pbe_ddec_sum_bond_order
 _atom_site_pbe_magmom
K  K0  1  0.85111300  0.79518625  0.00230788  1  0  0.879683  0  0.496421  0  0  0.792996  0  0.72871  0  0  0.809724  0  0.702986  0  0  0.79886  0.780675  0  0.74697  0
K  K1  1  0.14888327  0.20481660  0.99769233  1  0  0.879692  0  0.496404  0  0  0.792995  0  0.728714  0  0  0.809722  0  0.70299  0  0  0.798856  0.78067  0  0.746978  0
K  K2  1  0.34976861  0.86255300  0.56791194  1  0  0.901793  0  0.432465  0  0  0.837709  0  0.623367  0  0  0.853311  0  0.598683  0  0  0.74357  0.826183  0  0.640912  0
K  K3  1  0.65022415  0.13744434  0.43208766  1  0  0.901788  0  0.432477  0  0  0.837706  0  0.623375  0  0  0.853308  0  0.598692  0  0  0.743568  0.826191  0  0.6409  0
H  H4  1  0.77045274  0.94415539  0.71172529  1  0  0.122316  0  0.951857  0  0  0.125922  0  1.025899  0  0  0.128188  0  1.023405  0  0  0.125586  0.124324  0  1.027747  0
H  H5  1  0.22954767  0.05584334  0.28827417  1  0  0.122316  0  0.951835  0  0  0.125914  0  1.025885  0  0  0.128181  0  1.023389  0  0  0.125583  0.124317  0  1.027732  0
H  H6  1  0.81552189  0.42980622  0.86403673  1  0  0.143975  0  0.917298  0  0  0.154885  0  0.978999  0  0  0.156143  0  0.978091  0  0  0.139207  0.1539  0  0.979808  0
H  H7  1  0.18447892  0.57019527  0.13596200  1  0  0.143972  0  0.917301  0  0  0.15489  0  0.978986  0  0  0.15615  0  0.978079  0  0  0.139187  0.153904  0  0.9798  0
H  H8  1  0.77052877  0.81393124  0.80235503  1  0  0.127781  0  0.922958  0  0  0.131286  0  0.997358  0  0  0.134065  0  0.994713  0  0  0.133026  0.129235  0  0.999345  0
H  H9  1  0.22947300  0.18606749  0.19764488  1  0  0.127773  0  0.922972  0  0  0.131275  0  0.997369  0  0  0.134056  0  0.994723  0  0  0.133015  0.129225  0  0.999355  0
H  H10  1  0.64940293  0.30636811  0.88580134  1  0  0.133606  0  0.906795  0  0  0.14158  0  0.971619  0  0  0.143052  0  0.970228  0  0  0.141154  0.140498  0  0.972722  0
H  H11  1  0.35059789  0.69363338  0.11419739  1  0  0.133641  0  0.906788  0  0  0.141589  0  0.971623  0  0  0.143064  0  0.970228  0  0  0.141165  0.140507  0  0.972725  0
H  H12  1  0.82186218  0.46860660  0.09332545  1  0  0.363282  0  0.974592  0  0  0.325626  0  1.050508  0  0  0.336724  0  1.034576  0  0  0.265018  0.317879  0  1.06159  0
H  H13  1  0.17813640  0.53139350  0.90667582  1  0  0.363335  0  0.974531  0  0  0.325683  0  1.05044  0  0  0.336781  0  1.034508  0  0  0.265033  0.317935  0  1.061523  0
H  H14  1  0.91457913  0.50539267  0.16135205  1  0  0.380043  0  0.944989  0  0  0.338876  0  1.028338  0  0  0.350138  0  1.011871  0  0  0.267218  0.330983  0  1.039856  0
H  H15  1  0.08541945  0.49460742  0.83864979  1  0  0.380058  0  0.944962  0  0  0.338895  0  1.028306  0  0  0.350157  0  1.011839  0  0  0.26721  0.331002  0  1.039823  0
H  H16  1  0.19891348  0.30923180  0.52982920  1  0  0.38988  0  0.925429  0  0  0.348519  0  1.007556  0  0  0.359414  0  0.991645  0  0  0.277871  0.340826  0  1.01874  0
H  H17  1  0.80108558  0.69076693  0.47017094  1  0  0.389845  0  0.92548  0  0  0.348483  0  1.007608  0  0  0.359381  0  0.991693  0  0  0.277858  0.340792  0  1.018788  0
H  H18  1  0.17970727  0.24081463  0.45132627  1  0  0.399555  0  0.909822  0  0  0.360997  0  0.987258  0  0  0.372144  0  0.970855  0  0  0.278437  0.353132  0  0.998782  0
H  H19  1  0.82029179  0.75918410  0.54867387  1  0  0.399625  0  0.909722  0  0  0.361077  0  0.987163  0  0  0.372225  0  0.970757  0  0  0.278484  0.35321  0  0.998689  0
C  C20  1  0.96870441  0.66976141  0.70313365  1  0  0.270882  0  3.804815  0  0  0.25321  0  4.081545  0  0  0.260471  0  4.101048  0  0  0.198194  0.248527  0  4.068098  0
C  C21  1  0.03129600  0.33023732  0.29686638  1  0  0.270951  0  3.80471  0  0  0.253174  0  4.081575  0  0  0.260435  0  4.10108  0  0  0.198171  0.248491  0  4.068129  0
C  C22  1  0.86034834  0.84009093  0.74774167  1  0  -0.134322  0  3.594853  0  0  -0.1901  0  3.838277  0  0  -0.187858  0  3.844936  0  0  -0.029512  -0.1915  0  3.833831  0
C  C23  1  0.13965208  0.15990780  0.25225836  1  0  -0.134345  0  3.594881  0  0  -0.190102  0  3.838361  0  0  -0.187862  0  3.845021  0  0  -0.029508  -0.191498  0  3.833904  0
C  C24  1  0.20275513  0.02745564  0.77266822  1  0  0.278871  0  3.756525  0  0  0.236254  0  4.065064  0  0  0.24163  0  4.078598  0  0  0.332265  0.232341  0  4.056354  0
C  C25  1  0.79724616  0.97254447  0.22733110  1  0  0.27895  0  3.756379  0  0  0.2363  0  4.064954  0  0  0.241674  0  4.078494  0  0  0.332263  0.232388  0  4.056243  0
C  C26  1  0.66977246  0.39567354  0.66686521  1  0  0.291523  0  3.734041  0  0  0.239012  0  4.040368  0  0  0.243623  0  4.055106  0  0  0.327439  0.235598  0  4.030863  0
C  C27  1  0.33022612  0.60432657  0.33313320  1  0  0.291699  0  3.734105  0  0  0.239191  0  4.040398  0  0  0.243802  0  4.055138  0  0  0.327514  0.235776  0  4.030895  0
C  C28  1  0.52671872  0.59576585  0.90702043  1  0  0.290883  0  3.813651  0  0  0.269066  0  4.099908  0  0  0.277226  0  4.117088  0  0  0.204218  0.263706  0  4.088168  0
C  C29  1  0.47328122  0.40423426  0.09297901  1  0  0.290964  0  3.813592  0  0  0.269114  0  4.099883  0  0  0.277278  0  4.117062  0  0  0.20425  0.263755  0  4.088141  0
C  C30  1  0.66797690  0.43726134  0.86261124  1  0  -0.12629  0  3.595304  0  0  -0.197177  0  3.833382  0  0  -0.194414  0  3.84051  0  0  -0.023616  -0.198999  0  3.82865  0
C  C31  1  0.33202391  0.56274015  0.13738750  1  0  -0.126344  0  3.595282  0  0  -0.197201  0  3.833379  0  0  -0.19445  0  3.840523  0  0  -0.023603  -0.199022  0  3.828643  0
N  N32  1  0.98971243  0.92075671  0.77213759  1  0  0.267993  0  3.485701  0  0  0.311848  0  3.770689  0  0  0.308876  0  3.789626  0  0  0.021421  0.313597  0  3.758122  0
N  N33  1  0.01028886  0.07924340  0.22786230  1  0  0.267998  0  3.485708  0  0  0.311852  0  3.77068  0  0  0.30888  0  3.789617  0  0  0.021415  0.313601  0  3.758114  0
N  N34  1  0.14199494  0.94244938  0.72581765  1  0  -0.284908  0  2.895286  0  0  -0.284662  0  3.185223  0  0  -0.2875  0  3.194838  0  0  -0.222976  -0.282599  0  3.179035  0
N  N35  1  0.85800500  0.05755073  0.27418179  1  0  -0.284909  0  2.895245  0  0  -0.28465  0  3.185184  0  0  -0.287488  0  3.194799  0  0  -0.222951  -0.282589  0  3.178997  0
N  N36  1  0.09350008  0.05721771  0.84410181  1  0  -0.225059  0  2.960161  0  0  -0.216433  0  3.261409  0  0  -0.221661  0  3.271891  0  0  -0.181592  -0.21287  0  3.254621  0
N  N37  1  0.90650121  0.94278240  0.15589752  1  0  -0.225044  0  2.96011  0  0  -0.216403  0  3.261352  0  0  -0.221631  0  3.271835  0  0  -0.181578  -0.21284  0  3.254564  0
N  N38  1  0.37612810  0.07414809  0.74902002  1  0  0.482909  0  3.942301  0  0  0.503548  0  4.257707  0  0  0.525237  0  4.261875  0  0  0.071214  0.488903  0  4.255145  0
N  N39  1  0.62387366  0.92585065  0.25097818  1  0  0.482911  0  3.94223  0  0  0.503575  0  4.257611  0  0  0.525263  0  4.261776  0  0  0.071232  0.488929  0  4.255051  0
N  N40  1  0.95683282  0.98767231  0.84349552  1  0  -0.079275  0  2.811064  0  0  -0.078788  0  3.107458  0  0  -0.076168  0  3.11508  0  0  -0.06745  -0.080463  0  3.10257  0
N  N41  1  0.04316799  0.01232918  0.15650436  1  0  -0.079334  0  2.811106  0  0  -0.078839  0  3.107489  0  0  -0.076219  0  3.11511  0  0  -0.067467  -0.080514  0  3.102601  0
N  N42  1  0.26582010  0.76850069  0.97213874  1  0  -0.166286  0  3.065544  0  0  -0.148303  0  3.363842  0  0  -0.151313  0  3.378491  0  0  -0.1784  -0.145874  0  3.353629  0
N  N43  1  0.73418031  0.23149805  0.02786071  1  0  -0.166294  0  3.065537  0  0  -0.148311  0  3.363832  0  0  -0.15132  0  3.378481  0  0  -0.178417  -0.145882  0  3.35362  0
N  N44  1  0.97405509  0.65131010  0.62688769  1  0  -0.338378  0  2.998387  0  0  -0.301286  0  3.264088  0  0  -0.312836  0  3.278131  0  0  -0.219227  -0.29322  0  3.254281  0
N  N45  1  0.02594533  0.34868863  0.37311234  1  0  -0.338392  0  2.998358  0  0  -0.301273  0  3.264077  0  0  -0.312822  0  3.27812  0  0  -0.219224  -0.29321  0  3.254274  0
N  N46  1  0.07492476  0.51281525  0.73508201  1  0  -0.330454  0  3.048212  0  0  -0.289529  0  3.327997  0  0  -0.302313  0  3.343419  0  0  -0.223356  -0.280781  0  3.317429  0
N  N47  1  0.92507565  0.48718348  0.26491802  1  0  -0.330486  0  3.048222  0  0  -0.289518  0  3.328019  0  0  -0.302304  0  3.343443  0  0  -0.223352  -0.28077  0  3.317448  0
N  N48  1  0.14863276  0.39364081  0.67685653  1  0  -0.110601  0  3.012503  0  0  -0.110979  0  3.321023  0  0  -0.112449  0  3.336442  0  0  -0.113647  -0.109442  0  3.310142  0
N  N49  1  0.85136766  0.60635792  0.32314349  1  0  -0.110588  0  3.012542  0  0  -0.110963  0  3.321046  0  0  -0.112434  0  3.336466  0  0  -0.113638  -0.109427  0  3.310165  0
N  N50  1  0.08802321  0.47554521  0.61245172  1  0  -0.11852  0  3.050769  0  0  -0.088912  0  3.339739  0  0  -0.092595  0  3.352623  0  0  -0.096568  -0.086051  0  3.330683  0
N  N51  1  0.91197720  0.52445352  0.38754831  1  0  -0.118512  0  3.050806  0  0  -0.088902  0  3.339766  0  0  -0.092584  0  3.35265  0  0  -0.096559  -0.086041  0  3.330712  0
N  N52  1  0.64450042  0.45358519  0.78048581  1  0  0.211474  0  3.52516  0  0  0.302721  0  3.74771  0  0  0.299127  0  3.767152  0  0  0.021619  0.304836  0  3.734819  0
N  N53  1  0.35549856  0.54641767  0.21951417  1  0  0.211439  0  3.525154  0  0  0.302643  0  3.747733  0  0  0.299052  0  3.767171  0  0  0.021554  0.30476  0  3.734842  0
N  N54  1  0.53749752  0.56491790  0.67647894  1  0  -0.253137  0  2.966457  0  0  -0.246732  0  3.278294  0  0  -0.251901  0  3.288541  0  0  -0.216083  -0.243096  0  3.271581  0
N  N55  1  0.46250290  0.43508083  0.32352051  1  0  -0.253173  0  2.966442  0  0  -0.246779  0  3.278284  0  0  -0.251949  0  3.28853  0  0  -0.216087  -0.243145  0  3.271574  0
N  N56  1  0.74027894  0.32131664  0.73089055  1  0  -0.221656  0  2.846811  0  0  -0.239721  0  3.126014  0  0  -0.242172  0  3.138636  0  0  -0.16162  -0.237986  0  3.117829  0
N  N57  1  0.25972148  0.67868208  0.26911062  1  0  -0.221769  0  2.847106  0  0  -0.239796  0  3.126298  0  0  -0.242248  0  3.138919  0  0  -0.161659  -0.238061  0  3.118113  0
N  N58  1  0.52195580  0.60185008  0.74978733  1  0  -0.046633  0  2.814436  0  0  -0.062861  0  3.094919  0  0  -0.060462  0  3.106009  0  0  -0.051674  -0.064388  0  3.087625  0
N  N59  1  0.47804413  0.39815003  0.25021268  1  0  -0.046629  0  2.81442  0  0  -0.062843  0  3.09491  0  0  -0.060442  0  3.105998  0  0  -0.051674  -0.06437  0  3.087617  0
N  N60  1  0.72548935  0.29931015  0.59484973  1  0  0.440995  0  3.980098  0  0  0.506582  0  4.227156  0  0  0.527874  0  4.232448  0  0  0.065662  0.492185  0  4.223889  0
N  N61  1  0.27450828  0.70069271  0.40514923  1  0  0.440882  0  3.980281  0  0  0.506458  0  4.227353  0  0  0.527749  0  4.232647  0  0  0.065653  0.492062  0  4.224085  0
N  N62  1  0.34327387  0.60888966  0.93473972  1  0  -0.317947  0  3.072921  0  0  -0.272557  0  3.334421  0  0  -0.284597  0  3.349088  0  0  -0.227281  -0.264348  0  3.324416  0
N  N63  1  0.65672742  0.39111046  0.06525960  1  0  -0.317944  0  3.072854  0  0  -0.27254  0  3.334367  0  0  -0.284581  0  3.349033  0  0  -0.227275  -0.26433  0  3.324361  0
N  N64  1  0.56555811  0.74184391  0.92570498  1  0  -0.355029  0  3.01149  0  0  -0.32925  0  3.305886  0  0  -0.339544  0  3.318648  0  0  -0.29047  -0.322121  0  3.29707  0
N  N65  1  0.43444134  0.25815757  0.07429444  1  0  -0.355056  0  3.011545  0  0  -0.329272  0  3.305969  0  0  -0.339565  0  3.318728  0  0  -0.290496  -0.322143  0  3.297151  0
N  N66  1  0.39900283  0.84758669  0.96693379  1  0  -0.166971  0  3.090678  0  0  -0.150107  0  3.401882  0  0  -0.152297  0  3.413989  0  0  -0.206464  -0.14818  0  3.39329  0
N  N67  1  0.60099575  0.15241342  0.03306577  1  0  -0.166976  0  3.090705  0  0  -0.15011  0  3.401908  0  0  -0.1523  0  3.414015  0  0  -0.206461  -0.148184  0  3.393316  0
O  O68  1  0.93526142  0.49658454  0.10377910  1  0  -0.901285  0  1.856534  0  0  -0.844911  0  2.05195  0  0  -0.863531  0  2.019191  0  0  -0.722091  -0.831307  0  2.074593  0
O  O69  1  0.06473573  0.50341968  0.89622269  1  0  -0.901337  0  1.856487  0  0  -0.844957  0  2.051872  0  0  -0.863587  0  2.01913  0  0  -0.722102  -0.831352  0  2.074517  0
O  O70  1  0.47133790  0.02661344  0.68332228  1  0  -0.355732  0  1.782922  0  0  -0.346779  0  2.010165  0  0  -0.360354  0  2.006175  0  0  -0.138181  -0.337815  0  2.01311  0
O  O71  1  0.52866069  0.97338667  0.31667785  1  0  -0.355793  0  1.782784  0  0  -0.346835  0  2.009983  0  0  -0.36041  0  2.005992  0  0  -0.138242  -0.337871  0  2.012929  0
O  O72  1  0.26030506  0.20750559  0.49251554  1  0  -0.910019  0  1.805197  0  0  -0.854387  0  1.981696  0  0  -0.873304  0  1.948948  0  0  -0.716657  -0.840314  0  2.004428  0
O  O73  1  0.73969400  0.79249313  0.50748460  1  0  -0.910039  0  1.805146  0  0  -0.854428  0  1.981578  0  0  -0.873346  0  1.948829  0  0  -0.716687  -0.840353  0  2.004318  0
O  O74  1  0.41869105  0.15492322  0.79634383  1  0  -0.299008  0  1.742359  0  0  -0.283285  0  1.948189  0  0  -0.293609  0  1.944214  0  0  -0.087871  -0.276531  0  1.951129  0
O  O75  1  0.58131247  0.84507827  0.20365582  1  0  -0.298975  0  1.742491  0  0  -0.283263  0  1.948324  0  0  -0.293586  0  1.944348  0  0  -0.087835  -0.27651  0  1.951265  0
O  O76  1  0.84703938  0.14345865  0.59263123  1  0  -0.308132  0  1.758458  0  0  -0.312384  0  1.9505  0  0  -0.322704  0  1.944567  0  0  -0.092182  -0.305758  0  1.954902  0
O  O77  1  0.15296287  0.85653872  0.40736756  1  0  -0.308003  0  1.758653  0  0  -0.312262  0  1.950704  0  0  -0.322583  0  1.944773  0  0  -0.092112  -0.30564  0  1.955105  0
O  O78  1  0.64314158  0.38092123  0.54052797  1  0  -0.327834  0  1.797812  0  0  -0.33152  0  2.002718  0  0  -0.343408  0  1.997022  0  0  -0.145046  -0.323715  0  2.00686  0
O  O79  1  0.35685836  0.61907887  0.45947319  1  0  -0.327866  0  1.797808  0  0  -0.331541  0  2.002718  0  0  -0.343426  0  1.997013  0  0  -0.145099  -0.323734  0  2.006861  0
