# generated using pymatgen
data_Zn2H6C19(O4F3)2
_symmetry_space_group_name_H-M   'P 1'
_cell_length_a   7.70002707
_cell_length_b   10.62038078
_cell_length_c   12.55268992
_cell_angle_alpha   95.10460810
_cell_angle_beta   107.84652410
_cell_angle_gamma   89.99515829
_symmetry_Int_Tables_number   1
_chemical_formula_structural   Zn2H6C19(O4F3)2
_chemical_formula_sum   'Zn4 H12 C38 O16 F12'
_cell_volume   972.85313200
_cell_formula_units_Z   2
loop_
 _symmetry_equiv_pos_site_id
 _symmetry_equiv_pos_as_xyz
  1  'x, y, z'
loop_
 _atom_site_type_symbol
 _atom_site_label
 _atom_site_symmetry_multiplicity
 _atom_site_fract_x
 _atom_site_fract_y
 _atom_site_fract_z
 _atom_site_occupancy
 _atom_site_hle17_bader_spin_density
 _atom_site_hle17_ddec_charge
 _atom_site_hle17_ddec_spin_density
 _atom_site_hle17_ddec_sum_bond_order
 _atom_site_hle17_magmom
 _atom_site_hse06_10hf_bader_spin_density
 _atom_site_hse06_10hf_ddec_charge
 _atom_site_hse06_10hf_ddec_spin_density
 _atom_site_hse06_10hf_ddec_sum_bond_order
 _atom_site_hse06_10hf_magmom
 _atom_site_hse06_bader_spin_density
 _atom_site_hse06_ddec_charge
 _atom_site_hse06_ddec_spin_density
 _atom_site_hse06_ddec_sum_bond_order
 _atom_site_hse06_magmom
 _atom_site_pbe_bader_spin_density
 _atom_site_pbe_cm5_charge
 _atom_site_pbe_ddec_charge
 _atom_site_pbe_ddec_spin_density
 _atom_site_pbe_ddec_sum_bond_order
 _atom_site_pbe_magmom
Zn  Zn0  1  0.29928378  0.61050787  0.46963146  1  0  1.19076  0  1.691941  0  0  1.018969  0  2.16627  0  0  1.069174  0  2.100806  0  0  0.712843  0.983408  0  2.211711  0
Zn  Zn1  1  0.82967791  0.88960259  0.53037862  1  0  1.190531  0  1.691726  0  0  1.019168  0  2.165879  0  0  1.069351  0  2.100439  0  0  0.712626  0.983619  0  2.211319  0
Zn  Zn2  1  0.70071590  0.38949340  0.53036935  1  0  1.190798  0  1.69194  0  0  1.019033  0  2.166243  0  0  1.069235  0  2.100778  0  0  0.712859  0.983475  0  2.211702  0
Zn  Zn3  1  0.17032169  0.11039678  0.46961965  1  0  1.190512  0  1.691741  0  0  1.019147  0  2.165903  0  0  1.069334  0  2.100454  0  0  0.712622  0.983597  0  2.211357  0
H  H4  1  0.89931814  0.83482426  0.21717198  1  0  0.117855  0  0.936675  0  0  0.125792  0  0.995862  0  0  0.129497  0  0.993877  0  0  0.107492  0.123239  0  0.997226  0
H  H5  1  0.68203016  0.66496378  0.78285393  1  0  0.117415  0  0.93751  0  0  0.125618  0  0.99647  0  0  0.129214  0  0.994611  0  0  0.107502  0.123135  0  0.997755  0
H  H6  1  0.10068150  0.16517606  0.78282716  1  0  0.117866  0  0.936634  0  0  0.125799  0  0.995817  0  0  0.129505  0  0.993833  0  0  0.107487  0.123249  0  0.997184  0
H  H7  1  0.31796949  0.33503654  0.21714601  1  0  0.117408  0  0.937507  0  0  0.125614  0  0.996457  0  0  0.129209  0  0.9946  0  0  0.107496  0.123131  0  0.997743  0
H  H8  1  0.62848135  0.86289822  0.05681865  1  0  0.103841  0  0.967353  0  0  0.109856  0  1.034912  0  0  0.112784  0  1.033278  0  0  0.099612  0.107801  0  1.036043  0
H  H9  1  0.57156902  0.63712624  0.94330324  1  0  0.103324  0  0.968496  0  0  0.109549  0  1.035751  0  0  0.112486  0  1.034123  0  0  0.099548  0.107484  0  1.03687  0
H  H10  1  0.37151825  0.13710116  0.94318121  1  0  0.103819  0  0.967311  0  0  0.109829  0  1.034888  0  0  0.112757  0  1.033255  0  0  0.099598  0.107771  0  1.036017  0
H  H11  1  0.42842926  0.36287408  0.05669644  1  0  0.10334  0  0.968492  0  0  0.109572  0  1.035731  0  0  0.112509  0  1.034104  0  0  0.09956  0.107506  0  1.036859  0
H  H12  1  0.32242459  0.60460591  0.18343543  1  0  0.115193  0  0.958864  0  0  0.122097  0  1.024117  0  0  0.126286  0  1.020333  0  0  0.103905  0.119054  0  1.026911  0
H  H13  1  0.13910565  0.89553554  0.81668414  1  0  0.115926  0  0.958692  0  0  0.121836  0  1.024937  0  0  0.126111  0  1.021049  0  0  0.103576  0.118738  0  1.027811  0
H  H14  1  0.67757642  0.39539443  0.81656556  1  0  0.115208  0  0.958821  0  0  0.122114  0  1.024075  0  0  0.126306  0  1.020293  0  0  0.103902  0.119074  0  1.026869  0
H  H15  1  0.86089543  0.10446669  0.18331699  1  0  0.11597  0  0.958625  0  0  0.121851  0  1.024903  0  0  0.126125  0  1.021017  0  0  0.103576  0.118751  0  1.027778  0
C  C16  1  0.60070479  0.63975696  0.27960747  1  0  -0.069754  0  3.721178  0  0  -0.054957  0  3.959479  0  0  -0.062994  0  3.981859  0  0  -0.011192  -0.049547  0  3.944687  0
C  C17  1  0.32123568  0.86027970  0.72047529  1  0  -0.068755  0  3.723628  0  0  -0.053168  0  3.960489  0  0  -0.061199  0  3.982971  0  0  -0.011004  -0.047755  0  3.945598  0
C  C18  1  0.39929622  0.36024337  0.72039272  1  0  -0.069801  0  3.721179  0  0  -0.054994  0  3.959494  0  0  -0.063032  0  3.981874  0  0  -0.011212  -0.049588  0  3.94471  0
C  C19  1  0.67876541  0.13972252  0.27952585  1  0  -0.068792  0  3.723641  0  0  -0.05319  0  3.960495  0  0  -0.061221  0  3.982976  0  0  -0.011028  -0.047785  0  3.945611  0
C  C20  1  0.76576419  0.70335845  0.28975065  1  0  -0.044308  0  3.706195  0  0  -0.03558  0  3.946141  0  0  -0.037389  0  3.96421  0  0  0.000137  -0.034321  0  3.933849  0
C  C21  1  0.47608143  0.79656837  0.71029139  1  0  -0.046052  0  3.708315  0  0  -0.037842  0  3.947839  0  0  -0.039684  0  3.965968  0  0  2.9e-05  -0.036597  0  3.935612  0
C  C22  1  0.23423545  0.29664188  0.71024849  1  0  -0.044208  0  3.706067  0  0  -0.035498  0  3.946038  0  0  -0.037303  0  3.9641  0  0  0.000165  -0.034246  0  3.933758  0
C  C23  1  0.52391961  0.20343291  0.28970968  1  0  -0.046004  0  3.708266  0  0  -0.037801  0  3.947797  0  0  -0.03964  0  3.96593  0  0  4.7e-05  -0.03656  0  3.935578  0
C  C24  1  0.77257578  0.78382693  0.20881632  1  0  -0.063564  0  3.702494  0  0  -0.089625  0  3.962418  0  0  -0.092309  0  3.981711  0  0  -0.08321  -0.087848  0  3.949431  0
C  C25  1  0.56372722  0.71608692  0.79123668  1  0  -0.062767  0  3.704122  0  0  -0.08894  0  3.964063  0  0  -0.091536  0  3.983415  0  0  -0.083074  -0.087183  0  3.950935  0
C  C26  1  0.22742250  0.21617340  0.79118336  1  0  -0.063614  0  3.70238  0  0  -0.089659  0  3.962289  0  0  -0.092347  0  3.981584  0  0  -0.08321  -0.087885  0  3.949313  0
C  C27  1  0.43627246  0.28391435  0.20876333  1  0  -0.062761  0  3.704036  0  0  -0.088927  0  3.96398  0  0  -0.091522  0  3.983327  0  0  -0.083081  -0.087165  0  3.950851  0
C  C28  1  0.61883474  0.79952397  0.11830025  1  0  -0.073835  0  3.697919  0  0  -0.103054  0  3.959524  0  0  -0.102726  0  3.97846  0  0  -0.082007  -0.103141  0  3.947015  0
C  C29  1  0.50051319  0.70052245  0.88182012  1  0  -0.072352  0  3.698265  0  0  -0.101859  0  3.959515  0  0  -0.101546  0  3.978435  0  0  -0.081342  -0.101932  0  3.947041  0
C  C30  1  0.38116490  0.20047635  0.88169888  1  0  -0.073809  0  3.697847  0  0  -0.103024  0  3.95945  0  0  -0.102696  0  3.978386  0  0  -0.082005  -0.103107  0  3.946928  0
C  C31  1  0.49948649  0.29947882  0.11817988  1  0  -0.072425  0  3.698274  0  0  -0.101928  0  3.959552  0  0  -0.101615  0  3.978472  0  0  -0.081358  -0.102005  0  3.947076  0
C  C32  1  0.45533150  0.73247394  0.10435513  1  0  0.061235  0  3.71963  0  0  0.077425  0  3.963258  0  0  0.075932  0  3.987282  0  0  -0.017258  0.078029  0  3.947172  0
C  C33  1  0.35105455  0.76769721  0.89580696  1  0  0.05922  0  3.722029  0  0  0.075953  0  3.964769  0  0  0.07451  0  3.988744  0  0  -0.018063  0.076531  0  3.948697  0
C  C34  1  0.54466678  0.26752639  0.89564455  1  0  0.061198  0  3.719697  0  0  0.077391  0  3.963319  0  0  0.075899  0  3.987343  0  0  -0.017254  0.077999  0  3.947226  0
C  C35  1  0.64894514  0.23230407  0.10419384  1  0  0.059249  0  3.722024  0  0  0.075921  0  3.96485  0  0  0.074479  0  3.988826  0  0  -0.018074  0.0765  0  3.948769  0
C  C36  1  0.44702989  0.65556818  0.18739255  1  0  -0.092398  0  3.67284  0  0  -0.13369  0  3.931079  0  0  -0.132438  0  3.949185  0  0  -0.083156  -0.134347  0  3.918993  0
C  C37  1  0.25977851  0.84457821  0.81274295  1  0  -0.093005  0  3.67613  0  0  -0.133991  0  3.934153  0  0  -0.132762  0  3.952154  0  0  -0.083134  -0.134659  0  3.922173  0
C  C38  1  0.55296976  0.34443215  0.81260819  1  0  -0.092419  0  3.672849  0  0  -0.133721  0  3.931104  0  0  -0.13247  0  3.949205  0  0  -0.083163  -0.134379  0  3.919018  0
C  C39  1  0.74022254  0.15542307  0.18725811  1  0  -0.092998  0  3.676038  0  0  -0.133945  0  3.934079  0  0  -0.132718  0  3.952082  0  0  -0.083085  -0.134604  0  3.92209  0
C  C40  1  0.58397771  0.55072667  0.36184105  1  0  0.671578  0  3.887014  0  0  0.617172  0  4.180671  0  0  0.65218  0  4.174764  0  0  0.221733  0.593098  0  4.184512  0
C  C41  1  0.22227425  0.94920222  0.63815239  1  0  0.672411  0  3.883884  0  0  0.618005  0  4.177396  0  0  0.652996  0  4.171495  0  0  0.222393  0.593945  0  4.181216  0
C  C42  1  0.41602194  0.44927366  0.63815969  1  0  0.671623  0  3.886958  0  0  0.617204  0  4.180636  0  0  0.652211  0  4.174729  0  0  0.221741  0.593137  0  4.184469  0
C  C43  1  0.77772543  0.05079905  0.36184762  1  0  0.672422  0  3.883845  0  0  0.617996  0  4.177379  0  0  0.652987  0  4.171481  0  0  0.222414  0.593936  0  4.181202  0
C  C44  1  0.93835217  0.69162210  0.38402805  1  0  0.708422  0  3.851549  0  0  0.651453  0  4.150418  0  0  0.688334  0  4.139754  0  0  0.233738  0.626147  0  4.157015  0
C  C45  1  0.55445318  0.80827238  0.61600233  1  0  0.708767  0  3.852058  0  0  0.652866  0  4.149306  0  0  0.689705  0  4.138751  0  0  0.234355  0.627571  0  4.155868  0
C  C46  1  0.06164876  0.30837633  0.61597119  1  0  0.708485  0  3.851595  0  0  0.651521  0  4.150462  0  0  0.688401  0  4.139799  0  0  0.233792  0.626226  0  4.157048  0
C  C47  1  0.44554783  0.19172794  0.38399706  1  0  0.708741  0  3.851968  0  0  0.652836  0  4.149228  0  0  0.689664  0  4.138692  0  0  0.234302  0.627545  0  4.15579  0
C  C48  1  0.29114877  0.75010354  0.00010419  1  0  -0.268506  0  3.640646  0  0  -0.277813  0  3.86825  0  0  -0.285031  0  3.881698  0  0  -0.010933  -0.272692  0  3.859373  0
C  C49  1  0.70885220  0.24989584  0.99989593  1  0  -0.26849  0  3.640578  0  0  -0.277776  0  3.868191  0  0  -0.284993  0  3.88164  0  0  -0.010925  -0.272651  0  3.859313  0
C  C50  1  0.18929250  0.86691701  0.03227289  1  0  0.775491  0  3.609454  0  0  0.698053  0  3.95945  0  0  0.728063  0  3.936236  0  0  0.302637  0.676745  0  3.97612  0
C  C51  1  0.15720434  0.63326052  0.96791588  1  0  0.776159  0  3.61025  0  0  0.699192  0  3.95943  0  0  0.729405  0  3.9358  0  0  0.303032  0.677843  0  3.976116  0
C  C52  1  0.81070707  0.13308142  0.96772611  1  0  0.775566  0  3.60944  0  0  0.698077  0  3.959499  0  0  0.728085  0  3.936289  0  0  0.302654  0.67678  0  3.976155  0
C  C53  1  0.84279526  0.36673885  0.03208239  1  0  0.776144  0  3.610192  0  0  0.699207  0  3.959323  0  0  0.729415  0  3.935699  0  0  0.302968  0.677834  0  3.97605  0
O  O54  1  0.42614092  0.52244161  0.36720315  1  0  -0.672931  0  2.088815  0  0  -0.60417  0  2.364825  0  0  -0.632068  0  2.347596  0  0  -0.324124  -0.584778  0  2.376254  0
O  O55  1  0.05906695  0.97751277  0.63279279  1  0  -0.673047  0  2.087097  0  0  -0.604689  0  2.363139  0  0  -0.632618  0  2.345966  0  0  -0.323933  -0.585278  0  2.37453  0
O  O56  1  0.57386009  0.47755872  0.63279704  1  0  -0.672977  0  2.088802  0  0  -0.604209  0  2.364809  0  0  -0.632111  0  2.34759  0  0  -0.324133  -0.584819  0  2.376242  0
O  O57  1  0.94093406  0.02248756  0.36720740  1  0  -0.673076  0  2.087094  0  0  -0.604713  0  2.363144  0  0  -0.632633  0  2.345952  0  0  -0.323965  -0.585302  0  2.374537  0
O  O58  1  0.73083464  0.50306330  0.42082788  1  0  -0.611923  0  2.042843  0  0  -0.536773  0  2.303204  0  0  -0.566251  0  2.288409  0  0  -0.295075  -0.516319  0  2.313119  0
O  O59  1  0.31006989  0.99672325  0.57901923  1  0  -0.612387  0  2.040303  0  0  -0.537175  0  2.30063  0  0  -0.566649  0  2.285831  0  0  -0.295547  -0.516718  0  2.310545  0
O  O60  1  0.26916501  0.49693704  0.57917285  1  0  -0.611931  0  2.042836  0  0  -0.53677  0  2.303191  0  0  -0.566247  0  2.288399  0  0  -0.295074  -0.516317  0  2.313099  0
O  O61  1  0.68992979  0.00327802  0.42098078  1  0  -0.612387  0  2.040307  0  0  -0.537175  0  2.300659  0  0  -0.566649  0  2.285861  0  0  -0.295552  -0.516719  0  2.310574  0
O  O62  1  0.06441709  0.63247619  0.35708943  1  0  -0.596996  0  2.015486  0  0  -0.524731  0  2.273273  0  0  -0.553974  0  2.255246  0  0  -0.298335  -0.504311  0  2.285158  0
O  O63  1  0.70738116  0.86746582  0.64296689  1  0  -0.596853  0  2.015454  0  0  -0.525403  0  2.273216  0  0  -0.5546  0  2.25514  0  0  -0.298476  -0.505  0  2.285122  0
O  O64  1  0.93558388  0.36752319  0.64290989  1  0  -0.597127  0  2.015618  0  0  -0.524875  0  2.273416  0  0  -0.554115  0  2.255385  0  0  -0.298402  -0.504456  0  2.285303  0
O  O65  1  0.29261851  0.13253545  0.35703232  1  0  -0.596852  0  2.01544  0  0  -0.525397  0  2.273198  0  0  -0.554593  0  2.255129  0  0  -0.298452  -0.504991  0  2.285102  0
O  O66  1  0.95896414  0.74535407  0.48218878  1  0  -0.653402  0  2.065361  0  0  -0.585291  0  2.345261  0  0  -0.615458  0  2.326421  0  0  -0.308449  -0.564096  0  2.3576  0
O  O67  1  0.47701321  0.75459063  0.51782243  1  0  -0.653066  0  2.065705  0  0  -0.585235  0  2.345197  0  0  -0.615379  0  2.326312  0  0  -0.308805  -0.564044  0  2.357616  0
O  O68  1  0.04103686  0.25464625  0.51781061  1  0  -0.65336  0  2.065329  0  0  -0.585254  0  2.345237  0  0  -0.615417  0  2.326389  0  0  -0.308443  -0.564061  0  2.357575  0
O  O69  1  0.52298644  0.24540970  0.48217910  1  0  -0.653092  0  2.065615  0  0  -0.58526  0  2.345099  0  0  -0.615402  0  2.326221  0  0  -0.308807  -0.564067  0  2.357519  0
F  F70  1  0.28790061  0.97522009  0.03742022  1  0  -0.249411  0  1.181295  0  0  -0.201067  0  1.343011  0  0  -0.212153  0  1.329735  0  0  -0.088432  -0.193083  0  1.352118  0
F  F71  1  0.25081213  0.52499444  0.96275631  1  0  -0.249312  0  1.181659  0  0  -0.201276  0  1.343426  0  0  -0.212409  0  1.330072  0  0  -0.088363  -0.193281  0  1.352529  0
F  F72  1  0.71209763  0.02477930  0.96258019  1  0  -0.249436  0  1.181281  0  0  -0.201076  0  1.343009  0  0  -0.212163  0  1.329733  0  0  -0.088442  -0.193098  0  1.352112  0
F  F73  1  0.74918884  0.47500494  0.03724381  1  0  -0.2493  0  1.181664  0  0  -0.201264  0  1.343418  0  0  -0.212396  0  1.330066  0  0  -0.088337  -0.193262  0  1.352528  0
F  F74  1  0.02068915  0.87777861  0.95694569  1  0  -0.243069  0  1.185632  0  0  -0.215809  0  1.3663  0  0  -0.225306  0  1.349552  0  0  -0.095122  -0.209038  0  1.377914  0
F  F75  1  0.06384248  0.62228106  0.04320866  1  0  -0.243066  0  1.184995  0  0  -0.215983  0  1.365511  0  0  -0.225514  0  1.34867  0  0  -0.095218  -0.209201  0  1.37712  0
F  F76  1  0.97930909  0.12222077  0.04305392  1  0  -0.243087  0  1.185675  0  0  -0.215809  0  1.366351  0  0  -0.225306  0  1.349604  0  0  -0.095121  -0.209043  0  1.377964  0
F  F77  1  0.93615709  0.37771737  0.95679034  1  0  -0.243055  0  1.185013  0  0  -0.215978  0  1.365517  0  0  -0.225508  0  1.348678  0  0  -0.095182  -0.20919  0  1.377136  0
F  F78  1  0.16483000  0.86287342  0.13453784  1  0  -0.238502  0  1.165079  0  0  -0.197203  0  1.322504  0  0  -0.206755  0  1.307178  0  0  -0.090269  -0.190377  0  1.333157  0
F  F79  1  0.03060980  0.63730986  0.86565057  1  0  -0.238847  0  1.164363  0  0  -0.197666  0  1.32162  0  0  -0.207268  0  1.306202  0  0  -0.090629  -0.190829  0  1.332281  0
F  F80  1  0.83516825  0.13712596  0.86546256  1  0  -0.238504  0  1.165099  0  0  -0.19719  0  1.322537  0  0  -0.206743  0  1.307211  0  0  -0.090252  -0.190372  0  1.333188  0
F  F81  1  0.96939250  0.36268857  0.13434893  1  0  -0.238864  0  1.164262  0  0  -0.197693  0  1.321502  0  0  -0.207293  0  1.306086  0  0  -0.090637  -0.190853  0  1.332175  0
