# generated using pymatgen
data_Zn4H4C24S6O19F4
_symmetry_space_group_name_H-M   'P 1'
_cell_length_a   19.60862711
_cell_length_b   19.68490064
_cell_length_c   33.23365321
_cell_angle_alpha   79.29273994
_cell_angle_beta   79.53027080
_cell_angle_gamma   64.08867472
_symmetry_Int_Tables_number   1
_chemical_formula_structural   Zn4H4C24S6O19F4
_chemical_formula_sum   'Zn16 H16 C96 S24 O76 F16'
_cell_volume   11263.93443401
_cell_formula_units_Z   4
loop_
 _symmetry_equiv_pos_site_id
 _symmetry_equiv_pos_as_xyz
  1  'x, y, z'
loop_
 _atom_site_type_symbol
 _atom_site_label
 _atom_site_symmetry_multiplicity
 _atom_site_fract_x
 _atom_site_fract_y
 _atom_site_fract_z
 _atom_site_occupancy
 _atom_site_pbe_bader_charge
 _atom_site_pbe_bader_spin_density
 _atom_site_pbe_cm5_charge
 _atom_site_pbe_ddec_charge
 _atom_site_pbe_ddec_spin_density
 _atom_site_pbe_ddec_sum_bond_order
 _atom_site_pbe_magmom
Zn  Zn0  1  0.05561924  0.39816547  0.47983008  1  1.322726  0  0.680829  0.976292  0  2.337923  0
Zn  Zn1  1  0.98633929  0.47977220  0.56118555  1  1.312697  0  0.685518  0.976532  0  2.346702  0
Zn  Zn2  1  0.05699270  0.56181580  0.48205990  1  1.32008  0  0.684259  0.975967  0  2.332058  0
Zn  Zn3  1  0.90295893  0.55691104  0.47837947  1  1.319354  0  0.683116  0.973642  0  2.334693  0
Zn  Zn4  1  0.69167332  0.34895870  0.27301000  1  1.322911  0  0.680786  0.975956  0  2.338936  0
Zn  Zn5  1  0.68642578  0.19150481  0.26732968  1  1.31829  0  0.682815  0.975726  0  2.344167  0
Zn  Zn6  1  0.77067655  0.26536671  0.19058192  1  1.317249  0  0.683888  0.974935  0  2.328586  0
Zn  Zn7  1  0.84871187  0.19500418  0.27029109  1  1.322818  0  0.685571  0.974402  0  2.33485  0
Zn  Zn8  1  0.26952752  0.76443766  0.68886332  1  1.316035  0  0.685467  0.975891  0  2.348446  0
Zn  Zn9  1  0.35238682  0.69565321  0.76993635  1  1.32309  0  0.683391  0.977041  0  2.339249  0
Zn  Zn10  1  0.19155877  0.84655321  0.77173300  1  1.315889  0  0.68151  0.973851  0  2.332348  0
Zn  Zn11  1  0.18900994  0.69221407  0.76806690  1  1.317638  0  0.683319  0.973242  0  2.337894  0
Zn  Zn12  1  0.55713549  0.06470466  0.98268602  1  1.317564  0  0.683185  0.97626  0  2.341203  0
Zn  Zn13  1  0.40073084  0.05743928  0.97634546  1  1.325161  0  0.685771  0.977265  0  2.341837  0
Zn  Zn14  1  0.55602127  0.90133205  0.98038178  1  1.318612  0  0.681586  0.974655  0  2.331749  0
Zn  Zn15  1  0.48331573  0.98052424  0.05937584  1  1.317134  0  0.683349  0.97354  0  2.334946  0
H  H16  1  0.74899076  0.45055687  0.34922983  1  0.153246  0  0.124733  0.142197  0  0.990861  0
H  H17  1  0.00107089  0.30068697  0.40019355  1  0.189754  0  0.124813  0.142577  0  0.989451  0
H  H18  1  0.20042926  0.70060591  0.60056825  1  0.150369  0  0.12595  0.147588  0  0.98247  0
H  H19  1  0.04933282  0.54931902  0.64987232  1  0.147966  0  0.126151  0.144789  0  0.986142  0
H  H20  1  0.64972972  0.14884625  0.04932294  1  0.137462  0  0.125186  0.143377  0  0.988098  0
H  H21  1  0.60124414  0.09957763  0.20083668  1  0.138444  0  0.125178  0.142949  0  0.989012  0
H  H22  1  0.30032380  0.99979915  0.90063146  1  0.161346  0  0.12601  0.144288  0  0.987587  0
H  H23  1  0.44972118  0.74930903  0.84953023  1  0.162521  0  0.125622  0.143648  0  0.988184  0
H  H24  1  0.84384482  0.57297221  0.39937547  1  0.646786  0  0.314882  0.379316  0  0.937626  0
H  H25  1  0.96493993  0.23608835  0.29159172  1  0.642839  0  0.314944  0.37864  0  0.938162  0
H  H26  1  0.06930367  0.68664180  0.51399264  1  0.639816  0  0.313151  0.377854  0  0.943089  0
H  H27  1  0.06285420  0.68013024  0.73645679  1  0.654341  0  0.31425  0.379942  0  0.937315  0
H  H28  1  0.79448754  0.17776112  0.12185076  1  0.64352  0  0.31283  0.376468  0  0.94489  0
H  H29  1  0.57166148  0.95569366  0.12857675  1  0.636629  0  0.314234  0.378181  0  0.940683  0
H  H30  1  0.17777475  0.90534207  0.85012305  1  0.655348  0  0.312253  0.376078  0  0.946128  0
H  H31  1  0.51443302  0.78568919  0.95825472  1  0.639457  0  0.312494  0.377615  0  0.943095  0
C  C32  1  0.06231086  0.31358361  0.56281639  1  1.562604  0  0.218854  0.631851  0  4.213702  0
C  C33  1  0.06440212  0.57344133  0.56896571  1  1.575481  0  0.241755  0.616801  0  4.123963  0
C  C34  1  0.18134413  0.43985865  0.43971381  1  1.595833  0  0.2206  0.634546  0  4.206584  0
C  C35  1  0.93709357  0.68632475  0.43782613  1  1.58051  0  0.217375  0.630911  0  4.214543  0
C  C36  1  0.93418819  0.43357091  0.42848707  1  1.582579  0  0.240156  0.614367  0  4.122989  0
C  C37  1  0.81947082  0.55980331  0.56060271  1  1.565909  0  0.220055  0.633538  0  4.207913  0
C  C38  1  0.56356283  0.31173681  0.31227647  1  1.584886  0  0.219615  0.632852  0  4.213283  0
C  C39  1  0.68639571  0.17591518  0.18112804  1  1.584935  0  0.241242  0.616021  0  4.121701  0
C  C40  1  0.69031509  0.43067144  0.18890978  1  1.559703  0  0.220355  0.633624  0  4.20418  0
C  C41  1  0.93727119  0.18746884  0.18868593  1  1.588966  0  0.21757  0.629871  0  4.21737  0
C  C42  1  0.82061475  0.32243908  0.31620659  1  1.550692  0  0.239612  0.615452  0  4.12444  0
C  C43  1  0.81049462  0.06869380  0.31044137  1  1.581783  0  0.220813  0.634208  0  4.206426  0
C  C44  1  0.43621016  0.68905778  0.68693590  1  1.58192  0  0.219158  0.631523  0  4.215626  0
C  C45  1  0.31637017  0.81671425  0.82104505  1  1.568896  0  0.240986  0.615576  0  4.123182  0
C  C46  1  0.18853812  0.93068749  0.68946364  1  1.571042  0  0.220638  0.634814  0  4.205223  0
C  C47  1  0.06346801  0.81029783  0.81253614  1  1.580034  0  0.217658  0.630143  0  4.213167  0
C  C48  1  0.17637601  0.68549812  0.68139807  1  1.578993  0  0.241688  0.615889  0  4.124152  0
C  C49  1  0.31250080  0.56896265  0.81013598  1  1.576209  0  0.220678  0.633624  0  4.207841  0
C  C50  1  0.43580393  0.18703515  0.93783764  1  1.585536  0  0.219517  0.633749  0  4.212448  0
C  C51  1  0.42933874  0.92819454  0.93341287  1  1.581705  0  0.242061  0.61656  0  4.121442  0
C  C52  1  0.68065406  0.94170658  0.93940511  1  1.564749  0  0.220627  0.633753  0  4.203415  0
C  C53  1  0.56238233  0.81418164  0.06247204  1  1.566112  0  0.217285  0.63088  0  4.212109  0
C  C54  1  0.57295822  0.06421836  0.06901868  1  1.572695  0  0.241488  0.616493  0  4.120365  0
C  C55  1  0.31806042  0.06060942  0.05992424  1  1.580017  0  0.220413  0.632153  0  4.208176  0
C  C56  1  0.90058900  0.40646979  0.40105349  1  -0.040613  0  0.004566  -0.020208  0  3.901959  0
C  C57  1  0.85127665  0.34660534  0.34656223  1  0.05497  0  0.004379  -0.02155  0  3.903005  0
C  C58  1  0.82814284  0.44789683  0.38692262  1  -0.163398  0  0.000147  -0.089453  0  3.896665  0
C  C59  1  0.92236053  0.30379785  0.36206177  1  -0.124542  0  0.00067  -0.088486  0  3.896117  0
C  C60  1  0.80492490  0.41787338  0.35999459  1  0.035206  0  -0.060561  -0.081293  0  3.907084  0
C  C61  1  0.94596166  0.33421950  0.38859628  1  -0.000882  0  -0.060981  -0.082412  0  3.906484  0
C  C62  1  0.09742266  0.60100683  0.59644211  1  -0.024464  0  0.003674  -0.02272  0  3.90403  0
C  C63  1  0.14891639  0.65232831  0.65399680  1  -0.026344  0  0.004021  -0.0193  0  3.901466  0
C  C64  1  0.14183662  0.64292959  0.58281084  1  -0.103701  0  0.00036  -0.088883  0  3.898479  0
C  C65  1  0.10700494  0.60791793  0.66764083  1  -0.156286  0  0.00071  -0.089662  0  3.896456  0
C  C66  1  0.16641479  0.66808606  0.61147589  1  0.040743  0  -0.059995  -0.084728  0  3.90503  0
C  C67  1  0.08179899  0.58338972  0.63896582  1  0.069119  0  -0.059306  -0.080911  0  3.904704  0
C  C68  1  0.30194947  0.45406641  0.40172941  1  0.558042  0  0.110481  0.263502  0  4.062358  0
C  C69  1  0.44324836  0.29771042  0.35066309  1  0.597822  0  0.107803  0.261259  0  4.065329  0
C  C70  1  0.25587508  0.41519220  0.41497815  1  -0.088843  0  -0.03409  -0.248159  0  3.965708  0
C  C71  1  0.48918842  0.33664143  0.33717912  1  -0.094712  0  -0.035053  -0.251217  0  3.970754  0
C  C72  1  0.37473267  0.34006025  0.37412012  1  -0.13309  0  -0.027333  -0.11878  0  4.117306  0
C  C73  1  0.37036003  0.41174044  0.37814411  1  -0.106791  0  -0.025705  -0.117872  0  4.113045  0
C  C74  1  0.72793826  0.57650855  0.62766762  1  0.586709  0  0.107292  0.260353  0  4.068469  0
C  C75  1  0.52753239  0.67158418  0.61957294  1  0.615064  0  0.10844  0.262041  0  4.066406  0
C  C76  1  0.74471988  0.58429321  0.58507067  1  -0.069625  0  -0.033789  -0.251733  0  3.970512  0
C  C77  1  0.51073991  0.66362012  0.66216756  1  -0.130549  0  -0.034195  -0.248863  0  3.968714  0
C  C78  1  0.60660876  0.63956737  0.60659942  1  -0.124363  0  -0.026252  -0.121931  0  4.11589  0
C  C79  1  0.64890799  0.60773781  0.64056244  1  -0.105548  0  -0.027221  -0.118457  0  4.118761  0
C  C80  1  0.07884301  0.22207716  0.63018472  1  0.613769  0  0.108627  0.261992  0  4.065582  0
C  C81  1  0.17299852  0.02239328  0.62234184  1  0.586767  0  0.107426  0.260167  0  4.067881  0
C  C82  1  0.08732167  0.23908828  0.58760624  1  -0.126716  0  -0.03439  -0.248534  0  3.96966  0
C  C83  1  0.16463116  0.00535539  0.66493000  1  -0.074228  0  -0.03472  -0.252265  0  3.971111  0
C  C84  1  0.14236348  0.10126381  0.60935729  1  -0.107547  0  -0.027076  -0.118461  0  4.116986  0
C  C85  1  0.11035359  0.14316724  0.64323210  1  -0.14881  0  -0.026375  -0.121563  0  4.115115  0
C  C86  1  0.84453049  0.80293285  0.39566807  1  0.580089  0  0.10726  0.260561  0  4.069362  0
C  C87  1  0.90350699  0.95204815  0.35253160  1  0.56363  0  0.110847  0.264936  0  4.062276  0
C  C88  1  0.91248391  0.76071553  0.41295755  1  -0.074403  0  -0.035255  -0.252796  0  3.97519  0
C  C89  1  0.83558316  0.99410280  0.33515454  1  -0.084122  0  -0.033538  -0.249103  0  3.966126  0
C  C90  1  0.90746196  0.88203524  0.37454350  1  -0.099266  0  -0.025631  -0.119842  0  4.112771  0
C  C91  1  0.84078529  0.87262379  0.37340410  1  -0.147658  0  -0.027033  -0.118853  0  4.119227  0
C  C92  1  0.65618066  0.15118045  0.15078768  1  0.014775  0  0.003913  -0.022817  0  3.904345  0
C  C93  1  0.59794571  0.09411170  0.09937234  1  0.077787  0  0.004285  -0.021014  0  3.902007  0
C  C94  1  0.66829008  0.16600877  0.10750541  1  -0.145739  0  0.000757  -0.087515  0  3.896979  0
C  C95  1  0.58330468  0.08179598  0.14265188  1  -0.203515  0  0.000258  -0.088766  0  3.895518  0
C  C96  1  0.63970474  0.13718522  0.08266968  1  0.03973  0  -0.060201  -0.082229  0  3.908204  0
C  C97  1  0.61272895  0.10977732  0.16749217  1  0.033648  0  -0.060598  -0.081572  0  3.908686  0
C  C98  1  0.67403457  0.52242802  0.12146261  1  0.564312  0  0.110499  0.265185  0  4.061064  0
C  C99  1  0.57854957  0.72216800  0.12963680  1  0.630677  0  0.108314  0.262004  0  4.065658  0
C  C100  1  0.66546914  0.50517978  0.16402993  1  -0.041452  0  -0.032916  -0.247979  0  3.962655  0
C  C101  1  0.58747629  0.73952360  0.08707743  1  -0.132992  0  -0.036223  -0.254997  0  3.975418  0
C  C102  1  0.61020097  0.64321751  0.14251136  1  -0.135051  0  -0.026973  -0.118918  0  4.117716  0
C  C103  1  0.64278213  0.60147222  0.10860037  1  -0.129912  0  -0.026012  -0.119397  0  4.112066  0
C  C104  1  0.08398778  0.12593839  0.17665882  1  0.626902  0  0.108116  0.26221  0  4.064525  0
C  C105  1  0.17151796  0.12300874  0.07234815  1  0.536205  0  0.107611  0.260219  0  4.068165  0
C  C106  1  0.01156994  0.16309451  0.16378985  1  -0.161931  0  -0.036062  -0.254001  0  3.976865  0
C  C107  1  0.24398026  0.08606293  0.08514001  1  -0.077415  0  -0.033781  -0.250692  0  3.967365  0
C  C108  1  0.11281019  0.13818812  0.10548165  1  -0.124282  0  -0.027281  -0.120367  0  4.121197  0
C  C109  1  0.14287768  0.11145441  0.14355263  1  -0.153967  0  -0.026227  -0.121991  0  4.115858  0
C  C110  1  0.34377458  0.84971744  0.84861946  1  -0.050779  0  0.004622  -0.020268  0  3.901179  0
C  C111  1  0.40468063  0.89778107  0.90317026  1  -0.051719  0  0.003794  -0.020018  0  3.899893  0
C  C112  1  0.30236608  0.92163686  0.86284293  1  -0.116444  0  0.001  -0.088424  0  3.895741  0
C  C113  1  0.44728147  0.82706961  0.88773705  1  -0.106317  0  0.000299  -0.088948  0  3.894624  0
C  C114  1  0.33294200  0.94426498  0.88978840  1  0.04831  0  -0.059969  -0.082116  0  3.90582  0
C  C115  1  0.41640618  0.80411168  0.86110438  1  0.081069  0  -0.059863  -0.081629  0  3.905681  0
C  C116  1  0.40460366  0.45161416  0.85210416  1  0.593504  0  0.10702  0.260639  0  4.068713  0
C  C117  1  0.34348122  0.30429351  0.89574587  1  0.561385  0  0.108789  0.262943  0  4.065357  0
C  C118  1  0.33679802  0.49429793  0.83473769  1  -0.095378  0  -0.03423  -0.252717  0  3.971337  0
C  C119  1  0.41142142  0.26145071  0.91296804  1  -0.108585  0  -0.034759  -0.250565  0  3.971082  0
C  C120  1  0.34050229  0.37361815  0.87326073  1  -0.103601  0  -0.02678  -0.123494  0  4.118811  0
C  C121  1  0.40778545  0.38204996  0.87425414  1  -0.137131  0  -0.027063  -0.119454  0  4.121801  0
C  C122  1  0.94119162  0.79831829  0.84941791  1  0.530566  0  0.108539  0.263167  0  4.064454  0
C  C123  1  0.80267196  0.95357070  0.90219103  1  0.583052  0  0.106672  0.259872  0  4.067782  0
C  C124  1  0.98887231  0.83565182  0.83718501  1  -0.074743  0  -0.035283  -0.25321  0  3.974129  0
C  C125  1  0.75490102  0.91636772  0.91433880  1  -0.081784  0  -0.033298  -0.250674  0  3.968401  0
C  C126  1  0.87060915  0.91116483  0.87834950  1  -0.135469  0  -0.026895  -0.120105  0  4.118212  0
C  C127  1  0.87287293  0.84097562  0.87296994  1  -0.077043  0  -0.026883  -0.122482  0  4.115957  0
S  S128  1  0.29627429  0.32529670  0.39848205  1  0.325778  0  0.10591  0.188195  0  2.742848  0
S  S129  1  0.44850474  0.42675824  0.35339970  1  0.326125  0  0.110249  0.194466  0  2.737262  0
S  S130  1  0.66274868  0.63020569  0.55992953  1  0.323066  0  0.119002  0.211215  0  2.732745  0
S  S131  1  0.59276288  0.61621722  0.68721389  1  0.313389  0  0.108077  0.191429  0  2.738947  0
S  S132  1  0.13452519  0.15757110  0.56267004  1  0.328201  0  0.107468  0.190715  0  2.739747  0
S  S133  1  0.11885852  0.08686126  0.68994442  1  0.34554  0  0.118608  0.21036  0  2.734245  0
S  S134  1  0.97345048  0.80657134  0.40201363  1  0.337714  0  0.112983  0.201612  0  2.73725  0
S  S135  1  0.77509554  0.94776561  0.34563571  1  0.326098  0  0.107179  0.190411  0  2.741294  0
S  S136  1  0.61843753  0.58658319  0.18911265  1  0.332356  0  0.10686  0.189717  0  2.740844  0
S  S137  1  0.63528067  0.65811662  0.06201197  1  0.323056  0  0.111946  0.200215  0  2.738494  0
S  S138  1  0.01469429  0.18095696  0.11027568  1  0.372884  0  0.10987  0.197805  0  2.743078  0
S  S139  1  0.24106146  0.06966281  0.13866140  1  0.390616  0  0.120288  0.212747  0  2.731883  0
S  S140  1  0.27541732  0.44897395  0.84527322  1  0.339213  0  0.120188  0.213846  0  2.735131  0
S  S141  1  0.47332995  0.30620551  0.90175407  1  0.336429  0  0.107573  0.191999  0  2.741432  0
S  S142  1  0.95008677  0.92471407  0.85459836  1  0.320093  0  0.10955  0.197562  0  2.739889  0
S  S143  1  0.79288297  0.82797569  0.89625358  1  0.324644  0  0.119596  0.212017  0  2.735001  0
S  S144  1  0.75743258  0.53685119  0.40371987  1  3.091895  0  0.534293  1.145854  0  6.04941  0
S  S145  1  0.98492024  0.20695549  0.35316061  1  3.110203  0  0.534314  1.143839  0  6.048765  0
S  S146  1  0.17617787  0.66245612  0.52968529  1  3.115552  0  0.535391  1.146607  0  6.04439  0
S  S147  1  0.08737109  0.57367928  0.72079310  1  3.12516  0  0.535374  1.14755  0  6.048083  0
S  S148  1  0.71334958  0.22681537  0.08039787  1  3.136857  0  0.534239  1.145501  0  6.04992  0
S  S149  1  0.52268066  0.03648375  0.16979135  1  3.140393  0  0.534558  1.145551  0  6.048034  0
S  S150  1  0.21265764  0.99229283  0.84622735  1  3.086544  0  0.534301  1.145857  0  6.048363  0
S  S151  1  0.54413491  0.76380517  0.89717560  1  3.102228  0  0.533804  1.144837  0  6.047384  0
O  O152  1  0.00106703  0.49784911  0.50056107  1  -1.221307  0  -0.571877  -1.037685  0  2.529713  0
O  O153  1  0.08044277  0.31290653  0.52376593  1  -1.151515  0  -0.318761  -0.545929  0  2.32233  0
O  O154  1  0.04713577  0.51840474  0.58448686  1  -1.148876  0  -0.29015  -0.504882  0  2.307836  0
O  O155  1  0.15562737  0.50402475  0.45337876  1  -1.153146  0  -0.308332  -0.524862  0  2.339873  0
O  O156  1  0.02500339  0.37193231  0.58196140  1  -1.158004  0  -0.311267  -0.53243  0  2.327406  0
O  O157  1  0.14911999  0.39391197  0.44519478  1  -1.175781  0  -0.320715  -0.55155  0  2.325653  0
O  O158  1  0.05351839  0.60769028  0.53223014  1  -1.185071  0  -0.304676  -0.567269  0  2.405242  0
O  O159  1  0.00495650  0.65821665  0.44812345  1  -1.170477  0  -0.318546  -0.545502  0  2.320649  0
O  O160  1  0.90891487  0.50544258  0.42990011  1  -1.176821  0  -0.30482  -0.566125  0  2.400967  0
O  O161  1  0.88971766  0.65590590  0.44718234  1  -1.165655  0  -0.314611  -0.537728  0  2.324301  0
O  O162  1  0.98761990  0.38296161  0.44798050  1  -1.158542  0  -0.291008  -0.506717  0  2.306034  0
O  O163  1  0.87802952  0.53130496  0.58017060  1  -1.158556  0  -0.31416  -0.539716  0  2.330326  0
O  O164  1  0.81853008  0.57006779  0.52137485  1  -1.143177  0  -0.314315  -0.534682  0  2.335647  0
O  O165  1  0.74788547  0.25087786  0.25062678  1  -1.224887  0  -0.572178  -1.037498  0  2.530081  0
O  O166  1  0.59246875  0.36060894  0.30289866  1  -1.167466  0  -0.318692  -0.544976  0  2.322825  0
O  O167  1  0.65243630  0.17875914  0.21745186  1  -1.156397  0  -0.290577  -0.505837  0  2.306316  0
O  O168  1  0.72103966  0.37211978  0.16962124  1  -1.155457  0  -0.307564  -0.523187  0  2.333945  0
O  O169  1  0.59279383  0.24440155  0.30221799  1  -1.156748  0  -0.312928  -0.534586  0  2.326748  0
O  O170  1  0.67847843  0.43195972  0.22807288  1  -1.142608  0  -0.319949  -0.551029  0  2.327217  0
O  O171  1  0.74525433  0.19056005  0.16930202  1  -1.183645  0  -0.303681  -0.564585  0  2.402497  0
O  O172  1  0.87893802  0.22447213  0.16870604  1  -1.174824  0  -0.319875  -0.546982  0  2.322458  0
O  O173  1  0.86774205  0.27270345  0.29273629  1  -1.184985  0  -0.304527  -0.5669  0  2.404905  0
O  O174  1  0.93638216  0.17012026  0.22768556  1  -1.163119  0  -0.313392  -0.53499  0  2.324925  0
O  O175  1  0.74909818  0.35481684  0.31487917  1  -1.137488  0  -0.291356  -0.507468  0  2.304441  0
O  O176  1  0.74651562  0.09218118  0.29600163  1  -1.168807  0  -0.320053  -0.550084  0  2.324511  0
O  O177  1  0.85398429  0.10318206  0.30561342  1  -1.148115  0  -0.30742  -0.523651  0  2.34102  0
O  O178  1  0.25173478  0.74941920  0.74946777  1  -1.220583  0  -0.572378  -1.037686  0  2.531185  0
O  O179  1  0.37741380  0.72651351  0.66779995  1  -1.161358  0  -0.311253  -0.531501  0  2.326519  0
O  O180  1  0.36708494  0.76417075  0.80133448  1  -1.161284  0  -0.290649  -0.50645  0  2.307147  0
O  O181  1  0.17717919  0.93130936  0.72870317  1  -1.148126  0  -0.315454  -0.537  0  2.333693  0
O  O182  1  0.43733755  0.67103605  0.72602403  1  -1.144299  0  -0.318075  -0.545361  0  2.324762  0
O  O183  1  0.21767186  0.87254238  0.66991627  1  -1.158264  0  -0.314127  -0.539324  0  2.330358  0
O  O184  1  0.24420718  0.84148251  0.81978377  1  -1.176882  0  -0.304096  -0.564637  0  2.402547  0
O  O185  1  0.09308082  0.85865954  0.80353650  1  -1.158406  0  -0.320718  -0.547795  0  2.320292  0
O  O186  1  0.14215139  0.69610713  0.71805602  1  -1.1863  0  -0.30511  -0.567696  0  2.404013  0
O  O187  1  0.09270100  0.74318125  0.80213878  1  -1.158979  0  -0.313358  -0.534762  0  2.323194  0
O  O188  1  0.23123346  0.70321163  0.66587100  1  -1.153233  0  -0.290247  -0.505611  0  2.310632  0
O  O189  1  0.35680847  0.60261515  0.80490427  1  -1.149622  0  -0.314126  -0.539216  0  2.32588  0
O  O190  1  0.24781930  0.59341254  0.79632792  1  -1.153208  0  -0.314538  -0.534372  0  2.339267  0
O  O191  1  0.49912443  0.00188643  0.99930465  1  -1.223425  0  -0.572414  -1.038097  0  2.531317  0
O  O192  1  0.50361421  0.15908682  0.94819961  1  -1.168729  0  -0.318903  -0.54647  0  2.326301  0
O  O193  1  0.39688191  0.99944747  0.93448022  1  -1.16207  0  -0.289868  -0.505288  0  2.308331  0
O  O194  1  0.64741947  0.89668231  0.94452918  1  -1.144436  0  -0.314777  -0.536282  0  2.334279  0
O  O195  1  0.38831080  0.15680040  0.94694123  1  -1.15249  0  -0.311567  -0.533375  0  2.323677  0
O  O196  1  0.65626762  0.00495512  0.95388993  1  -1.156545  0  -0.313983  -0.538529  0  2.323767  0
O  O197  1  0.47949617  0.88118538  0.95700265  1  -1.188686  0  -0.304676  -0.566509  0  2.403089  0
O  O198  1  0.58188691  0.81403383  0.02346534  1  -1.159532  0  -0.319851  -0.547207  0  2.320593  0
O  O199  1  0.55842552  0.00545521  0.08091139  1  -1.18208  0  -0.304339  -0.565409  0  2.401086  0
O  O200  1  0.52350353  0.87257827  0.08147824  1  -1.162477  0  -0.31428  -0.536573  0  2.321691  0
O  O201  1  0.56986694  0.09828628  0.03264877  1  -1.156845  0  -0.291388  -0.507303  0  2.307043  0
O  O202  1  0.31785431  0.06904716  0.02092767  1  -1.159284  0  -0.313491  -0.538194  0  2.327253  0
O  O203  1  0.37653220  0.03153126  0.07995523  1  -1.160304  0  -0.314063  -0.53386  0  2.334701  0
O  O204  1  0.79665824  0.59330429  0.38506407  1  -1.22258  0  -0.362527  -0.519777  0  2.158768  0
O  O205  1  0.69223707  0.56083487  0.38211985  1  -1.278872  0  -0.305977  -0.502467  0  2.102421  0
O  O206  1  0.75033200  0.52759095  0.44806377  1  -1.24904  0  -0.318506  -0.533884  0  2.129525  0
O  O207  1  0.01272200  0.21644652  0.30525604  1  -1.212506  0  -0.36157  -0.517679  0  2.159893  0
O  O208  1  0.05092344  0.18348393  0.37400546  1  -1.284317  0  -0.305129  -0.501356  0  2.101212  0
O  O209  1  0.93889516  0.16452414  0.36129611  1  -1.264399  0  -0.316111  -0.529305  0  2.127652  0
O  O210  1  0.09903492  0.71831346  0.51066551  1  -1.211222  0  -0.365158  -0.525159  0  2.159093  0
O  O211  1  0.21829528  0.70687027  0.52834924  1  -1.268515  0  -0.303956  -0.500148  0  2.10082  0
O  O212  1  0.21012119  0.59166065  0.51221726  1  -1.28727  0  -0.318106  -0.531278  0  2.124438  0
O  O213  1  0.03123311  0.65044530  0.73948794  1  -1.224032  0  -0.362194  -0.520577  0  2.158195  0
O  O214  1  0.04296566  0.53158655  0.72201610  1  -1.268957  0  -0.304277  -0.500181  0  2.100768  0
O  O215  1  0.15833148  0.53981289  0.73862038  1  -1.290601  0  -0.320306  -0.536756  0  2.128705  0
O  O216  1  0.79886075  0.18002185  0.09106768  1  -1.215678  0  -0.364885  -0.523999  0  2.161166  0
O  O217  1  0.71588361  0.22674988  0.03704800  1  -1.281616  0  -0.305205  -0.501124  0  2.10146  0
O  O218  1  0.67779190  0.29671774  0.09878332  1  -1.286571  0  -0.317223  -0.530495  0  2.125146  0
O  O219  1  0.56982729  0.95139803  0.15931647  1  -1.204506  0  -0.362209  -0.519057  0  2.160067  0
O  O220  1  0.52309426  0.03379174  0.21312273  1  -1.28791  0  -0.305381  -0.501067  0  2.100803  0
O  O221  1  0.45227400  0.07169620  0.15139788  1  -1.291953  0  -0.320086  -0.535976  0  2.127537  0
O  O222  1  0.15661491  0.95232946  0.86446025  1  -1.231571  0  -0.365012  -0.524299  0  2.162067  0
O  O223  1  0.18839745  0.05656291  0.86821046  1  -1.278919  0  -0.303606  -0.499049  0  2.102143  0
O  O224  1  0.22144731  0.00054943  0.80186583  1  -1.247886  0  -0.319697  -0.534756  0  2.127606  0
O  O225  1  0.53412498  0.73736281  0.94527220  1  -1.205977  0  -0.364675  -0.52461  0  2.158739  0
O  O226  1  0.56679961  0.69763900  0.87703072  1  -1.282544  0  -0.303934  -0.499333  0  2.101506  0
O  O227  1  0.58784209  0.80863058  0.88870332  1  -1.271633  0  -0.320358  -0.535551  0  2.126255  0
F  F228  1  0.28445535  0.52438840  0.40964114  1  -0.608137  0  -0.073439  -0.086953  0  1.357085  0
F  F229  1  0.46055971  0.22740244  0.34259121  1  -0.613101  0  -0.079889  -0.095906  0  1.348996  0
F  F230  1  0.78017621  0.54289398  0.65441608  1  -0.630115  0  -0.079747  -0.09586  0  1.349645  0
F  F231  1  0.47525914  0.70573541  0.59289061  1  -0.618901  0  -0.078086  -0.094404  0  1.350891  0
F  F232  1  0.04467190  0.27395819  0.65677857  1  -0.609618  0  -0.077656  -0.093934  0  1.351344  0
F  F233  1  0.20665325  0.97053208  0.59568697  1  -0.626166  0  -0.079737  -0.095867  0  1.351516  0
F  F234  1  0.78778857  0.78090171  0.39913966  1  -0.613125  0  -0.077745  -0.09256  0  1.355264  0
F  F235  1  0.96024599  0.97390980  0.34900702  1  -0.608919  0  -0.072592  -0.086103  0  1.359142  0
F  F236  1  0.70847501  0.47082640  0.09479841  1  -0.612779  0  -0.073385  -0.087468  0  1.3549  0
F  F237  1  0.54412628  0.77387600  0.15632649  1  -0.615641  0  -0.07812  -0.092749  0  1.35395  0
F  F238  1  0.09791050  0.10564337  0.21612020  1  -0.613442  0  -0.075657  -0.090258  0  1.355223  0
F  F239  1  0.15718263  0.14302688  0.03291887  1  -0.613041  0  -0.079147  -0.095135  0  1.34977  0
F  F240  1  0.46202858  0.47277054  0.84851675  1  -0.615041  0  -0.080905  -0.097448  0  1.349749  0
F  F241  1  0.28597149  0.28326561  0.89956856  1  -0.612557  0  -0.07816  -0.094233  0  1.34982  0
F  F242  1  0.95693806  0.72926405  0.84006340  1  -0.610409  0  -0.076661  -0.091859  0  1.35531  0
F  F243  1  0.78721986  0.02257681  0.91157853  1  -0.616031  0  -0.080081  -0.096482  0  1.349358  0
