# generated using pymatgen
data_ZnH23C15(NO2)2
_symmetry_space_group_name_H-M   'P 1'
_cell_length_a   8.58013156
_cell_length_b   8.86998582
_cell_length_c   10.87635257
_cell_angle_alpha   93.34440882
_cell_angle_beta   92.58277245
_cell_angle_gamma   105.67666985
_symmetry_Int_Tables_number   1
_chemical_formula_structural   ZnH23C15(NO2)2
_chemical_formula_sum   'Zn2 H46 C30 N4 O8'
_cell_volume   794.00896065
_cell_formula_units_Z   2
loop_
 _symmetry_equiv_pos_site_id
 _symmetry_equiv_pos_as_xyz
  1  'x, y, z'
loop_
 _atom_site_type_symbol
 _atom_site_label
 _atom_site_symmetry_multiplicity
 _atom_site_fract_x
 _atom_site_fract_y
 _atom_site_fract_z
 _atom_site_occupancy
 _atom_site_hle17_bader_spin_density
 _atom_site_hle17_ddec_charge
 _atom_site_hle17_ddec_spin_density
 _atom_site_hle17_ddec_sum_bond_order
 _atom_site_hle17_magmom
 _atom_site_hse06_10hf_bader_spin_density
 _atom_site_hse06_10hf_ddec_charge
 _atom_site_hse06_10hf_ddec_spin_density
 _atom_site_hse06_10hf_ddec_sum_bond_order
 _atom_site_hse06_10hf_magmom
 _atom_site_hse06_bader_spin_density
 _atom_site_hse06_ddec_charge
 _atom_site_hse06_ddec_spin_density
 _atom_site_hse06_ddec_sum_bond_order
 _atom_site_hse06_magmom
 _atom_site_pbe_bader_spin_density
 _atom_site_pbe_cm5_charge
 _atom_site_pbe_ddec_charge
 _atom_site_pbe_ddec_spin_density
 _atom_site_pbe_ddec_sum_bond_order
 _atom_site_pbe_magmom
Zn  Zn0  1  0.99169439  0.95095301  0.62522359  1  0  1.03859  0  1.886762  0  0  0.868695  0  2.360181  0  0  0.921196  0  2.294601  0  0  0.667374  0.830845  0  2.406194  0
Zn  Zn1  1  0.00830255  0.04905042  0.37477669  1  0  1.038613  0  1.886909  0  0  0.868652  0  2.360357  0  0  0.921146  0  2.294776  0  0  0.667364  0.830806  0  2.406366  0
H  H2  1  0.12309607  0.70254125  0.76229167  1  0  0.079441  0  0.928976  0  0  0.096986  0  0.987248  0  0  0.097672  0  0.986763  0  0  0.109299  0.096201  0  0.987803  0
H  H3  1  0.87691120  0.29745748  0.23771247  1  0  0.079469  0  0.928954  0  0  0.096971  0  0.987264  0  0  0.097656  0  0.986781  0  0  0.109265  0.096185  0  0.98782  0
H  H4  1  0.22307331  0.87694477  0.85268287  1  0  0.057524  0  0.92074  0  0  0.075412  0  0.980658  0  0  0.075809  0  0.980125  0  0  0.100049  0.074876  0  0.981465  0
H  H5  1  0.77693162  0.12305390  0.14731290  1  0  0.057509  0  0.920752  0  0  0.075406  0  0.980648  0  0  0.075806  0  0.980109  0  0  0.100026  0.07487  0  0.981455  0
H  H6  1  0.13023377  0.73050385  0.02962113  1  0  0.064  0  0.952439  0  0  0.08057  0  1.017655  0  0  0.081008  0  1.017424  0  0  0.103506  0.080059  0  1.017854  0
H  H7  1  0.86977717  0.26950778  0.97038093  1  0  0.064036  0  0.952409  0  0  0.080551  0  1.017699  0  0  0.08099  0  1.017467  0  0  0.103517  0.080038  0  1.017903  0
H  H8  1  0.98499963  0.58334785  0.93429073  1  0  0.054784  0  0.944802  0  0  0.069691  0  1.012799  0  0  0.069877  0  1.013186  0  0  0.098734  0.069444  0  1.012551  0
H  H9  1  0.01501296  0.41665321  0.06571279  1  0  0.054716  0  0.944826  0  0  0.069621  0  1.01285  0  0  0.069804  0  1.013242  0  0  0.098686  0.069375  0  1.012602  0
H  H10  1  0.77498693  0.03072122  0.80622691  1  0  0.151529  0  0.958759  0  0  0.169078  0  1.020468  0  0  0.17208  0  1.019186  0  0  0.108535  0.166779  0  1.021639  0
H  H11  1  0.22501332  0.96926925  0.19376926  1  0  0.151616  0  0.958815  0  0  0.169138  0  1.020556  0  0  0.172144  0  1.019266  0  0  0.108536  0.16684  0  1.02173  0
H  H12  1  0.70968841  0.97306995  0.95553322  1  0  0.116687  0  0.957328  0  0  0.135186  0  1.021822  0  0  0.137496  0  1.020672  0  0  0.097009  0.133888  0  1.021646  0
H  H13  1  0.29030885  0.02691817  0.04446274  1  0  0.116685  0  0.957254  0  0  0.135135  0  1.021803  0  0  0.137443  0  1.020659  0  0  0.096973  0.13384  0  1.021627  0
H  H14  1  0.63651196  0.84559833  0.82109032  1  0  0.139937  0  0.921668  0  0  0.163371  0  0.976439  0  0  0.166012  0  0.975111  0  0  0.109178  0.161014  0  0.978284  0
H  H15  1  0.36349296  0.15439211  0.17890327  1  0  0.139921  0  0.921793  0  0  0.16338  0  0.976535  0  0  0.16602  0  0.975214  0  0  0.109136  0.161034  0  0.978368  0
H  H16  1  0.76814512  0.85856874  0.10759699  1  0  0.068579  0  0.949379  0  0  0.083421  0  1.017809  0  0  0.083876  0  1.017466  0  0  0.107035  0.083028  0  1.018038  0
H  H17  1  0.23186114  0.14142644  0.89240236  1  0  0.068562  0  0.949436  0  0  0.08347  0  1.01777  0  0  0.083982  0  1.017366  0  0  0.107035  0.083076  0  1.018  0
H  H18  1  0.91907946  0.78073961  0.16973179  1  0  0.088857  0  0.955418  0  0  0.100433  0  1.023209  0  0  0.101876  0  1.022449  0  0  0.108495  0.099175  0  1.023837  0
H  H19  1  0.08092429  0.21925085  0.83026543  1  0  0.088902  0  0.955434  0  0  0.100454  0  1.023242  0  0  0.101904  0  1.022463  0  0  0.108499  0.099192  0  1.023869  0
H  H20  1  0.65962289  0.59575248  0.18740080  1  0  0.07858  0  0.930424  0  0  0.09941  0  0.987709  0  0  0.099664  0  0.98882  0  0  0.096837  0.099098  0  0.986862  0
H  H21  1  0.34037471  0.40424502  0.81259373  1  0  0.0786  0  0.930451  0  0  0.09944  0  0.987749  0  0  0.099704  0  0.988847  0  0  0.096854  0.099128  0  0.986904  0
H  H22  1  0.76394720  0.51052407  0.07992443  1  0  0.0581  0  0.944795  0  0  0.080074  0  1.003611  0  0  0.080181  0  1.004906  0  0  0.087966  0.080115  0  1.002408  0
H  H23  1  0.23604789  0.48946874  0.92006981  1  0  0.058117  0  0.944823  0  0  0.080079  0  1.003674  0  0  0.080182  0  1.004979  0  0  0.08796  0.08012  0  1.002472  0
H  H24  1  0.50038664  0.67329907  0.01465080  1  0  0.053206  0  0.934248  0  0  0.076258  0  0.990319  0  0  0.076444  0  0.99141  0  0  0.086195  0.076124  0  0.989453  0
H  H25  1  0.49961179  0.32669726  0.98534371  1  0  0.053229  0  0.934186  0  0  0.076277  0  0.990245  0  0  0.076465  0  0.991337  0  0  0.086199  0.076142  0  0.989379  0
H  H26  1  0.60688789  0.59223567  0.90554478  1  0  0.053259  0  0.953357  0  0  0.072902  0  1.015382  0  0  0.073389  0  1.015976  0  0  0.086259  0.072514  0  1.014869  0
H  H27  1  0.39310888  0.40776299  0.09444701  1  0  0.053249  0  0.953208  0  0  0.072886  0  1.015229  0  0  0.073375  0  1.015822  0  0  0.086221  0.072499  0  1.014717  0
H  H28  1  0.44727108  0.38431892  0.61568158  1  0  0.063608  0  0.928366  0  0  0.079198  0  0.987874  0  0  0.080194  0  0.988421  0  0  0.099875  0.079603  0  0.986489  0
H  H29  1  0.55273054  0.61569278  0.38432749  1  0  0.063632  0  0.928308  0  0  0.079249  0  0.987785  0  0  0.080265  0  0.988305  0  0  0.099906  0.07965  0  0.986406  0
H  H30  1  0.59546827  0.19425151  0.43428482  1  0  0.071598  0  0.925567  0  0  0.092328  0  0.982259  0  0  0.093174  0  0.982905  0  0  0.08866  0.091944  0  0.981074  0
H  H31  1  0.40452650  0.80574842  0.56571890  1  0  0.071659  0  0.925584  0  0  0.092369  0  0.982303  0  0  0.093215  0  0.982948  0  0  0.088691  0.092005  0  0.981094  0
H  H32  1  0.50209209  0.34178008  0.39757073  1  0  0.062393  0  0.95324  0  0  0.076893  0  1.022329  0  0  0.079055  0  1.020512  0  0  0.083785  0.075578  0  1.023075  0
H  H33  1  0.49790019  0.65822337  0.60243121  1  0  0.062451  0  0.953249  0  0  0.076955  0  1.022332  0  0  0.079118  0  1.020514  0  0  0.083814  0.075638  0  1.023081  0
H  H34  1  0.71312611  0.54229911  0.53067122  1  0  0.073791  0  0.952119  0  0  0.089847  0  1.018491  0  0  0.090591  0  1.019467  0  0  0.088851  0.089441  0  1.017405  0
H  H35  1  0.28687166  0.45770315  0.46933088  1  0  0.073838  0  0.95213  0  0  0.089841  0  1.018522  0  0  0.090585  0  1.019496  0  0  0.088871  0.089442  0  1.017434  0
H  H36  1  0.80642695  0.44682277  0.42095354  1  0  0.065923  0  0.953178  0  0  0.080455  0  1.020691  0  0  0.082176  0  1.019546  0  0  0.085589  0.078768  0  1.022512  0
H  H37  1  0.19356766  0.55318065  0.57904481  1  0  0.065934  0  0.953187  0  0  0.080445  0  1.020691  0  0  0.082165  0  1.019543  0  0  0.08557  0.078757  0  1.022512  0
H  H38  1  0.94008586  0.48452587  0.63302176  1  0  0.079672  0  0.926576  0  0  0.093217  0  0.983055  0  0  0.09517  0  0.982767  0  0  0.102703  0.091352  0  0.984043  0
H  H39  1  0.05991225  0.51547756  0.36697947  1  0  0.079621  0  0.926637  0  0  0.093172  0  0.98311  0  0  0.095126  0  0.982822  0  0  0.102687  0.091308  0  0.984092  0
H  H40  1  0.80060190  0.31763423  0.79662380  1  0  0.052841  0  0.975865  0  0  0.066158  0  1.049644  0  0  0.068181  0  1.048053  0  0  0.07983  0.064485  0  1.051186  0
H  H41  1  0.19939920  0.68236331  0.20337546  1  0  0.052891  0  0.975848  0  0  0.066182  0  1.049615  0  0  0.068204  0  1.048023  0  0  0.079856  0.064506  0  1.051161  0
H  H42  1  0.70555671  0.46319841  0.75442447  1  0  0.058543  0  0.937977  0  0  0.078892  0  0.99834  0  0  0.079911  0  0.998485  0  0  0.084497  0.077986  0  0.998407  0
H  H43  1  0.29444405  0.53679801  0.24558301  1  0  0.058574  0  0.937949  0  0  0.078878  0  0.998333  0  0  0.079893  0  0.998482  0  0  0.084531  0.077976  0  0.998395  0
H  H44  1  0.49703174  0.20686115  0.77166103  1  0  0.061884  0  0.954685  0  0  0.078087  0  1.021139  0  0  0.079663  0  1.020434  0  0  0.083225  0.076973  0  1.021563  0
H  H45  1  0.50296886  0.79313876  0.22834199  1  0  0.06188  0  0.954698  0  0  0.078107  0  1.021128  0  0  0.079684  0  1.020419  0  0  0.083233  0.076993  0  1.021551  0
H  H46  1  0.59406680  0.11345071  0.66348960  1  0  0.074057  0  0.930321  0  0  0.093894  0  0.988933  0  0  0.094516  0  0.98982  0  0  0.090737  0.093744  0  0.987573  0
H  H47  1  0.40592848  0.88655504  0.33650796  1  0  0.074013  0  0.930219  0  0  0.093816  0  0.988895  0  0  0.094438  0  0.989783  0  0  0.090739  0.093669  0  0.987532  0
C  C48  1  0.10569991  0.78705828  0.83441725  1  0  0.027807  0  3.633213  0  0  -0.027191  0  3.898253  0  0  -0.022473  0  3.910207  0  0  -0.06093  -0.030504  0  3.890527  0
C  C49  1  0.89430418  0.21294160  0.16558314  1  0  0.027797  0  3.633082  0  0  -0.027144  0  3.898049  0  0  -0.022428  0  3.910006  0  0  -0.060879  -0.030457  0  3.890326  0
C  C50  1  0.03939333  0.71093092  0.95168709  1  0  -0.019334  0  3.630603  0  0  -0.082706  0  3.895939  0  0  -0.078849  0  3.908175  0  0  -0.056162  -0.085058  0  3.887528  0
C  C51  1  0.96061260  0.28907133  0.04831623  1  0  -0.019182  0  3.630588  0  0  -0.082594  0  3.895985  0  0  -0.078737  0  3.908225  0  0  -0.056125  -0.084946  0  3.887573  0
C  C52  1  0.88138782  0.86185080  0.87869330  1  0  0.453582  0  3.747532  0  0  0.418965  0  4.0241  0  0  0.442634  0  4.034047  0  0  0.250622  0.403023  0  4.017017  0
C  C53  1  0.11861510  0.13814086  0.12130578  1  0  0.453676  0  3.747398  0  0  0.419104  0  4.023837  0  0  0.442775  0  4.033776  0  0  0.250584  0.403161  0  4.016762  0
C  C54  1  0.74320706  0.93296896  0.86590371  1  0  -0.396685  0  3.666996  0  0  -0.478598  0  3.909323  0  0  -0.484008  0  3.913081  0  0  -0.228157  -0.47473  0  3.90697  0
C  C55  1  0.25679670  0.06702149  0.13409167  1  0  -0.396694  0  3.667038  0  0  -0.478608  0  3.909358  0  0  -0.484021  0  3.913115  0  0  -0.228027  -0.474752  0  3.907002  0
C  C56  1  0.82798353  0.76492076  0.09235307  1  0  -0.001205  0  3.663978  0  0  -0.06417  0  3.929118  0  0  -0.059553  0  3.941286  0  0  -0.062821  -0.067057  0  3.92061  0
C  C57  1  0.17201923  0.23507441  0.90764523  1  0  -0.001391  0  3.664191  0  0  -0.064314  0  3.929162  0  0  -0.05973  0  3.941329  0  0  -0.062891  -0.067194  0  3.920644  0
C  C58  1  0.70374502  0.60489442  0.09384587  1  0  -0.126812  0  3.688758  0  0  -0.167777  0  3.951194  0  0  -0.169198  0  3.965722  0  0  -0.165111  -0.16655  0  3.940811  0
C  C59  1  0.29625341  0.39510191  0.90614864  1  0  -0.126779  0  3.688806  0  0  -0.16783  0  3.95129  0  0  -0.169262  0  3.965841  0  0  -0.165137  -0.166604  0  3.940907  0
C  C60  1  0.56153004  0.57978643  0.99868938  1  0  -0.103494  0  3.719116  0  0  -0.144765  0  3.985439  0  0  -0.145786  0  4.001401  0  0  -0.168064  -0.144118  0  3.974268  0
C  C61  1  0.43847022  0.42021223  0.00130255  1  0  -0.103424  0  3.718853  0  0  -0.144641  0  3.985182  0  0  -0.14567  0  4.001154  0  0  -0.167949  -0.143993  0  3.974011  0
C  C62  1  0.30430117  0.15929708  0.55490273  1  0  0.674346  0  3.82268  0  0  0.622198  0  4.123175  0  0  0.656661  0  4.116489  0  0  0.214799  0.599287  0  4.12492  0
C  C63  1  0.69569178  0.84071693  0.44509784  1  0  0.674331  0  3.822694  0  0  0.622229  0  4.123152  0  0  0.656691  0  4.116471  0  0  0.214752  0.59932  0  4.124894  0
C  C64  1  0.47292934  0.27270914  0.58444167  1  0  -0.113583  0  3.638526  0  0  -0.112333  0  3.877463  0  0  -0.118348  0  3.892839  0  0  -0.089797  -0.108492  0  3.866474  0
C  C65  1  0.52706611  0.72730137  0.41556253  1  0  -0.113476  0  3.63851  0  0  -0.112248  0  3.877483  0  0  -0.118273  0  3.89287  0  0  -0.089771  -0.108414  0  3.866511  0
C  C66  1  0.57303807  0.30461936  0.47077092  1  0  -0.117346  0  3.679134  0  0  -0.162714  0  3.938857  0  0  -0.163237  0  3.952378  0  0  -0.170222  -0.162138  0  3.929425  0
C  C67  1  0.42695703  0.69538172  0.52923011  1  0  -0.117543  0  3.679269  0  0  -0.16294  0  3.939056  0  0  -0.163466  0  3.952578  0  0  -0.170328  -0.162372  0  3.929618  0
C  C68  1  0.73450891  0.42873715  0.50252313  1  0  -0.119153  0  3.671239  0  0  -0.165253  0  3.933093  0  0  -0.165693  0  3.947088  0  0  -0.170637  -0.165441  0  3.924632  0
C  C69  1  0.26548770  0.57126511  0.49747893  1  0  -0.119185  0  3.671344  0  0  -0.165168  0  3.933111  0  0  -0.1656  0  3.94709  0  0  -0.170597  -0.165366  0  3.92466  0
C  C70  1  0.83262372  0.38410099  0.60899077  1  0  -0.116208  0  3.623226  0  0  -0.114156  0  3.862833  0  0  -0.120586  0  3.878168  0  0  -0.089315  -0.109549  0  3.852587  0
C  C71  1  0.16737589  0.61590359  0.39100781  1  0  -0.116169  0  3.623364  0  0  -0.114143  0  3.862926  0  0  -0.120574  0  3.878261  0  0  -0.089357  -0.109531  0  3.852676  0
C  C72  1  0.73053464  0.35246797  0.72170344  1  0  -0.109435  0  3.682107  0  0  -0.156479  0  3.946455  0  0  -0.156887  0  3.959988  0  0  -0.169785  -0.156324  0  3.937732  0
C  C73  1  0.26946596  0.64753192  0.27829682  1  0  -0.109503  0  3.682148  0  0  -0.156448  0  3.946399  0  0  -0.156852  0  3.959931  0  0  -0.169809  -0.156297  0  3.93768  0
C  C74  1  0.56985540  0.22631862  0.69055368  1  0  -0.119702  0  3.675333  0  0  -0.164163  0  3.934262  0  0  -0.164622  0  3.948  0  0  -0.169267  -0.163441  0  3.924704  0
C  C75  1  0.43014087  0.77368245  0.30944647  1  0  -0.119653  0  3.675226  0  0  -0.164155  0  3.934198  0  0  -0.164612  0  3.947935  0  0  -0.16928  -0.163433  0  3.924639  0
C  C76  1  0.90103402  0.24658363  0.57140598  1  0  0.681954  0  3.79811  0  0  0.627684  0  4.098433  0  0  0.661742  0  4.092919  0  0  0.218609  0.604861  0  4.100881  0
C  C77  1  0.09896491  0.75341861  0.42859432  1  0  0.68184  0  3.798044  0  0  0.627487  0  4.098498  0  0  0.661541  0  4.092987  0  0  0.218515  0.604664  0  4.100942  0
N  N78  1  0.98221717  0.86303496  0.79150658  1  0  -0.486328  0  3.080306  0  0  -0.412846  0  3.381146  0  0  -0.438319  0  3.388948  0  0  -0.390021  -0.395239  0  3.37537  0
N  N79  1  0.01778759  0.13695902  0.20849082  1  0  -0.486454  0  3.0802  0  0  -0.412963  0  3.381021  0  0  -0.438421  0  3.388793  0  0  -0.390039  -0.395357  0  3.375253  0
N  N80  1  0.91315282  0.78885945  0.97943561  1  0  -0.215949  0  3.385126  0  0  -0.12541  0  3.620441  0  0  -0.146094  0  3.64346  0  0  -0.284522  -0.111793  0  3.604558  0
N  N81  1  0.08684877  0.21113573  0.02056357  1  0  -0.216029  0  3.385257  0  0  -0.125453  0  3.620472  0  0  -0.146141  0  3.643498  0  0  -0.28446  -0.111836  0  3.604585  0
O  O82  1  0.23415115  0.08432756  0.64241430  1  0  -0.636432  0  2.058593  0  0  -0.572269  0  2.325461  0  0  -0.600814  0  2.313666  0  0  -0.318866  -0.552041  0  2.332128  0
O  O83  1  0.76584711  0.91567239  0.35759232  1  0  -0.636391  0  2.058816  0  0  -0.572248  0  2.325668  0  0  -0.600788  0  2.313866  0  0  -0.318866  -0.552023  0  2.332335  0
O  O84  1  0.24349771  0.15316380  0.44518919  1  0  -0.641546  0  2.080109  0  0  -0.577368  0  2.35195  0  0  -0.606441  0  2.339685  0  0  -0.319446  -0.556715  0  2.357933  0
O  O85  1  0.75648859  0.84685972  0.55482441  1  0  -0.641628  0  2.079875  0  0  -0.57745  0  2.351665  0  0  -0.606524  0  2.339401  0  0  -0.31946  -0.556794  0  2.357643  0
O  O86  1  0.93249432  0.23037683  0.45939234  1  0  -0.627147  0  2.083475  0  0  -0.559122  0  2.35117  0  0  -0.588253  0  2.340101  0  0  -0.308681  -0.539028  0  2.358813  0
O  O87  1  0.06749211  0.76961019  0.54060869  1  0  -0.627004  0  2.083228  0  0  -0.558959  0  2.350912  0  0  -0.58809  0  2.339849  0  0  -0.308647  -0.538871  0  2.358563  0
O  O88  1  0.92527715  0.15959173  0.65560877  1  0  -0.654744  0  2.105931  0  0  -0.58203  0  2.369941  0  0  -0.611154  0  2.358216  0  0  -0.316467  -0.562036  0  2.377092  0
O  O89  1  0.07472563  0.84041995  0.34439851  1  0  -0.654827  0  2.106206  0  0  -0.581936  0  2.370053  0  0  -0.611068  0  2.358357  0  0  -0.31638  -0.561942  0  2.377207  0
