# generated using pymatgen
data_Al2H3C24S6(ClO4)3
_symmetry_space_group_name_H-M   'P 1'
_cell_length_a   3.96613931
_cell_length_b   20.14288261
_cell_length_c   20.14282025
_cell_angle_alpha   119.99986173
_cell_angle_beta   90.00006089
_cell_angle_gamma   89.99990798
_symmetry_Int_Tables_number   1
_chemical_formula_structural   Al2H3C24S6(ClO4)3
_chemical_formula_sum   'Al2 H3 C24 S6 Cl3 O12'
_cell_volume   1393.60950711
_cell_formula_units_Z   1
loop_
 _symmetry_equiv_pos_site_id
 _symmetry_equiv_pos_as_xyz
  1  'x, y, z'
loop_
 _atom_site_type_symbol
 _atom_site_label
 _atom_site_symmetry_multiplicity
 _atom_site_fract_x
 _atom_site_fract_y
 _atom_site_fract_z
 _atom_site_occupancy
 _atom_site_pbe_bader_charge
 _atom_site_pbe_bader_spin_density
 _atom_site_pbe_cm5_charge
 _atom_site_pbe_ddec_charge
 _atom_site_pbe_ddec_spin_density
 _atom_site_pbe_ddec_sum_bond_order
 _atom_site_pbe_magmom
Al  Al0  1  0.00078619  0.50000079  0.49999953  1  2.504744  0  0.4236  1.60077  0  2.562035  0
Al  Al1  1  0.00220560  0.16666707  0.83333233  1  2.502825  0  0.425806  1.596115  0  2.567228  0
H  H2  1  0.47661584  0.17693858  0.61447035  1  0.107375  0  0.119161  0.144657  0  0.968575  0
H  H3  1  0.47661590  0.93753444  0.82306224  1  0.098557  0  0.11916  0.144649  0  0.968658  0
H  H4  1  0.47661324  0.38553135  0.06246479  1  0.104259  0  0.119156  0.144636  0  0.968561  0
C  C5  1  0.50113409  0.44057319  0.38252678  1  1.562225  0  0.273331  0.684601  0  4.076248  0
C  C6  1  0.50113464  0.44195634  0.55942739  1  1.572593  0  0.273248  0.684682  0  4.076089  0
C  C7  1  0.50113644  0.61747368  0.55804437  1  1.682172  0  0.273328  0.684734  0  4.076038  0
C  C8  1  0.50178167  0.22570990  0.77470410  1  1.567735  0  0.27466  0.672352  0  4.081257  0
C  C9  1  0.50177735  0.04899615  0.77428993  1  1.563729  0  0.274622  0.672295  0  4.081268  0
C  C10  1  0.50177971  0.22529651  0.95100340  1  1.681856  0  0.2747  0.672409  0  4.081444  0
C  C11  1  0.49167752  0.42939077  0.68029360  1  0.178367  0  0.001067  0.087408  0  4.100787  0
C  C12  1  0.48655989  0.23822282  0.65466403  1  0.137063  0  -0.0959  -0.151279  0  3.982483  0
C  C13  1  0.49938766  0.39940501  0.60170593  1  -0.081644  0  -0.022111  -0.177  0  3.920212  0
C  C14  1  0.49860195  0.26887886  0.73309077  1  -0.26938  0  -0.013936  -0.102954  0  3.940488  0
C  C15  1  0.50320802  0.29681078  0.63542965  1  -0.159746  0  -0.02446  -0.000374  0  4.08609  0
C  C16  1  0.50628648  0.37086418  0.69981809  1  -0.132348  0  -0.031061  -0.082696  0  4.08686  0
C  C17  1  0.49167586  0.75090404  0.57060954  1  0.198092  0  0.001035  0.087315  0  4.100967  0
C  C18  1  0.48655493  0.91644333  0.76177777  1  0.060229  0  -0.095847  -0.151194  0  3.982495  0
C  C19  1  0.49939398  0.70230303  0.60059678  1  -0.214341  0  -0.022123  -0.177006  0  3.920332  0
C  C20  1  0.49859658  0.96421464  0.73112193  1  -0.128579  0  -0.013952  -0.102992  0  3.940477  0
C  C21  1  0.50320350  0.83862179  0.70318997  1  -0.173872  0  -0.024515  -0.000409  0  4.086203  0
C  C22  1  0.50627682  0.82895587  0.62913584  1  -0.141133  0  -0.031084  -0.082797  0  4.086912  0
C  C23  1  0.49166904  0.31970763  0.24909517  1  0.073481  0  0.000916  0.08705  0  4.10129  0
C  C24  1  0.48655009  0.34533765  0.08355616  1  0.050025  0  -0.095821  -0.151106  0  3.98232  0
C  C25  1  0.49938671  0.39829587  0.29769710  1  -0.026223  0  -0.022008  -0.176658  0  3.920336  0
C  C26  1  0.49859472  0.26691057  0.03578498  1  -0.233105  0  -0.01395  -0.103047  0  3.940572  0
C  C27  1  0.50319365  0.36457101  0.16137755  1  -0.179774  0  -0.024585  -0.000594  0  4.086226  0
C  C28  1  0.50626746  0.30018324  0.17104353  1  -0.087986  0  -0.031051  -0.082569  0  4.086775  0
S  S29  1  0.51694907  0.29991035  0.55147847  1  0.246844  0  0.090174  0.130975  0  2.773016  0
S  S30  1  0.52267297  0.36843510  0.78384644  1  0.319698  0  0.08967  0.132355  0  2.793906  0
S  S31  1  0.51694769  0.75157139  0.70009171  1  0.290046  0  0.090206  0.131033  0  2.77306  0
S  S32  1  0.52266773  0.91541289  0.63156450  1  0.273883  0  0.089706  0.132448  0  2.79377  0
S  S33  1  0.51694498  0.44852225  0.24842857  1  0.286641  0  0.09019  0.130986  0  2.773114  0
S  S34  1  0.52266383  0.21615479  0.08458603  1  0.27342  0  0.089686  0.132374  0  2.79387  0
Cl  Cl35  1  0.48474364  0.52502332  0.74666847  1  -0.176917  0  0.000263  -0.041892  0  1.522384  0
Cl  Cl36  1  0.48473946  0.72164667  0.47497701  1  -0.18188  0  0.000256  -0.041868  0  1.522428  0
Cl  Cl37  1  0.48473823  0.25333245  0.27835284  1  -0.176346  0  0.000304  -0.041839  0  1.522446  0
O  O38  1  0.73620906  0.58434940  0.57384752  1  -1.252004  0  -0.235681  -0.589184  0  2.34548  0
O  O39  1  0.73621147  0.48949924  0.41564943  1  -1.241884  0  -0.235715  -0.58918  0  2.345511  0
O  O40  1  0.73620951  0.42615318  0.51050089  1  -1.249128  0  -0.235691  -0.589243  0  2.345568  0
O  O41  1  0.26693386  0.58370499  0.50930554  1  -1.247982  0  -0.233295  -0.589039  0  2.365889  0
O  O42  1  0.26693445  0.49069482  0.57439766  1  -1.23544  0  -0.23324  -0.588951  0  2.365838  0
O  O43  1  0.26693674  0.42560195  0.41629490  1  -1.246891  0  -0.233314  -0.588978  0  2.366007  0
O  O44  1  0.73726573  0.17649051  0.91746374  1  -1.254829  0  -0.238689  -0.59569  0  2.34994  0
O  O45  1  0.73726769  0.24097469  0.82350963  1  -1.244644  0  -0.238672  -0.595645  0  2.349821  0
O  O46  1  0.73726814  0.08253640  0.75902493  1  -1.242442  0  -0.238666  -0.595639  0  2.349727  0
O  O47  1  0.26907213  0.24102096  0.91730624  1  -1.254009  0  -0.236318  -0.588031  0  2.337087  0
O  O48  1  0.26906744  0.08269225  0.82371107  1  -1.253764  0  -0.236265  -0.587967  0  2.336991  0
O  O49  1  0.26907189  0.17628826  0.75897834  1  -1.249564  0  -0.236296  -0.588024  0  2.337081  0
