# generated using pymatgen
data_ZnH11C13N2O5
_symmetry_space_group_name_H-M   'P 1'
_cell_length_a   8.23234661
_cell_length_b   8.32994107
_cell_length_c   10.21784988
_cell_angle_alpha   100.25789133
_cell_angle_beta   101.11542019
_cell_angle_gamma   106.37256868
_symmetry_Int_Tables_number   1
_chemical_formula_structural   ZnH11C13N2O5
_chemical_formula_sum   'Zn2 H22 C26 N4 O10'
_cell_volume   639.24513337
_cell_formula_units_Z   2
loop_
 _symmetry_equiv_pos_site_id
 _symmetry_equiv_pos_as_xyz
  1  'x, y, z'
loop_
 _atom_site_type_symbol
 _atom_site_label
 _atom_site_symmetry_multiplicity
 _atom_site_fract_x
 _atom_site_fract_y
 _atom_site_fract_z
 _atom_site_occupancy
 _atom_site_hle17_bader_spin_density
 _atom_site_hle17_ddec_charge
 _atom_site_hle17_ddec_spin_density
 _atom_site_hle17_ddec_sum_bond_order
 _atom_site_hle17_magmom
 _atom_site_hse06_10hf_bader_spin_density
 _atom_site_hse06_10hf_ddec_charge
 _atom_site_hse06_10hf_ddec_spin_density
 _atom_site_hse06_10hf_ddec_sum_bond_order
 _atom_site_hse06_10hf_magmom
 _atom_site_hse06_bader_spin_density
 _atom_site_hse06_ddec_charge
 _atom_site_hse06_ddec_spin_density
 _atom_site_hse06_ddec_sum_bond_order
 _atom_site_hse06_magmom
 _atom_site_pbe_bader_spin_density
 _atom_site_pbe_cm5_charge
 _atom_site_pbe_ddec_charge
 _atom_site_pbe_ddec_spin_density
 _atom_site_pbe_ddec_sum_bond_order
 _atom_site_pbe_magmom
Zn  Zn0  1  0.66097318  0.46936883  0.89203506  1  0  1.075533  0  1.819839  0  0  0.898783  0  2.291666  0  0  0.946114  0  2.233358  0  0  0.698708  0.862144  0  2.335075  0
Zn  Zn1  1  0.33902642  0.53062872  0.10796209  1  0  1.075543  0  1.819795  0  0  0.898804  0  2.291601  0  0  0.946133  0  2.233289  0  0  0.698711  0.862158  0  2.335008  0
H  H2  1  0.43373878  0.04502511  0.76532208  1  0  0.117127  0  0.963883  0  0  0.124296  0  1.023545  0  0  0.127865  0  1.021099  0  0  0.122014  0.121544  0  1.025642  0
H  H3  1  0.56626168  0.95497501  0.23467557  1  0  0.117124  0  0.963933  0  0  0.124303  0  1.023576  0  0  0.12787  0  1.021132  0  0  0.122026  0.12155  0  1.025673  0
H  H4  1  0.59165019  0.81551170  0.85224298  1  0  0.135788  0  0.96646  0  0  0.145317  0  1.025603  0  0  0.148345  0  1.023909  0  0  0.125736  0.142919  0  1.027244  0
H  H5  1  0.40834860  0.18448715  0.14775716  1  0  0.135839  0  0.966431  0  0  0.145334  0  1.025613  0  0  0.148362  0  1.023919  0  0  0.125743  0.142936  0  1.027255  0
H  H6  1  0.91843090  0.32664807  0.05804865  1  0  0.113116  0  0.964054  0  0  0.120403  0  1.029557  0  0  0.123567  0  1.026068  0  0  0.136679  0.117847  0  1.032521  0
H  H7  1  0.08156702  0.67334821  0.94195197  1  0  0.113105  0  0.964007  0  0  0.120403  0  1.029504  0  0  0.123556  0  1.026029  0  0  0.136681  0.117847  0  1.032466  0
H  H8  1  0.86960062  0.85818162  0.04251197  1  0  0.1015  0  0.950844  0  0  0.11466  0  1.013809  0  0  0.116258  0  1.012879  0  0  0.116469  0.113378  0  1.014785  0
H  H9  1  0.13039896  0.14181596  0.95749203  1  0  0.101482  0  0.950818  0  0  0.114621  0  1.013807  0  0  0.116219  0  1.012877  0  0  0.11644  0.113336  0  1.014782  0
H  H10  1  0.98812945  0.07195400  0.14538013  1  0  0.085479  0  0.942438  0  0  0.097468  0  1.011024  0  0  0.098825  0  1.009827  0  0  0.113177  0.096288  0  1.011926  0
H  H11  1  0.01187014  0.92804358  0.85462191  1  0  0.085467  0  0.942484  0  0  0.097459  0  1.01105  0  0  0.098821  0  1.009855  0  0  0.113166  0.096277  0  1.011952  0
H  H12  1  0.07685142  0.76018292  0.71059235  1  0  0.107854  0  0.958962  0  0  0.115791  0  1.026897  0  0  0.119339  0  1.024157  0  0  0.105977  0.113148  0  1.029017  0
H  H13  1  0.92314865  0.23981980  0.28940854  1  0  0.107828  0  0.958991  0  0  0.115769  0  1.026926  0  0  0.119318  0  1.024184  0  0  0.105979  0.113122  0  1.029051  0
H  H14  1  0.02720393  0.79785926  0.29018707  1  0  0.11491  0  0.964464  0  0  0.122835  0  1.031193  0  0  0.126774  0  1.02839  0  0  0.106537  0.120044  0  1.033159  0
H  H15  1  0.97279615  0.20214345  0.70981185  1  0  0.114923  0  0.964408  0  0  0.122849  0  1.03113  0  0  0.126788  0  1.028328  0  0  0.106547  0.120058  0  1.033097  0
H  H16  1  0.61325730  0.43887475  0.39535099  1  0  0.115663  0  0.940821  0  0  0.124366  0  1.002851  0  0  0.12846  0  0.999736  0  0  0.108995  0.12148  0  1.005244  0
H  H17  1  0.38674481  0.56112668  0.60465004  1  0  0.115695  0  0.940769  0  0  0.124392  0  1.002802  0  0  0.128487  0  0.999684  0  0  0.109016  0.121504  0  1.005198  0
H  H18  1  0.32431875  0.92593105  0.38343635  1  0  0.081796  0  0.978482  0  0  0.095407  0  1.049704  0  0  0.095501  0  1.050687  0  0  0.092653  0.095271  0  1.049138  0
H  H19  1  0.67568337  0.07407039  0.61656566  1  0  0.081829  0  0.978469  0  0  0.095446  0  1.049671  0  0  0.095538  0  1.050657  0  0  0.092672  0.095311  0  1.049103  0
H  H20  1  0.41116798  0.12220234  0.51840878  1  0  0.11695  0  0.952295  0  0  0.134643  0  1.012482  0  0  0.135873  0  1.01163  0  0  0.106672  0.133674  0  1.013172  0
H  H21  1  0.58883328  0.87779651  0.48159273  1  0  0.116946  0  0.952314  0  0  0.134621  0  1.012521  0  0  0.135852  0  1.011667  0  0  0.106676  0.133653  0  1.013207  0
H  H22  1  0.19744264  0.06793652  0.40709504  1  0  0.071244  0  0.972238  0  0  0.086089  0  1.044256  0  0  0.085352  0  1.046236  0  0  0.088218  0.086484  0  1.04297  0
H  H23  1  0.80255948  0.93206491  0.59290501  1  0  0.071241  0  0.972226  0  0  0.086075  0  1.044264  0  0  0.085337  0  1.046244  0  0  0.088209  0.08647  0  1.042978  0
C  C24  1  0.55722669  0.07076364  0.83955623  1  0  0.010365  0  3.727668  0  0  -0.021955  0  3.994513  0  0  -0.019956  0  4.013405  0  0  0.001796  -0.023526  0  3.98209  0
C  C25  1  0.44277662  0.92923392  0.16044445  1  0  0.01039  0  3.727677  0  0  -0.02194  0  3.994521  0  0  -0.01994  0  4.013413  0  0  0.001775  -0.023513  0  3.9821  0
C  C26  1  0.63505617  0.95556318  0.87980558  1  0  -0.054433  0  3.626991  0  0  -0.09276  0  3.877558  0  0  -0.091943  0  3.897102  0  0  0.007943  -0.093292  0  3.864822  0
C  C27  1  0.36494348  0.04443824  0.12019310  1  0  -0.054509  0  3.62695  0  0  -0.092809  0  3.877524  0  0  -0.091992  0  3.897069  0  0  0.007936  -0.093338  0  3.864786  0
C  C28  1  0.80621764  0.22223183  0.98977955  1  0  0.160789  0  3.630602  0  0  0.099747  0  3.891709  0  0  0.113172  0  3.90488  0  0  0.141918  0.090855  0  3.883004  0
C  C29  1  0.19378362  0.77776702  0.01022098  1  0  0.160819  0  3.630527  0  0  0.099764  0  3.891641  0  0  0.113195  0  3.90482  0  0  0.141925  0.090874  0  3.882935  0
C  C30  1  0.92916297  0.99246722  0.03967669  1  0  -0.025934  0  3.599387  0  0  -0.090484  0  3.857008  0  0  -0.087082  0  3.867185  0  0  -0.050175  -0.092611  0  3.850118  0
C  C31  1  0.07083581  0.00753164  0.96032443  1  0  -0.025932  0  3.599391  0  0  -0.090441  0  3.856962  0  0  -0.087049  0  3.867146  0  0  -0.050149  -0.092557  0  3.850063  0
C  C32  1  0.75755361  0.51537283  0.66840783  1  0  0.633512  0  3.910429  0  0  0.587273  0  4.196176  0  0  0.620375  0  4.190476  0  0  0.201083  0.564316  0  4.199742  0
C  C33  1  0.24244728  0.48462860  0.33159202  1  0  0.633513  0  3.910386  0  0  0.587296  0  4.196109  0  0  0.620397  0  4.190406  0  0  0.201037  0.564339  0  4.199677  0
C  C34  1  0.83697374  0.59124193  0.56400668  1  0  -0.045884  0  3.780804  0  0  -0.01889  0  4.013542  0  0  -0.026469  0  4.036804  0  0  -0.015658  -0.014151  0  3.998713  0
C  C35  1  0.16302672  0.40875821  0.43599194  1  0  -0.045861  0  3.780753  0  0  -0.018879  0  4.013499  0  0  -0.026455  0  4.03676  0  0  -0.015663  -0.01414  0  3.99867  0
C  C36  1  0.00061964  0.71977181  0.60375080  1  0  -0.16761  0  3.702551  0  0  -0.205409  0  3.962132  0  0  -0.205679  0  3.978236  0  0  -0.088677  -0.204186  0  3.95079  0
C  C37  1  0.99938001  0.28022962  0.39624788  1  0  -0.167533  0  3.702525  0  0  -0.205329  0  3.962125  0  0  -0.205599  0  3.978228  0  0  -0.088666  -0.204103  0  3.950778  0
C  C38  1  0.06952718  0.79840388  0.50690681  1  0  0.27188  0  3.814454  0  0  0.266234  0  4.076043  0  0  0.275433  0  4.091794  0  0  0.087589  0.259469  0  4.064949  0
C  C39  1  0.93047290  0.20159883  0.49309212  1  0  0.271853  0  3.814376  0  0  0.266175  0  4.07601  0  0  0.275374  0  4.091762  0  0  0.087558  0.259409  0  4.064915  0
C  C40  1  0.97627107  0.74270330  0.36847480  1  0  -0.178754  0  3.695702  0  0  -0.214578  0  3.947987  0  0  -0.215383  0  3.965206  0  0  -0.097253  -0.212982  0  3.93584  0
C  C41  1  0.02372981  0.25729813  0.63152505  1  0  -0.178734  0  3.695616  0  0  -0.214557  0  3.947899  0  0  -0.215362  0  3.96512  0  0  -0.097265  -0.212961  0  3.935754  0
C  C42  1  0.81199674  0.61294685  0.32875796  1  0  -0.06235  0  3.786261  0  0  -0.03689  0  4.022629  0  0  -0.045907  0  4.046754  0  0  -0.023622  -0.031101  0  4.007088  0
C  C43  1  0.18800453  0.38705200  0.67124160  1  0  -0.062381  0  3.78627  0  0  -0.036879  0  4.022598  0  0  -0.045899  0  4.046721  0  0  -0.023613  -0.031091  0  4.007061  0
C  C44  1  0.74166675  0.53742748  0.42575118  1  0  -0.06555  0  3.679151  0  0  -0.107244  0  3.931135  0  0  -0.105081  0  3.949853  0  0  -0.079282  -0.109305  0  3.919936  0
C  C45  1  0.25833495  0.46257265  0.57424764  1  0  -0.065597  0  3.679078  0  0  -0.107292  0  3.931059  0  0  -0.105129  0  3.949777  0  0  -0.07929  -0.109352  0  3.919861  0
C  C46  1  0.29304613  0.01553564  0.45931863  1  0  -0.094201  0  3.619835  0  0  -0.189784  0  3.88132  0  0  -0.183828  0  3.88673  0  0  -0.150259  -0.193592  0  3.877422  0
C  C47  1  0.70695599  0.98446579  0.54068142  1  0  -0.094229  0  3.619922  0  0  -0.189802  0  3.881424  0  0  -0.183843  0  3.886834  0  0  -0.150294  -0.193612  0  3.877525  0
C  C48  1  0.71116845  0.55721373  0.18167758  1  0  0.67136  0  3.85394  0  0  0.622555  0  4.135017  0  0  0.657745  0  4.126649  0  0  0.223438  0.598026  0  4.140499  0
C  C49  1  0.28883114  0.44278382  0.81832152  1  0  0.67137  0  3.853894  0  0  0.622516  0  4.135034  0  0  0.657715  0  4.126655  0  0  0.223426  0.597987  0  4.140515  0
N  N50  1  0.66553829  0.23643040  0.90892757  1  0  -0.401304  0  3.349444  0  0  -0.322128  0  3.655279  0  0  -0.343446  0  3.668226  0  0  -0.362739  -0.307209  0  3.646048  0
N  N51  1  0.33446340  0.76356974  0.09107223  1  0  -0.401344  0  3.349475  0  0  -0.322172  0  3.655325  0  0  -0.343487  0  3.668267  0  0  -0.362755  -0.307251  0  3.646092  0
N  N52  1  0.79213016  0.05368425  0.97486093  1  0  -0.051137  0  3.561398  0  0  0.0448  0  3.778887  0  0  0.030088  0  3.805977  0  0  -0.23795  0.05457  0  3.760558  0
N  N53  1  0.20786695  0.94631333  0.02514072  1  0  -0.051089  0  3.56135  0  0  0.044852  0  3.778808  0  0  0.030144  0  3.805897  0  0  -0.2379  0.054617  0  3.760478  0
O  O54  1  0.82409019  0.60220661  0.79705061  1  0  -0.672762  0  2.009508  0  0  -0.598534  0  2.27219  0  0  -0.627737  0  2.258572  0  0  -0.339686  -0.576508  0  2.282272  0
O  O55  1  0.17591193  0.39779483  0.20295042  1  0  -0.672771  0  2.009496  0  0  -0.598551  0  2.272169  0  0  -0.627754  0  2.258549  0  0  -0.339675  -0.576523  0  2.28225  0
O  O56  1  0.63005361  0.37822608  0.63267667  1  0  -0.604051  0  1.936195  0  0  -0.556683  0  2.166415  0  0  -0.580167  0  2.158653  0  0  -0.309936  -0.539557  0  2.170856  0
O  O57  1  0.36994727  0.62177534  0.36732221  1  0  -0.60407  0  1.936158  0  0  -0.556697  0  2.166344  0  0  -0.580189  0  2.158595  0  0  -0.309907  -0.539571  0  2.170788  0
O  O58  1  0.55031692  0.46079525  0.15042666  1  0  -0.673295  0  2.127433  0  0  -0.604734  0  2.412167  0  0  -0.630318  0  2.392667  0  0  -0.330443  -0.585854  0  2.424857  0
O  O59  1  0.44968349  0.53920101  0.84957141  1  0  -0.673331  0  2.127411  0  0  -0.604766  0  2.412172  0  0  -0.630354  0  2.392672  0  0  -0.330486  -0.585886  0  2.424862  0
O  O60  1  0.78955034  0.60406282  0.09138055  1  0  -0.631487  0  2.048585  0  0  -0.560857  0  2.308351  0  0  -0.587824  0  2.294087  0  0  -0.311217  -0.541201  0  2.319211  0
O  O61  1  0.21044845  0.39593602  0.90861763  1  0  -0.631444  0  2.048541  0  0  -0.560801  0  2.308338  0  0  -0.587765  0  2.294056  0  0  -0.311171  -0.541143  0  2.319195  0
O  O62  1  0.22547846  0.92897075  0.55690783  1  0  -0.256119  0  2.337236  0  0  -0.179758  0  2.572513  0  0  -0.198281  0  2.57627  0  0  -0.188714  -0.1664  0  2.569289  0
O  O63  1  0.77452118  0.07103068  0.44309183  1  0  -0.256139  0  2.337295  0  0  -0.179748  0  2.57255  0  0  -0.198275  0  2.576311  0  0  -0.188683  -0.166388  0  2.569325  0
