# generated using pymatgen
data_H36Ru2C24ClO8
_symmetry_space_group_name_H-M   'P 1'
_cell_length_a   7.37595376
_cell_length_b   9.52355780
_cell_length_c   9.93855302
_cell_angle_alpha   92.20622170
_cell_angle_beta   97.06972962
_cell_angle_gamma   99.27279997
_symmetry_Int_Tables_number   1
_chemical_formula_structural   H36Ru2C24ClO8
_chemical_formula_sum   'H36 Ru2 C24 Cl1 O8'
_cell_volume   682.56170550
_cell_formula_units_Z   1
loop_
 _symmetry_equiv_pos_site_id
 _symmetry_equiv_pos_as_xyz
  1  'x, y, z'
loop_
 _atom_site_type_symbol
 _atom_site_label
 _atom_site_symmetry_multiplicity
 _atom_site_fract_x
 _atom_site_fract_y
 _atom_site_fract_z
 _atom_site_occupancy
 _atom_site_pbe_cm5_charge
 _atom_site_pbe_ddec_charge
 _atom_site_pbe_ddec_spin_density
 _atom_site_pbe_ddec_sum_bond_order
 _atom_site_pbe_magmom
H  H0  1  0.62939392  0.57980799  0.06989353  1  0.104629  0.09798  5.8e-05  1.020908  0.0
H  H1  1  0.37060747  0.42019964  0.93012068  1  0.104669  0.098003  5.8e-05  1.021068  0.0
H  H2  1  0.60253321  0.31074031  0.05723186  1  0.095634  0.101101  -0.000244  0.991839  0.0
H  H3  1  0.39745655  0.68926419  0.94278013  1  0.095627  0.101115  -0.000244  0.991959  0.0
H  H4  1  0.78845333  0.32098393  0.18718714  1  0.091434  0.091256  0.000112  1.019785  0.0
H  H5  1  0.21154934  0.67901730  0.81282698  1  0.09145  0.09127  0.000112  1.01974  0.0
H  H6  1  0.47663537  0.25383811  0.26701317  1  0.086972  0.122972  4.1e-05  1.046898  0.0
H  H7  1  0.52337414  0.74616307  0.73299958  1  0.08695  0.122929  4.1e-05  1.046773  0.0
H  H8  1  0.41540407  0.41881347  0.21946755  1  0.083895  0.115199  2.9e-05  1.019756  0.0
H  H9  1  0.58459469  0.58118890  0.78055730  1  0.083865  0.115187  2.9e-05  1.019694  0.0
H  H10  1  0.59818123  0.41626263  0.35318978  1  0.079502  0.103592  -5e-06  1.014614  0.0
H  H11  1  0.40182393  0.58373751  0.64682454  1  0.079504  0.103623  -5e-06  1.014763  0.0
H  H12  1  0.20524518  0.60244259  0.19231572  1  0.094047  0.131466  3.5e-05  1.037374  0.0
H  H13  1  0.79475880  0.39754575  0.80767900  1  0.0941  0.131534  3.6e-05  1.03731  0.0
H  H14  1  0.08089886  0.42695851  0.15438201  1  0.090248  0.124318  2.3e-05  1.027642  0.0
H  H15  1  0.91908859  0.57303525  0.84561231  1  0.09027  0.124348  2.3e-05  1.027591  0.0
H  H16  1  0.06635629  0.51870724  0.30967260  1  0.088757  0.120655  0.000135  1.008202  0.0
H  H17  1  0.93365161  0.48128642  0.69032568  1  0.088766  0.120678  0.000135  1.008202  0.0
H  H18  1  0.35969888  0.10891924  0.42111233  1  0.104629  0.095618  2e-06  1.031017  0.0
H  H19  1  0.64029390  0.89107981  0.57887663  1  0.104626  0.095608  2e-06  1.031118  0.0
H  H20  1  0.20321859  0.15506843  0.67771065  1  0.095655  0.097089  -0.000338  0.994059  0.0
H  H21  1  0.79679380  0.84492094  0.32228690  1  0.095608  0.097064  -0.000337  0.994148  0.0
H  H22  1  0.30527052  0.31921282  0.62778328  1  0.094118  0.08668  -0.000564  0.987341  0.0
H  H23  1  0.69472172  0.68078413  0.37221462  1  0.094108  0.086641  -0.000563  0.987477  0.0
H  H24  1  0.53255223  0.21476717  0.78503382  1  0.084684  0.121308  7.6e-05  1.031995  0.0
H  H25  1  0.46746841  0.78524025  0.21495605  1  0.084658  0.121262  7.6e-05  1.032181  0.0
H  H26  1  0.60918374  0.22469483  0.62190620  1  0.081408  0.109296  4.2e-05  1.018519  0.0
H  H27  1  0.39081724  0.77531585  0.37806883  1  0.081491  0.109417  4.2e-05  1.0184  0.0
H  H28  1  0.50270989  0.05983863  0.67780395  1  0.084398  0.119717  7.5e-05  1.017629  0.0
H  H29  1  0.49730913  0.94016130  0.32217546  1  0.084352  0.119653  7.4e-05  1.017649  0.0
H  H30  1  0.81125806  0.20176726  0.38684194  1  0.097031  0.140561  6.4e-05  1.014484  0.0
H  H31  1  0.18873539  0.79823502  0.61315624  1  0.097056  0.140593  6.4e-05  1.01456  0.0
H  H32  1  0.97937780  0.32885457  0.49074753  1  0.089054  0.116782  0.000141  1.012885  0.0
H  H33  1  0.02062958  0.67114867  0.50924396  1  0.089047  0.116783  0.00014  1.012867  0.0
H  H34  1  0.90527406  0.15953315  0.55073762  1  0.091738  0.124941  8e-05  1.016925  0.0
H  H35  1  0.09473395  0.84048504  0.44925743  1  0.091702  0.124906  8e-05  1.016781  0.0
Ru  Ru36  1  0.15646329  0.99517816  0.00365132  1  0.736658  0.838517  1.402793  3.899501  1.298
Ru  Ru37  1  0.84354626  0.00482299  0.99635339  1  0.736635  0.838449  1.402643  3.899203  1.298
C  C38  1  0.94501298  0.73895424  0.08811416  1  0.212655  0.515907  -0.012486  4.134932  -0.007
C  C39  1  0.05497945  0.26104382  0.91189386  1  0.212655  0.51593  -0.012486  4.134944  -0.007
C  C40  1  0.91183601  0.59326167  0.13609000  1  -0.028219  -0.01292  0.001132  3.955411  0.002
C  C41  1  0.08815624  0.40673528  0.86390689  1  -0.028213  -0.012895  0.001132  3.955394  0.002
C  C42  1  0.73574474  0.52227977  0.11616856  1  -0.064977  -0.055373  -0.009438  3.840956  -0.005
C  C43  1  0.26424945  0.47771402  0.88383949  1  -0.065028  -0.055402  -0.009437  3.841128  -0.005
C  C44  1  0.67176010  0.37357685  0.15036380  1  -0.16893  -0.119191  0.00018  3.996884  0.001
C  C45  1  0.32822816  0.62642128  0.84965690  1  -0.168943  -0.119259  0.00018  3.996613  0.001
C  C46  1  0.53286941  0.36546173  0.25393379  1  -0.245059  -0.350202  -0.000376  3.924258  0.0
C  C47  1  0.46712779  0.63453953  0.74608183  1  -0.245039  -0.350163  -0.000376  3.92392  0.0
C  C48  1  0.07502918  0.53207489  0.20099048  1  -0.241585  -0.388652  -0.000101  3.974879  0.0
C  C49  1  0.92496693  0.46792096  0.79900474  1  -0.241642  -0.38874  -0.000101  3.974917  0.0
C  C50  1  0.05963094  0.10344759  0.25618453  1  0.212725  0.514947  -0.012542  4.141466  -0.007
C  C51  1  0.94035917  0.89654621  0.74382111  1  0.212837  0.515183  -0.012537  4.141304  -0.007
C  C52  1  0.09104955  0.15812815  0.39936148  1  -0.031319  -0.021276  0.001336  3.971767  0.002
C  C53  1  0.90893941  0.84187843  0.60063642  1  -0.031356  -0.021438  0.001334  3.972008  0.002
C  C54  1  0.25711061  0.15354199  0.47223178  1  -0.063209  -0.055796  -0.010456  3.827767  -0.006
C  C55  1  0.74287478  0.84645502  0.52777050  1  -0.06311  -0.055585  -0.01045  3.827625  -0.006
C  C56  1  0.31014621  0.20396062  0.61762787  1  -0.161585  -0.098526  -1e-06  3.992536  0.0
C  C57  1  0.68985247  0.79603410  0.38235447  1  -0.161621  -0.098567  -0.0  3.992592  0.0
C  C58  1  0.49929256  0.17471109  0.67851961  1  -0.248972  -0.359872  0.000326  3.941966  0.0
C  C59  1  0.50071970  0.82529528  0.32146239  1  -0.249015  -0.359917  0.000325  3.942104  0.0
C  C60  1  0.93786899  0.21480936  0.45938209  1  -0.238756  -0.385129  -3e-06  3.96933  0.0
C  C61  1  0.06213515  0.78519825  0.54062936  1  -0.238739  -0.385137  -3e-06  3.969409  0.0
Cl  Cl62  1  0.50000297  0.99999646  0.99999843  1  -0.245244  -0.414396  0.06504  1.356156  0.056
O  O63  1  0.11157710  0.79550469  0.07234688  1  -0.291519  -0.4478  0.026046  2.447234  0.028
O  O64  1  0.88842019  0.20449651  0.92765365  1  -0.291521  -0.447783  0.026046  2.447347  0.028
O  O65  1  0.19398021  0.19544511  0.93850697  1  -0.299755  -0.467274  0.02759  2.49565  0.031
O  O66  1  0.80601010  0.80454331  0.06148946  1  -0.299781  -0.467252  0.027585  2.495515  0.031
O  O67  1  0.19764485  0.07329728  0.19914379  1  -0.297765  -0.465296  0.028522  2.503944  0.031
O  O68  1  0.80234570  0.92670391  0.80084302  1  -0.297822  -0.465387  0.028502  2.5038  0.031
O  O69  1  0.10627733  0.91345135  0.80791685  1  -0.295565  -0.455463  0.025273  2.465978  0.027
O  O70  1  0.89371680  0.08655416  0.19208855  1  -0.29556  -0.455386  0.02528  2.465999  0.027
