# generated using pymatgen
data_ZnH20C26(NO2)2
_symmetry_space_group_name_H-M   'P 1'
_cell_length_a   9.91338796
_cell_length_b   10.35899950
_cell_length_c   11.84800000
_cell_angle_alpha   92.20496889
_cell_angle_beta   98.49476960
_cell_angle_gamma   95.26028102
_symmetry_Int_Tables_number   1
_chemical_formula_structural   ZnH20C26(NO2)2
_chemical_formula_sum   'Zn2 H40 C52 N4 O8'
_cell_volume   1196.61554384
_cell_formula_units_Z   2
loop_
 _symmetry_equiv_pos_site_id
 _symmetry_equiv_pos_as_xyz
  1  'x, y, z'
loop_
 _atom_site_type_symbol
 _atom_site_label
 _atom_site_symmetry_multiplicity
 _atom_site_fract_x
 _atom_site_fract_y
 _atom_site_fract_z
 _atom_site_occupancy
 _atom_site_pbe_bader_charge
 _atom_site_pbe_bader_spin_density
 _atom_site_pbe_cm5_charge
 _atom_site_pbe_ddec_charge
 _atom_site_pbe_ddec_spin_density
 _atom_site_pbe_ddec_sum_bond_order
 _atom_site_pbe_magmom
Zn  Zn0  1  0.64676392  0.92876262  0.58854861  1  1.314529  0  0.690996  0.829923  0  2.331586  0
Zn  Zn1  1  0.35323488  0.07123889  0.41145163  1  1.314526  0  0.691031  0.82996  0  2.331585  0
H  H2  1  0.91254700  0.55390196  0.82941531  1  0.088434  0  0.09778  0.094436  0  1.033392  0
H  H3  1  0.08745159  0.44609760  0.17058146  1  0.088464  0  0.097783  0.094442  0  1.033423  0
H  H4  1  0.11639285  0.54044984  0.98130110  1  0.036994  0  0.096974  0.095592  0  1.024431  0
H  H5  1  0.88360564  0.45954876  0.01869479  1  0.037032  0  0.096991  0.095593  0  1.024407  0
H  H6  1  0.25593091  0.74247344  0.06357381  1  0.074661  0  0.098063  0.0947  0  1.023207  0
H  H7  1  0.74406758  0.25752515  0.93642461  1  0.074599  0  0.098054  0.094687  0  1.023254  0
H  H8  1  0.19327327  0.95780938  0.99587360  1  0.082693  0  0.097212  0.097347  0  1.02648  0
H  H9  1  0.80672114  0.04218921  0.00412515  1  0.082643  0  0.097271  0.097435  0  1.026434  0
H  H10  1  0.99022682  0.96808220  0.84567616  1  0.085781  0  0.100815  0.104583  0  1.018342  0
H  H11  1  0.00977075  0.03191737  0.15432302  1  0.085804  0  0.100779  0.104509  0  1.018335  0
H  H12  1  0.57815389  0.09071181  0.86494097  1  0.089958  0  0.102824  0.103923  0  1.020411  0
H  H13  1  0.42184990  0.90928873  0.13505985  1  0.089996  0  0.102809  0.103915  0  1.020394  0
H  H14  1  0.52745218  0.15366507  0.05829116  1  0.046301  0  0.096731  0.090606  0  1.033632  0
H  H15  1  0.47254836  0.84633352  0.94170920  1  0.046327  0  0.096745  0.090637  0  1.033623  0
H  H16  1  0.30350372  0.23566120  0.07911161  1  0.101822  0  0.100221  0.100162  0  1.026038  0
H  H17  1  0.69649885  0.76433740  0.92088815  1  0.10184  0  0.100203  0.100114  0  1.026037  0
H  H18  1  0.12987393  0.25234506  0.90688816  1  0.061423  0  0.096275  0.092444  0  1.023012  0
H  H19  1  0.87012558  0.74765354  0.09311292  1  0.061421  0  0.096276  0.092439  0  1.023013  0
H  H20  1  0.18548405  0.19422143  0.71313307  1  0.117489  0  0.095575  0.092775  0  1.062499  0
H  H21  1  0.81451760  0.80577813  0.28686830  1  0.117337  0  0.095584  0.092796  0  1.062433  0
H  H22  1  0.51053092  0.68361688  0.45478311  1  0.109954  0  0.119057  0.091704  0  0.998321  0
H  H23  1  0.48947001  0.31638560  0.54521743  1  0.109946  0  0.119009  0.091635  0  0.998351  0
H  H24  1  0.32567040  0.50902077  0.46553972  1  0.131198  0  0.112713  0.133733  0  1.017448  0
H  H25  1  0.67433237  0.49097976  0.53446098  1  0.131231  0  0.112712  0.133737  0  1.01744  0
H  H26  1  0.26053569  0.70108027  0.78206348  1  0.098067  0  0.103198  0.111249  0  1.032925  0
H  H27  1  0.73946698  0.29891929  0.21793802  1  0.098065  0  0.103204  0.111272  0  1.032885  0
H  H28  1  0.44690088  0.87047201  0.75402541  1  0.081988  0  0.114334  0.081083  0  1.026651  0
H  H29  1  0.55310098  0.12952949  0.24597521  1  0.082014  0  0.114346  0.081096  0  1.026613  0
H  H30  1  0.11663118  0.50665498  0.71624538  1  0.047381  0  0.101469  0.099168  0  1.02562  0
H  H31  1  0.88337057  0.49334556  0.28375435  1  0.047361  0  0.101459  0.099201  0  1.025556  0
H  H32  1  0.16418927  0.38178427  0.48570232  1  0.124139  0  0.106272  0.116974  0  1.043184  0
H  H33  1  0.83581136  0.61821530  0.51429724  1  0.124141  0  0.106267  0.116981  0  1.043166  0
H  H34  1  0.03432711  0.19278176  0.41460610  1  0.123  0  0.110106  0.121178  0  1.025494  0
H  H35  1  0.96567179  0.80722072  0.58539250  1  0.123028  0  0.110129  0.121229  0  1.025473  0
H  H36  1  0.84492929  0.01943603  0.42364688  1  0.117214  0  0.115291  0.088962  0  1.024875  0
H  H37  1  0.15507155  0.98056548  0.57635361  1  0.117232  0  0.115297  0.088958  0  1.024863  0
H  H38  1  0.75786767  0.18215073  0.72503601  1  0.100619  0  0.117044  0.091127  0  1.007498  0
H  H39  1  0.24213296  0.81784884  0.27496524  1  0.100619  0  0.117043  0.091096  0  1.007497  0
H  H40  1  0.94071048  0.36391217  0.72906848  1  0.054906  0  0.107687  0.113167  0  1.013838  0
H  H41  1  0.05928995  0.63608545  0.27093183  1  0.054663  0  0.107675  0.113149  0  1.01386  0
C  C42  1  0.81942256  0.76611393  0.73504473  1  1.57685  0  0.192521  0.555062  0  4.268698  0
C  C43  1  0.18057614  0.23388661  0.26495462  1  1.576981  0  0.192488  0.554907  0  4.268709  0
C  C44  1  0.94017409  0.76114644  0.82872876  1  -0.000234  0  -0.021718  -0.039116  0  3.973142  0
C  C45  1  0.05982257  0.23885410  0.17126949  1  -0.000177  0  -0.02172  -0.039129  0  3.97309  0
C  C46  1  0.97587422  0.64092092  0.86731691  1  -0.078564  0  -0.092765  -0.115659  0  4.014736  0
C  C47  1  0.02412346  0.35907962  0.13268062  1  -0.07868  0  -0.092753  -0.115666  0  4.014626  0
C  C48  1  0.08873164  0.63425650  0.95180332  1  -0.063037  0  -0.100945  -0.104342  0  4.045762  0
C  C49  1  0.91126563  0.36574015  0.04819319  1  -0.063189  0  -0.10096  -0.104293  0  4.045743  0
C  C50  1  0.16713952  0.74818358  0.99832482  1  -0.041154  0  -0.095413  -0.091843  0  4.02203  0
C  C51  1  0.83285592  0.25181501  0.00167238  1  -0.040548  0  -0.095417  -0.091847  0  4.022228  0
C  C52  1  0.13241394  0.86859064  0.96020083  1  -0.103093  0  -0.093086  -0.084517  0  4.004691  0
C  C53  1  0.86758149  0.13140796  0.03979721  1  -0.103562  0  -0.093195  -0.08469  0  4.004714  0
C  C54  1  0.01911869  0.87500557  0.87597121  1  -0.075589  0  -0.086175  -0.093987  0  3.95934  0
C  C55  1  0.98087796  0.12499497  0.12402788  1  -0.075559  0  -0.086115  -0.093858  0  3.959216  0
C  C56  1  0.42173735  0.10878777  0.66197747  1  1.564718  0  0.216042  0.579832  0  4.201359  0
C  C57  1  0.57826542  0.89121277  0.33802239  1  1.564175  0  0.216126  0.579988  0  4.201126  0
C  C58  1  0.38614405  0.14175649  0.77758915  1  -0.040996  0  -0.026924  -0.054251  0  3.993451  0
C  C59  1  0.61385903  0.85824696  0.22241169  1  -0.041044  0  -0.026898  -0.054329  0  3.99343  0
C  C60  1  0.48145866  0.12861113  0.87532710  1  -0.094399  0  -0.089455  -0.105625  0  3.993712  0
C  C61  1  0.51854411  0.87138940  0.12467444  1  -0.094399  0  -0.08939  -0.105501  0  3.993713  0
C  C62  1  0.45201231  0.16316709  0.98313866  1  5.1e-05  0  -0.094655  -0.090319  0  4.022987  0
C  C63  1  0.54798740  0.83683345  0.01686250  1  0.000275  0  -0.094736  -0.090472  0  4.02314  0
C  C64  1  0.32626339  0.20908701  0.99463051  1  -0.093704  0  -0.085241  -0.0695  0  3.979442  0
C  C65  1  0.67373704  0.79091061  0.00537065  1  -0.093879  0  -0.085174  -0.06936  0  3.979295  0
C  C66  1  0.22918846  0.21906568  0.89766315  1  -0.012804  0  -0.092488  -0.085059  0  3.999822  0
C  C67  1  0.77081309  0.78093291  0.10233902  1  -0.01284  0  -0.092555  -0.085168  0  3.99993  0
C  C68  1  0.25923564  0.18597173  0.78953277  1  -0.104003  0  -0.08713  -0.090461  0  3.966386  0
C  C69  1  0.74076612  0.81402881  0.21046781  1  -0.103882  0  -0.087125  -0.090397  0  3.966429  0
C  C70  1  0.45145132  0.68407412  0.52527317  1  0.446608  0  0.047948  0.103778  0  3.955315  0
C  C71  1  0.54855063  0.31592836  0.47472749  1  0.4466  0  0.047924  0.103783  0  3.955441  0
C  C72  1  0.34870964  0.58623483  0.53274117  1  -0.034118  0  -0.0775  -0.174266  0  3.891193  0
C  C73  1  0.65129211  0.41376571  0.46725941  1  -0.034204  0  -0.07748  -0.174253  0  3.891207  0
C  C74  1  0.27537730  0.58958208  0.62596082  1  -0.015293  0  0.011476  0.157042  0  4.008055  0
C  C75  1  0.72462353  0.41041942  0.37403967  1  -0.015289  0  0.011486  0.15707  0  4.008007  0
C  C76  1  0.31350174  0.69336547  0.70800360  1  -0.015169  0  -0.083951  -0.179149  0  3.924415  0
C  C77  1  0.68649900  0.30663507  0.29199685  1  -0.014817  0  -0.083955  -0.179209  0  3.92438  0
C  C78  1  0.41695379  0.78782644  0.69301651  1  0.493602  0  0.043045  0.095851  0  3.95452  0
C  C79  1  0.58304603  0.21217507  0.30698385  1  0.493269  0  0.043048  0.095894  0  3.954544  0
C  C80  1  0.16341985  0.49311839  0.63925535  1  -0.073254  0  -0.079523  -0.11386  0  3.936192  0
C  C81  1  0.83658190  0.50688214  0.36074438  1  -0.073263  0  -0.079496  -0.113874  0  3.936148  0
C  C82  1  0.11637745  0.39353461  0.56247204  1  0.03403  0  -0.074372  -0.108345  0  3.932332  0
C  C83  1  0.88362430  0.60646592  0.43752684  1  0.033889  0  -0.074424  -0.108466  0  3.932419  0
C  C84  1  0.00498055  0.29475270  0.57079838  1  0.008356  0  0.009678  0.146249  0  4.019608  0
C  C85  1  0.99502121  0.70524784  0.42920219  1  0.008533  0  0.009699  0.146349  0  4.019506  0
C  C86  1  0.97482737  0.19484953  0.48468458  1  -0.085331  0  -0.078349  -0.164907  0  3.911614  0
C  C87  1  0.02517316  0.80514907  0.51531577  1  -0.085366  0  -0.078334  -0.164921  0  3.911594  0
C  C88  1  0.86987498  0.09799558  0.48920570  1  0.471016  0  0.043483  0.087117  0  3.969178  0
C  C89  1  0.13012667  0.90200398  0.51079398  1  0.470961  0  0.04343  0.087008  0  3.969137  0
C  C90  1  0.82206179  0.18886757  0.65798694  1  0.453436  0  0.046089  0.09511  0  3.94943  0
C  C91  1  0.17793884  0.81113200  0.34201177  1  0.453366  0  0.046145  0.095194  0  3.949345  0
C  C92  1  0.92461753  0.28962600  0.65951803  1  -0.010866  0  -0.079408  -0.171382  0  3.920429  0
C  C93  1  0.07538422  0.71037454  0.34048086  1  -0.010625  0  -0.079443  -0.171461  0  3.920451  0
N  N94  1  0.48471456  0.78488400  0.60274524  1  -1.238597  0  -0.324348  -0.239439  0  3.556684  0
N  N95  1  0.51528638  0.21511848  0.39725530  1  -1.238559  0  -0.324314  -0.239436  0  3.556795  0
N  N96  1  0.79366966  0.09412702  0.57410132  1  -1.204559  0  -0.319666  -0.225717  0  3.504291  0
N  N97  1  0.20633107  0.90587352  0.42589744  1  -1.204447  0  -0.319679  -0.225631  0  3.504185  0
O  O98  1  0.78124180  0.88136613  0.71999095  1  -1.179861  0  -0.342306  -0.578558  0  2.342523  0
O  O99  1  0.21875578  0.11863344  0.28000992  1  -1.179871  0  -0.342313  -0.578514  0  2.342473  0
O  O100  1  0.76844627  0.66395078  0.67874263  1  -1.190509  0  -0.336539  -0.563507  0  2.128391  0
O  O101  1  0.23155049  0.33605073  0.32125314  1  -1.190581  0  -0.33649  -0.56339  0  2.128407  0
O  O102  1  0.33496251  0.12936543  0.57494831  1  -1.173973  0  -0.310594  -0.540851  0  2.358341  0
O  O103  1  0.66503904  0.87063316  0.42505217  1  -1.173481  0  -0.310637  -0.540931  0  2.358247  0
O  O104  1  0.53630533  0.06471621  0.65819269  1  -1.208122  0  -0.318362  -0.580207  0  2.438371  0
O  O105  1  0.46369857  0.93528530  0.34181071  1  -1.208067  0  -0.318413  -0.580288  0  2.438252  0
