# generated using pymatgen
data_ZnH10C12N3O4
_symmetry_space_group_name_H-M   'P 1'
_cell_length_a   6.92833486
_cell_length_b   13.27656567
_cell_length_c   15.30140767
_cell_angle_alpha   112.93144092
_cell_angle_beta   90.02698986
_cell_angle_gamma   105.12801360
_symmetry_Int_Tables_number   1
_chemical_formula_structural   ZnH10C12N3O4
_chemical_formula_sum   'Zn4 H40 C48 N12 O16'
_cell_volume   1243.05086036
_cell_formula_units_Z   4
loop_
 _symmetry_equiv_pos_site_id
 _symmetry_equiv_pos_as_xyz
  1  'x, y, z'
loop_
 _atom_site_type_symbol
 _atom_site_label
 _atom_site_symmetry_multiplicity
 _atom_site_fract_x
 _atom_site_fract_y
 _atom_site_fract_z
 _atom_site_occupancy
 _atom_site_hle17_bader_spin_density
 _atom_site_hle17_ddec_charge
 _atom_site_hle17_ddec_spin_density
 _atom_site_hle17_ddec_sum_bond_order
 _atom_site_hle17_magmom
 _atom_site_hse06_10hf_bader_spin_density
 _atom_site_hse06_10hf_ddec_charge
 _atom_site_hse06_10hf_ddec_spin_density
 _atom_site_hse06_10hf_ddec_sum_bond_order
 _atom_site_hse06_10hf_magmom
 _atom_site_hse06_bader_spin_density
 _atom_site_hse06_ddec_charge
 _atom_site_hse06_ddec_spin_density
 _atom_site_hse06_ddec_sum_bond_order
 _atom_site_hse06_magmom
 _atom_site_pbe_bader_spin_density
 _atom_site_pbe_cm5_charge
 _atom_site_pbe_ddec_charge
 _atom_site_pbe_ddec_spin_density
 _atom_site_pbe_ddec_sum_bond_order
 _atom_site_pbe_magmom
Zn  Zn0  1  0.99254367  0.65207286  0.76984921  1  0  1.003006  0  1.872009  0  0  0.818643  0  2.340955  0  0  0.864355  0  2.288402  0  0  0.710217  0.786808  0  2.377029  0
Zn  Zn1  1  0.34001672  0.34781835  0.73006508  1  0  1.002809  0  1.872414  0  0  0.81904  0  2.341645  0  0  0.86468  0  2.289155  0  0  0.71056  0.78727  0  2.377669  0
Zn  Zn2  1  0.00747396  0.34793277  0.23014781  1  0  1.002915  0  1.8721  0  0  0.818612  0  2.341036  0  0  0.864322  0  2.288478  0  0  0.710168  0.786774  0  2.377108  0
Zn  Zn3  1  0.65997504  0.65217884  0.26993570  1  0  1.002762  0  1.872489  0  0  0.818962  0  2.341752  0  0  0.864604  0  2.28926  0  0  0.710488  0.787188  0  2.377772  0
H  H4  1  0.69038942  0.79165639  0.87113573  1  0  0.301585  0  0.929314  0  0  0.277358  0  0.999485  0  0  0.287518  0  0.991005  0  0  0.30959  0.270144  0  1.005581  0
H  H5  1  0.89793800  0.20818548  0.62891963  1  0  0.299929  0  0.930748  0  0  0.275946  0  1.000631  0  0  0.286075  0  0.992259  0  0  0.309317  0.268687  0  1.006724  0
H  H6  1  0.30961231  0.20833476  0.12885783  1  0  0.301631  0  0.929298  0  0  0.277381  0  0.999441  0  0  0.287558  0  0.99096  0  0  0.309599  0.270165  0  1.00554  0
H  H7  1  0.10204630  0.79180832  0.37108068  1  0  0.299943  0  0.930733  0  0  0.275865  0  1.000741  0  0  0.286046  0  0.992288  0  0  0.309293  0.268605  0  1.006839  0
H  H8  1  0.68932642  0.54411027  0.03489952  1  0  0.127152  0  0.969485  0  0  0.131951  0  1.035594  0  0  0.136184  0  1.032968  0  0  0.11263  0.128868  0  1.037621  0
H  H9  1  0.14549764  0.45628153  0.46509740  1  0  0.127043  0  0.97022  0  0  0.131928  0  1.036149  0  0  0.136198  0  1.033504  0  0  0.112245  0.128817  0  1.038199  0
H  H10  1  0.31065953  0.45590128  0.96509619  1  0  0.127154  0  0.969514  0  0  0.131907  0  1.035685  0  0  0.136138  0  1.03306  0  0  0.112601  0.128826  0  1.037712  0
H  H11  1  0.85451056  0.54372254  0.53490891  1  0  0.127019  0  0.970176  0  0  0.131894  0  1.036118  0  0  0.136165  0  1.033473  0  0  0.112231  0.128787  0  1.038162  0
H  H12  1  0.01304396  0.63202094  0.14410589  1  0  0.112164  0  0.934984  0  0  0.121958  0  0.992875  0  0  0.1253  0  0.99084  0  0  0.113932  0.119509  0  0.994471  0
H  H13  1  0.38117192  0.36833014  0.35592673  1  0  0.112295  0  0.934065  0  0  0.122072  0  0.992224  0  0  0.12539  0  0.990204  0  0  0.113621  0.119613  0  0.993807  0
H  H14  1  0.98695551  0.36798300  0.85589188  1  0  0.112132  0  0.935214  0  0  0.121923  0  0.993158  0  0  0.125263  0  0.991126  0  0  0.113942  0.119477  0  0.994756  0
H  H15  1  0.61881945  0.63166625  0.64407705  1  0  0.112247  0  0.93396  0  0  0.122047  0  0.992119  0  0  0.125376  0  0.990089  0  0  0.113622  0.119588  0  0.993703  0
H  H16  1  0.32795552  0.71537672  0.08645006  1  0  0.114253  0  0.963222  0  0  0.124347  0  1.025302  0  0  0.127754  0  1.023347  0  0  0.114351  0.121849  0  1.02687  0
H  H17  1  0.61227478  0.28469453  0.41360674  1  0  0.116002  0  0.962082  0  0  0.126174  0  1.023965  0  0  0.129589  0  1.021994  0  0  0.114927  0.123646  0  1.025584  0
H  H18  1  0.67204775  0.28462038  0.91354415  1  0  0.114254  0  0.963204  0  0  0.124337  0  1.025306  0  0  0.127746  0  1.023351  0  0  0.114349  0.121839  0  1.026881  0
H  H19  1  0.38771960  0.71529924  0.58639160  1  0  0.115968  0  0.9622  0  0  0.126145  0  1.024074  0  0  0.129556  0  1.022098  0  0  0.114928  0.123622  0  1.025689  0
H  H20  1  0.11089821  0.74712600  0.62022784  1  0  0.121398  0  0.962131  0  0  0.138983  0  1.030685  0  0  0.140999  0  1.029288  0  0  0.096391  0.137505  0  1.031771  0
H  H21  1  0.36352250  0.25308559  0.88001424  1  0  0.121246  0  0.961821  0  0  0.138955  0  1.030083  0  0  0.14094  0  1.028716  0  0  0.096687  0.137488  0  1.031153  0
H  H22  1  0.88910768  0.25287634  0.37977659  1  0  0.121331  0  0.962228  0  0  0.138905  0  1.03077  0  0  0.14092  0  1.029376  0  0  0.096373  0.137429  0  1.031851  0
H  H23  1  0.63647577  0.74691595  0.11999319  1  0  0.121294  0  0.961696  0  0  0.138944  0  1.030027  0  0  0.140947  0  1.028638  0  0  0.096679  0.137469  0  1.031106  0
H  H24  1  0.29507041  0.86799164  0.70270881  1  0  0.116622  0  0.946172  0  0  0.137969  0  1.007431  0  0  0.139507  0  1.006978  0  0  0.095727  0.136887  0  1.007717  0
H  H25  1  0.42658232  0.13211484  0.79761846  1  0  0.117107  0  0.944864  0  0  0.138027  0  1.006626  0  0  0.139544  0  1.006189  0  0  0.095897  0.13694  0  1.006933  0
H  H26  1  0.70494657  0.13200980  0.29729140  1  0  0.116598  0  0.94607  0  0  0.137926  0  1.007384  0  0  0.139462  0  1.006934  0  0  0.095694  0.136843  0  1.007672  0
H  H27  1  0.57341464  0.86788409  0.20238419  1  0  0.11715  0  0.944912  0  0  0.138061  0  1.006663  0  0  0.139578  0  1.006227  0  0  0.095912  0.136974  0  1.006969  0
H  H28  1  0.14177964  0.88196460  0.61726147  1  0  0.131688  0  0.93322  0  0  0.15218  0  0.989754  0  0  0.154429  0  0.988782  0  0  0.098859  0.150559  0  0.990467  0
H  H29  1  0.25936713  0.11829123  0.88306973  1  0  0.131776  0  0.932597  0  0  0.152248  0  0.989133  0  0  0.154476  0  0.988188  0  0  0.098573  0.150618  0  0.98986  0
H  H30  1  0.85822785  0.11803517  0.38274081  1  0  0.131727  0  0.93316  0  0  0.152169  0  0.989747  0  0  0.154418  0  0.988775  0  0  0.09884  0.15055  0  0.990458  0
H  H31  1  0.74062883  0.88170857  0.11693517  1  0  0.131784  0  0.932682  0  0  0.152239  0  0.989225  0  0  0.154466  0  0.988282  0  0  0.098576  0.150611  0  0.989948  0
H  H32  1  0.62827083  0.99164944  0.95435417  1  0  0.127053  0  0.937355  0  0  0.148298  0  0.993465  0  0  0.150372  0  0.992444  0  0  0.101304  0.146794  0  0.99421  0
H  H33  1  0.63640046  0.00781798  0.54553419  1  0  0.127044  0  0.937983  0  0  0.148273  0  0.994085  0  0  0.150338  0  0.993079  0  0  0.101856  0.146779  0  0.994814  0
H  H34  1  0.37172209  0.00834430  0.04564220  1  0  0.127046  0  0.937412  0  0  0.148297  0  0.993501  0  0  0.150374  0  0.992479  0  0  0.101323  0.14678  0  0.994263  0
H  H35  1  0.36359955  0.99217839  0.45446762  1  0  0.127039  0  0.937973  0  0  0.148246  0  0.994111  0  0  0.150309  0  0.993106  0  0  0.101852  0.146754  0  0.994839  0
H  H36  1  0.48293315  0.96587853  0.84879348  1  0  0.123299  0  0.944254  0  0  0.143328  0  1.0059  0  0  0.145266  0  1.00513  0  0  0.098239  0.141918  0  1.006459  0
H  H37  1  0.51658213  0.03392685  0.65094920  1  0  0.124485  0  0.942493  0  0  0.14426  0  1.004302  0  0  0.1462  0  1.003528  0  0  0.098925  0.142883  0  1.004824  0
H  H38  1  0.51706970  0.03411775  0.15120242  1  0  0.123329  0  0.944221  0  0  0.143347  0  1.005877  0  0  0.145305  0  1.00509  0  0  0.098242  0.141954  0  1.006417  0
H  H39  1  0.48341312  0.96606865  0.34905102  1  0  0.124535  0  0.942451  0  0  0.144305  0  1.00427  0  0  0.146245  0  1.003494  0  0  0.098941  0.142927  0  1.004793  0
H  H40  1  0.69741265  0.08704852  0.89642544  1  0  0.113478  0  0.968945  0  0  0.131946  0  1.035112  0  0  0.132588  0  1.036648  0  0  0.092927  0.131465  0  1.034062  0
H  H41  1  0.60988084  0.91278247  0.60379115  1  0  0.113613  0  0.968976  0  0  0.132252  0  1.034928  0  0  0.132902  0  1.036468  0  0  0.092647  0.131752  0  1.033903  0
H  H42  1  0.30259097  0.91294353  0.10357102  1  0  0.11353  0  0.969  0  0  0.131979  0  1.035178  0  0  0.132622  0  1.036719  0  0  0.092928  0.131498  0  1.034128  0
H  H43  1  0.39011152  0.08721303  0.39620973  1  0  0.113579  0  0.969045  0  0  0.132249  0  1.034954  0  0  0.1329  0  1.036493  0  0  0.092651  0.13175  0  1.033924  0
C  C44  1  0.82831862  0.58772085  0.92305616  1  0  0.119209  0  3.718694  0  0  0.12098  0  3.956995  0  0  0.122256  0  3.975062  0  0  0.123385  0.119906  0  3.944993  0
C  C45  1  0.24033666  0.41225617  0.57681382  1  0  0.120518  0  3.716378  0  0  0.121429  0  3.95655  0  0  0.122554  0  3.974788  0  0  0.123223  0.120451  0  3.944433  0
C  C46  1  0.17170154  0.41228984  0.07693860  1  0  0.119526  0  3.718152  0  0  0.121351  0  3.956405  0  0  0.122628  0  3.974467  0  0  0.123452  0.120277  0  3.944401  0
C  C47  1  0.75966174  0.58774275  0.42318883  1  0  0.120599  0  3.716586  0  0  0.121566  0  3.956633  0  0  0.122693  0  3.974868  0  0  0.123292  0.120588  0  3.944515  0
C  C48  1  0.82697078  0.58501432  0.01320783  1  0  -0.098102  0  3.661941  0  0  -0.121167  0  3.91317  0  0  -0.124787  0  3.931903  0  0  -0.068311  -0.118788  0  3.900753  0
C  C49  1  0.24195326  0.41517924  0.48672586  1  0  -0.098249  0  3.658102  0  0  -0.120723  0  3.909253  0  0  -0.124326  0  3.928012  0  0  -0.066329  -0.118362  0  3.896819  0
C  C50  1  0.17303929  0.41499639  0.98678825  1  0  -0.098375  0  3.661814  0  0  -0.12138  0  3.913069  0  0  -0.124998  0  3.931796  0  0  -0.068362  -0.119002  0  3.900656  0
C  C51  1  0.75803759  0.58482477  0.51327650  1  0  -0.098287  0  3.658557  0  0  -0.120751  0  3.909674  0  0  -0.124357  0  3.928442  0  0  -0.066371  -0.11839  0  3.897234  0
C  C52  1  0.00779095  0.63451492  0.07377791  1  0  0.000765  0  3.668756  0  0  -0.018447  0  3.925473  0  0  -0.016645  0  3.943461  0  0  -0.059215  -0.019578  0  3.913344  0
C  C53  1  0.37324492  0.36571052  0.42620277  1  0  0.002029  0  3.666753  0  0  -0.017698  0  3.924108  0  0  -0.01589  0  3.942106  0  0  -0.059393  -0.018785  0  3.911919  0
C  C54  1  0.99222007  0.36549481  0.92620935  1  0  0.000898  0  3.668279  0  0  -0.018392  0  3.925059  0  0  -0.016584  0  3.943038  0  0  -0.059243  -0.019528  0  3.912939  0
C  C55  1  0.62676117  0.63429513  0.57379556  1  0  0.002082  0  3.667304  0  0  -0.017682  0  3.924651  0  0  -0.015886  0  3.942659  0  0  -0.059369  -0.018768  0  3.912464  0
C  C56  1  0.18405690  0.68190127  0.04242024  1  0  -0.097475  0  3.671599  0  0  -0.121519  0  3.92312  0  0  -0.124478  0  3.940899  0  0  -0.06665  -0.119598  0  3.911361  0
C  C57  1  0.50181009  0.31812271  0.45755466  1  0  -0.101542  0  3.672038  0  0  -0.12518  0  3.923784  0  0  -0.128098  0  3.941598  0  0  -0.067878  -0.123267  0  3.911985  0
C  C58  1  0.81594705  0.31810010  0.95757538  1  0  -0.097487  0  3.671494  0  0  -0.121507  0  3.92299  0  0  -0.124469  0  3.940772  0  0  -0.066684  -0.119585  0  3.911237  0
C  C59  1  0.49818417  0.68187371  0.54245043  1  0  -0.101334  0  3.672212  0  0  -0.124999  0  3.923925  0  0  -0.127902  0  3.941743  0  0  -0.06781  -0.123089  0  3.912125  0
C  C60  1  0.17338738  0.68321124  0.95177128  1  0  0.116453  0  3.711278  0  0  0.117082  0  3.948974  0  0  0.119115  0  3.966539  0  0  0.121086  0.115434  0  3.937352  0
C  C61  1  0.48962985  0.31666004  0.54815135  1  0  0.11625  0  3.71166  0  0  0.116622  0  3.950398  0  0  0.118499  0  3.96818  0  0  0.120462  0.115037  0  3.938692  0
C  C62  1  0.82662358  0.31679261  0.04821993  1  0  0.116302  0  3.711696  0  0  0.11704  0  3.949284  0  0  0.119072  0  3.96685  0  0  0.121112  0.11539  0  3.93766  0
C  C63  1  0.51036007  0.68333635  0.45185177  1  0  0.116202  0  3.711747  0  0  0.116644  0  3.950371  0  0  0.118496  0  3.968186  0  0  0.120537  0.115064  0  3.938666  0
C  C64  1  0.34962533  0.72779051  0.90423570  1  0  0.60862  0  3.93349  0  0  0.560375  0  4.232189  0  0  0.593271  0  4.225467  0  0  0.206806  0.538166  0  4.235904  0
C  C65  1  0.62104599  0.27190771  0.59569474  1  0  0.608031  0  3.931444  0  0  0.559767  0  4.23086  0  0  0.59267  0  4.224194  0  0  0.206018  0.53756  0  4.234527  0
C  C66  1  0.65038724  0.27221944  0.09576601  1  0  0.608396  0  3.933483  0  0  0.56018  0  4.232145  0  0  0.593076  0  4.225427  0  0  0.206592  0.53797  0  4.235858  0
C  C67  1  0.37894777  0.72809636  0.40431157  1  0  0.607888  0  3.931556  0  0  0.559584  0  4.230992  0  0  0.592491  0  4.224334  0  0  0.205853  0.537374  0  4.234661  0
C  C68  1  0.65644302  0.52858153  0.84328470  1  0  0.631587  0  3.87907  0  0  0.575763  0  4.177218  0  0  0.610409  0  4.169088  0  0  0.218927  0.552233  0  4.182059  0
C  C69  1  0.12765012  0.47128249  0.65651381  1  0  0.634539  0  3.878927  0  0  0.5789  0  4.176823  0  0  0.61361  0  4.168635  0  0  0.219466  0.555328  0  4.181709  0
C  C70  1  0.34356358  0.47143090  0.15671260  1  0  0.631544  0  3.879478  0  0  0.575745  0  4.17755  0  0  0.610392  0  4.169414  0  0  0.218888  0.552213  0  4.182393  0
C  C71  1  0.87235269  0.52872236  0.34348752  1  0  0.634491  0  3.87906  0  0  0.57887  0  4.176879  0  0  0.61358  0  4.168697  0  0  0.21945  0.555296  0  4.181761  0
C  C72  1  0.14263514  0.83844520  0.66499449  1  0  -0.357874  0  3.727763  0  0  -0.440338  0  3.975768  0  0  -0.443035  0  3.981205  0  0  -0.237738  -0.438268  0  3.971864  0
C  C73  1  0.30369502  0.16175460  0.83527993  1  0  -0.358435  0  3.727649  0  0  -0.440398  0  3.975945  0  0  -0.44303  0  3.981459  0  0  -0.23838  -0.438332  0  3.972024  0
C  C74  1  0.85737463  0.16155626  0.33500769  1  0  -0.35783  0  3.72771  0  0  -0.440247  0  3.97571  0  0  -0.442944  0  3.98115  0  0  -0.237676  -0.438179  0  3.971804  0
C  C75  1  0.69629933  0.83824775  0.16472450  1  0  -0.358483  0  3.72767  0  0  -0.440378  0  3.975987  0  0  -0.443021  0  3.981483  0  0  -0.238388  -0.438313  0  3.972072  0
C  C76  1  0.99038113  0.86014815  0.73292624  1  0  0.228522  0  3.769009  0  0  0.218746  0  4.039743  0  0  0.228813  0  4.058952  0  0  0.099553  0.212275  0  4.026404  0
C  C77  1  0.12973857  0.14004283  0.76732494  1  0  0.228186  0  3.7738  0  0  0.217519  0  4.044844  0  0  0.227595  0  4.064024  0  0  0.099101  0.211048  0  4.0315  0
C  C78  1  0.00962201  0.13985159  0.26707407  1  0  0.22849  0  3.768878  0  0  0.218777  0  4.039538  0  0  0.228843  0  4.05874  0  0  0.099594  0.212307  0  4.026199  0
C  C79  1  0.87024916  0.85995783  0.23268024  1  0  0.228225  0  3.773658  0  0  0.217534  0  4.044724  0  0  0.227608  0  4.063906  0  0  0.099148  0.211063  0  4.031379  0
C  C80  1  0.90318594  0.95148156  0.76370228  1  0  -0.15679  0  3.826756  0  0  -0.149311  0  4.075973  0  0  -0.158529  0  4.102831  0  0  -0.036467  -0.143427  0  4.057948  0
C  C81  1  0.95143360  0.04855672  0.73647558  1  0  -0.156401  0  3.828154  0  0  -0.147273  0  4.076435  0  0  -0.156509  0  4.103298  0  0  -0.035023  -0.141372  0  4.058407  0
C  C82  1  0.09683067  0.04851913  0.23630488  1  0  -0.156677  0  3.826517  0  0  -0.149196  0  4.075599  0  0  -0.158416  0  4.102448  0  0  -0.036421  -0.143315  0  4.057579  0
C  C83  1  0.04855979  0.95143795  0.26352632  1  0  -0.156396  0  3.828084  0  0  -0.1472  0  4.076263  0  0  -0.156435  0  4.103125  0  0  -0.034948  -0.141301  0  4.058238  0
C  C84  1  0.76912718  0.93037201  0.82751819  1  0  0.24233  0  3.710119  0  0  0.226213  0  3.979572  0  0  0.23743  0  3.996176  0  0  0.110881  0.218964  0  3.968072  0
C  C85  1  0.83828776  0.06955775  0.67258908  1  0  0.240264  0  3.711512  0  0  0.223318  0  3.981579  0  0  0.234603  0  3.998165  0  0  0.1084  0.216032  0  3.970074  0
C  C86  1  0.23086245  0.06962092  0.17248053  1  0  0.242422  0  3.710169  0  0  0.226283  0  3.979487  0  0  0.237539  0  3.996093  0  0  0.110886  0.219035  0  3.967988  0
C  C87  1  0.16170964  0.93044204  0.32741517  1  0  0.240403  0  3.711442  0  0  0.223419  0  3.981497  0  0  0.234705  0  3.998087  0  0  0.108458  0.216132  0  3.969993  0
C  C88  1  0.63732435  0.99730045  0.88477101  1  0  -0.351082  0  3.720167  0  0  -0.429649  0  3.961198  0  0  -0.432377  0  3.967278  0  0  -0.233122  -0.42752  0  3.956866  0
C  C89  1  0.63962354  0.00244003  0.61521515  1  0  -0.351467  0  3.71946  0  0  -0.429949  0  3.960989  0  0  -0.432684  0  3.967056  0  0  -0.233086  -0.427849  0  3.956639  0
C  C90  1  0.36267766  0.00269416  0.11522630  1  0  -0.351179  0  3.720126  0  0  -0.429759  0  3.961159  0  0  -0.432514  0  3.967221  0  0  -0.233148  -0.427635  0  3.956825  0
C  C91  1  0.36037314  0.99755546  0.38478507  1  0  -0.351571  0  3.719633  0  0  -0.430048  0  3.961181  0  0  -0.432779  0  3.967243  0  0  -0.233149  -0.427947  0  3.956828  0
N  N92  1  0.99688449  0.63906236  0.89673190  1  0  -0.350387  0  3.405802  0  0  -0.277208  0  3.660407  0  0  -0.292942  0  3.676037  0  0  -0.330391  -0.266524  0  3.65001  0
N  N93  1  0.35733605  0.36077369  0.60313059  1  0  -0.349408  0  3.404448  0  0  -0.276849  0  3.660627  0  0  -0.292465  0  3.676335  0  0  -0.330495  -0.266236  0  3.650196  0
N  N94  1  0.00312201  0.36094409  0.10326278  1  0  -0.350324  0  3.405306  0  0  -0.277278  0  3.659973  0  0  -0.293012  0  3.6756  0  0  -0.330317  -0.266589  0  3.64957  0
N  N95  1  0.64266323  0.63922698  0.39687526  1  0  -0.349558  0  3.404602  0  0  -0.277032  0  3.660762  0  0  -0.292638  0  3.676471  0  0  -0.330624  -0.26642  0  3.650328  0
N  N96  1  0.91261832  0.78824944  0.77462402  1  0  -0.315135  0  3.221872  0  0  -0.259838  0  3.527946  0  0  -0.276795  0  3.540487  0  0  -0.264619  -0.248389  0  3.519364  0
N  N97  1  0.12378390  0.21183119  0.72552895  1  0  -0.316605  0  3.223179  0  0  -0.261474  0  3.529588  0  0  -0.278362  0  3.542096  0  0  -0.264995  -0.250077  0  3.521015  0
N  N98  1  0.08739185  0.21175282  0.22537451  1  0  -0.315009  0  3.221817  0  0  -0.259864  0  3.527875  0  0  -0.276783  0  3.540425  0  0  -0.264635  -0.248414  0  3.519291  0
N  N99  1  0.87620483  0.78816860  0.27447464  1  0  -0.316543  0  3.223138  0  0  -0.261475  0  3.529606  0  0  -0.278362  0  3.542125  0  0  -0.265047  -0.250077  0  3.521027  0
N  N100  1  0.77993155  0.83251847  0.83208832  1  0  -0.193581  0  3.429942  0  0  -0.142714  0  3.669083  0  0  -0.155152  0  3.684551  0  0  -0.275281  -0.134551  0  3.658758  0
N  N101  1  0.94677144  0.16742788  0.66802536  1  0  -0.189256  0  3.429625  0  0  -0.137917  0  3.667962  0  0  -0.150442  0  3.683634  0  0  -0.273635  -0.129643  0  3.657526  0
N  N102  1  0.22006834  0.16747187  0.16790825  1  0  -0.193942  0  3.4304  0  0  -0.142854  0  3.669293  0  0  -0.155382  0  3.684829  0  0  -0.275377  -0.134689  0  3.658964  0
N  N103  1  0.05321952  0.83256769  0.33198010  1  0  -0.189411  0  3.429485  0  0  -0.137974  0  3.667865  0  0  -0.150535  0  3.683489  0  0  -0.273667  -0.1297  0  3.657427  0
O  O104  1  0.30412287  0.73222701  0.82518218  1  0  -0.624507  0  1.986521  0  0  -0.567142  0  2.23628  0  0  -0.594037  0  2.226185  0  0  -0.328715  -0.548342  0  2.242519  0
O  O105  1  0.57102650  0.26745162  0.67470679  1  0  -0.624296  0  1.986334  0  0  -0.566824  0  2.235765  0  0  -0.593677  0  2.225661  0  0  -0.327919  -0.54804  0  2.242002  0
O  O106  1  0.69590347  0.26777870  0.17482010  1  0  -0.624428  0  1.986316  0  0  -0.56711  0  2.236121  0  0  -0.593991  0  2.225995  0  0  -0.328659  -0.548307  0  2.24236  0
O  O107  1  0.42895636  0.73254219  0.32529483  1  0  -0.624282  0  1.986193  0  0  -0.566807  0  2.235652  0  0  -0.593655  0  2.225547  0  0  -0.327931  -0.548023  0  2.241891  0
O  O108  1  0.52538158  0.75544203  0.94488960  1  0  -0.595125  0  1.935879  0  0  -0.549986  0  2.153781  0  0  -0.574563  0  2.147897  0  0  -0.315903  -0.532776  0  2.157222  0
O  O109  1  0.76902981  0.24414635  0.55505288  1  0  -0.594591  0  1.934617  0  0  -0.549303  0  2.152364  0  0  -0.573848  0  2.146522  0  0  -0.315573  -0.532083  0  2.155778  0
O  O110  1  0.47463541  0.24455944  0.05511258  1  0  -0.594862  0  1.935865  0  0  -0.549814  0  2.153817  0  0  -0.574393  0  2.147934  0  0  -0.315774  -0.532606  0  2.157258  0
O  O111  1  0.23093918  0.75583127  0.44494406  1  0  -0.594464  0  1.934625  0  0  -0.549122  0  2.152367  0  0  -0.573686  0  2.146519  0  0  -0.31542  -0.531901  0  2.155783  0
O  O112  1  0.67698851  0.54883630  0.76942569  1  0  -0.592851  0  1.988346  0  0  -0.541083  0  2.242508  0  0  -0.565732  0  2.230621  0  0  -0.299946  -0.523978  0  2.250208  0
O  O113  1  0.12780622  0.45089430  0.73031343  1  0  -0.593867  0  1.987381  0  0  -0.542453  0  2.24238  0  0  -0.567117  0  2.23045  0  0  -0.300064  -0.525346  0  2.250122  0
O  O114  1  0.32301379  0.45116755  0.23056551  1  0  -0.592784  0  1.988734  0  0  -0.541063  0  2.242938  0  0  -0.565711  0  2.231047  0  0  -0.299872  -0.523958  0  2.250641  0
O  O115  1  0.87216881  0.54910118  0.26968613  1  0  -0.593852  0  1.987381  0  0  -0.542484  0  2.242417  0  0  -0.567144  0  2.230478  0  0  -0.300083  -0.525378  0  2.250157  0
O  O116  1  0.50530306  0.45583733  0.85405056  1  0  -0.606474  0  2.045812  0  0  -0.528337  0  2.3066  0  0  -0.557086  0  2.292801  0  0  -0.308554  -0.508194  0  2.315351  0
O  O117  1  0.04922134  0.54401543  0.64573872  1  0  -0.608858  0  2.047518  0  0  -0.53005  0  2.307671  0  0  -0.558808  0  2.293801  0  0  -0.309027  -0.509888  0  2.31645  0
O  O118  1  0.49470410  0.54417334  0.14594223  1  0  -0.606523  0  2.045855  0  0  -0.528298  0  2.306501  0  0  -0.557067  0  2.292749  0  0  -0.308523  -0.508156  0  2.315248  0
O  O119  1  0.95078118  0.45598596  0.35425886  1  0  -0.608821  0  2.047437  0  0  -0.530034  0  2.307577  0  0  -0.558792  0  2.293704  0  0  -0.309017  -0.509871  0  2.316354  0
