# generated using pymatgen
data_LaCuH8C14(NO4)2
_symmetry_space_group_name_H-M   'P 1'
_cell_length_a   9.32911186
_cell_length_b   11.37941852
_cell_length_c   17.48005506
_cell_angle_alpha   107.45681467
_cell_angle_beta   89.99853655
_cell_angle_gamma   114.18683272
_symmetry_Int_Tables_number   1
_chemical_formula_structural   LaCuH8C14(NO4)2
_chemical_formula_sum   'La4 Cu4 H32 C56 N8 O32'
_cell_volume   1598.63288907
_cell_formula_units_Z   4
loop_
 _symmetry_equiv_pos_site_id
 _symmetry_equiv_pos_as_xyz
  1  'x, y, z'
loop_
 _atom_site_type_symbol
 _atom_site_label
 _atom_site_symmetry_multiplicity
 _atom_site_fract_x
 _atom_site_fract_y
 _atom_site_fract_z
 _atom_site_occupancy
 _atom_site_hle17_bader_spin_density
 _atom_site_hle17_ddec_charge
 _atom_site_hle17_ddec_spin_density
 _atom_site_hle17_ddec_sum_bond_order
 _atom_site_hle17_magmom
 _atom_site_hse06_10hf_bader_spin_density
 _atom_site_hse06_10hf_ddec_charge
 _atom_site_hse06_10hf_ddec_spin_density
 _atom_site_hse06_10hf_ddec_sum_bond_order
 _atom_site_hse06_10hf_magmom
 _atom_site_hse06_bader_spin_density
 _atom_site_hse06_ddec_charge
 _atom_site_hse06_ddec_spin_density
 _atom_site_hse06_ddec_sum_bond_order
 _atom_site_hse06_magmom
 _atom_site_pbe_bader_spin_density
 _atom_site_pbe_cm5_charge
 _atom_site_pbe_ddec_charge
 _atom_site_pbe_ddec_spin_density
 _atom_site_pbe_ddec_sum_bond_order
 _atom_site_pbe_magmom
La  La0  1  0.30163199  0.96138523  0.92290322  1  0  2.065991  0  1.788137  0  0  1.950343  0  2.299378  0  0  2.051224  0  2.203362  0  0  1.380105  1.875235  0  2.365644  0
La  La1  1  0.34037189  0.03868062  0.57706828  1  0  2.065812  0  1.787403  0  0  1.950078  0  2.29865  0  0  2.050938  0  2.202697  0  0  1.37972  1.874624  0  2.365452  0
La  La2  1  0.69836601  0.03860140  0.07708920  1  0  2.065998  0  1.788062  0  0  1.950325  0  2.299322  0  0  2.051205  0  2.2033  0  0  1.380122  1.875237  0  2.365586  0
La  La3  1  0.65964839  0.96133987  0.42293611  1  0  2.065827  0  1.787302  0  0  1.950162  0  2.298473  0  0  2.051025  0  2.202505  0  0  1.379761  1.874759  0  2.365266  0
Cu  Cu4  1  0.24652896  0.33200627  0.13679710  1  0  0.493782  0  1.643141  0  0  0.35203  0  2.079716  0  0  0.361259  0  2.033363  0  0  0.547051  0.350402  0  2.108494  0
Cu  Cu5  1  0.91484146  0.66802212  0.36315698  1  0  0.493912  0  1.643202  0  0  0.351881  0  2.079993  0  0  0.361213  0  2.03349  0  0  0.547263  0.350318  0  2.108501  0
Cu  Cu6  1  0.75345012  0.66796827  0.86319710  1  0  0.493821  0  1.64318  0  0  0.352078  0  2.079771  0  0  0.361319  0  2.033439  0  0  0.547077  0.350467  0  2.10855  0
Cu  Cu7  1  0.08517501  0.33198215  0.63684728  1  0  0.493943  0  1.643053  0  0  0.351884  0  2.079889  0  0  0.361207  0  2.03338  0  0  0.547216  0.350336  0  2.108326  0
H  H8  1  0.61808061  0.19681969  0.77993127  1  0  0.122963  0  0.959134  0  0  0.130321  0  1.02301  0  0  0.133611  0  1.021831  0  0  0.117638  0.127887  0  1.024136  0
H  H9  1  0.42119461  0.80272911  0.71983741  1  0  0.123198  0  0.959302  0  0  0.130318  0  1.023265  0  0  0.133566  0  1.022132  0  0  0.117858  0.127895  0  1.024369  0
H  H10  1  0.38193607  0.80319573  0.22007333  1  0  0.12294  0  0.959139  0  0  0.13034  0  1.022937  0  0  0.133629  0  1.021759  0  0  0.117593  0.127907  0  1.024067  0
H  H11  1  0.57880262  0.19727314  0.28016705  1  0  0.123169  0  0.959143  0  0  0.130242  0  1.023192  0  0  0.133491  0  1.022058  0  0  0.11779  0.127821  0  1.024296  0
H  H12  1  0.78655770  0.30581259  0.68860709  1  0  0.079454  0  0.950952  0  0  0.089268  0  1.013989  0  0  0.092227  0  1.010508  0  0  0.119794  0.086994  0  1.016734  0
H  H13  1  0.48076336  0.69400535  0.81134804  1  0  0.079963  0  0.949917  0  0  0.089765  0  1.012889  0  0  0.092704  0  1.009437  0  0  0.120275  0.087477  0  1.015638  0
H  H14  1  0.21346546  0.69420294  0.31140039  1  0  0.079431  0  0.950916  0  0  0.089237  0  1.013988  0  0  0.092192  0  1.010514  0  0  0.119782  0.086958  0  1.016733  0
H  H15  1  0.51922029  0.30598045  0.18864939  1  0  0.07995  0  0.949952  0  0  0.089748  0  1.012935  0  0  0.092684  0  1.009489  0  0  0.120297  0.087461  0  1.015677  0
H  H16  1  0.16108434  0.23715844  0.76159790  1  0  0.091289  0  0.958745  0  0  0.099916  0  1.021569  0  0  0.103497  0  1.017873  0  0  0.120586  0.097245  0  1.024403  0
H  H17  1  0.92414185  0.76297831  0.73861296  1  0  0.091055  0  0.960083  0  0  0.100131  0  1.022339  0  0  0.103707  0  1.018661  0  0  0.120583  0.097377  0  1.025268  0
H  H18  1  0.83892225  0.76283253  0.23840276  1  0  0.091364  0  0.958603  0  0  0.099887  0  1.021556  0  0  0.103453  0  1.017857  0  0  0.120589  0.097218  0  1.024389  0
H  H19  1  0.07585331  0.23702194  0.26139227  1  0  0.091089  0  0.960216  0  0  0.100146  0  1.022483  0  0  0.103726  0  1.018803  0  0  0.120571  0.097394  0  1.02541  0
H  H20  1  0.01161529  0.13570086  0.86142748  1  0  0.122639  0  0.944488  0  0  0.129563  0  1.008239  0  0  0.133166  0  1.00694  0  0  0.114849  0.126901  0  1.009423  0
H  H21  1  0.87621436  0.86427841  0.63869912  1  0  0.122693  0  0.944149  0  0  0.129601  0  1.007924  0  0  0.133216  0  1.006575  0  0  0.1148  0.126945  0  1.009107  0
H  H22  1  0.98838652  0.86428697  0.13857032  1  0  0.122639  0  0.944534  0  0  0.129574  0  1.008255  0  0  0.133177  0  1.006958  0  0  0.114873  0.126922  0  1.00944  0
H  H23  1  0.12378446  0.13572703  0.36130936  1  0  0.122808  0  0.944195  0  0  0.129716  0  1.007962  0  0  0.133334  0  1.006608  0  0  0.114844  0.127069  0  1.009121  0
H  H24  1  0.55555561  0.73145314  0.05772747  1  0  0.125851  0  0.99245  0  0  0.132865  0  1.055453  0  0  0.13673  0  1.05326  0  0  0.120609  0.130094  0  1.057178  0
H  H25  1  0.82405713  0.26838589  0.44207801  1  0  0.125326  0  0.993027  0  0  0.132321  0  1.056129  0  0  0.13617  0  1.053955  0  0  0.120428  0.129674  0  1.057568  0
H  H26  1  0.44442814  0.26853285  0.94227571  1  0  0.12583  0  0.992704  0  0  0.132887  0  1.055646  0  0  0.136755  0  1.05345  0  0  0.120613  0.130108  0  1.057372  0
H  H27  1  0.17594971  0.73162058  0.55793123  1  0  0.125279  0  0.993077  0  0  0.132331  0  1.056128  0  0  0.136181  0  1.053954  0  0  0.120411  0.12968  0  1.057569  0
H  H28  1  0.49377762  0.57823403  0.13801639  1  0  0.08677  0  0.926448  0  0  0.094066  0  0.991701  0  0  0.098455  0  0.986474  0  0  0.120699  0.090759  0  0.995602  0
H  H29  1  0.91558967  0.42160149  0.36184087  1  0  0.086462  0  0.927747  0  0  0.094301  0  0.992347  0  0  0.098578  0  0.987227  0  0  0.120809  0.091016  0  0.996243  0
H  H30  1  0.50620364  0.42173843  0.86197628  1  0  0.086807  0  0.926573  0  0  0.094108  0  0.991798  0  0  0.098492  0  0.98658  0  0  0.12073  0.090801  0  0.9957  0
H  H31  1  0.08441937  0.57839866  0.63816149  1  0  0.086526  0  0.927747  0  0  0.094346  0  0.99236  0  0  0.098625  0  0.987237  0  0  0.120799  0.091058  0  0.99626  0
H  H32  1  0.04599605  0.32765801  0.00372504  1  0  0.095831  0  0.938319  0  0  0.101352  0  1.005249  0  0  0.104717  0  1.002435  0  0  0.1232  0.098749  0  1.007582  0
H  H33  1  0.71874434  0.67251708  0.49627549  1  0  0.09619  0  0.937838  0  0  0.101851  0  1.004526  0  0  0.105195  0  1.001743  0  0  0.123472  0.099178  0  1.006978  0
H  H34  1  0.95399149  0.67232056  0.99626876  1  0  0.095764  0  0.938427  0  0  0.101354  0  1.005303  0  0  0.104719  0  1.002495  0  0  0.123195  0.098757  0  1.007637  0
H  H35  1  0.28126529  0.32749497  0.50371934  1  0  0.09618  0  0.937924  0  0  0.101827  0  1.004598  0  0  0.105174  0  1.001812  0  0  0.123481  0.099147  0  1.00705  0
H  H36  1  0.08671992  0.48266906  0.92101879  1  0  0.114169  0  0.949837  0  0  0.123326  0  1.009845  0  0  0.126424  0  1.009492  0  0  0.111687  0.121091  0  1.010227  0
H  H37  1  0.60442375  0.51749129  0.57897035  1  0  0.114173  0  0.950754  0  0  0.123446  0  1.010564  0  0  0.126508  0  1.010262  0  0  0.111757  0.121215  0  1.010963  0
H  H38  1  0.91326320  0.51731783  0.07898112  1  0  0.114169  0  0.94998  0  0  0.123353  0  1.009951  0  0  0.126451  0  1.009598  0  0  0.111714  0.121124  0  1.010306  0
H  H39  1  0.39558262  0.48252496  0.42102868  1  0  0.114119  0  0.95084  0  0  0.123439  0  1.010592  0  0  0.126494  0  1.010288  0  0  0.111741  0.121212  0  1.010995  0
C  C40  1  0.70168240  0.09075713  0.88446483  1  0  0.682793  0  3.884862  0  0  0.63832  0  4.177741  0  0  0.675001  0  4.167501  0  0  0.228824  0.613072  0  4.183996  0
C  C41  1  0.61101655  0.90890115  0.61538502  1  0  0.681744  0  3.884338  0  0  0.637337  0  4.177366  0  0  0.673988  0  4.167289  0  0  0.228641  0.612113  0  4.183606  0
C  C42  1  0.29831527  0.90924386  0.11553253  1  0  0.683056  0  3.884586  0  0  0.638607  0  4.177491  0  0  0.675287  0  4.167248  0  0  0.229019  0.613358  0  4.183755  0
C  C43  1  0.38898545  0.09110206  0.38461790  1  0  0.681781  0  3.884412  0  0  0.637374  0  4.17744  0  0  0.674025  0  4.167367  0  0  0.228686  0.612141  0  4.183676  0
C  C44  1  0.80120198  0.15714313  0.82837542  1  0  -0.015123  0  3.713034  0  0  0.002226  0  3.944714  0  0  0.001283  0  3.962469  0  0  0.001607  0.002655  0  3.933094  0
C  C45  1  0.64416275  0.84257602  0.67154764  1  0  -0.014227  0  3.71037  0  0  0.003032  0  3.942318  0  0  0.002089  0  3.960109  0  0  0.002419  0.003508  0  3.93062  0
C  C46  1  0.19880484  0.84285686  0.17162233  1  0  -0.015049  0  3.713017  0  0  0.002158  0  3.944884  0  0  0.001214  0  3.96264  0  0  0.00151  0.002595  0  3.933259  0
C  C47  1  0.35583179  0.15742513  0.32845433  1  0  -0.014238  0  3.71049  0  0  0.003026  0  3.942427  0  0  0.002084  0  3.960218  0  0  0.002481  0.003505  0  3.930724  0
C  C48  1  0.73891171  0.20647286  0.77910299  1  0  -0.102521  0  3.6964  0  0  -0.124464  0  3.941177  0  0  -0.129119  0  3.961217  0  0  -0.071248  -0.121686  0  3.928421  0
C  C49  1  0.53243193  0.79320294  0.72076984  1  0  -0.10395  0  3.698144  0  0  -0.125702  0  3.943282  0  0  -0.13032  0  3.963251  0  0  -0.072086  -0.122838  0  3.930375  0
C  C50  1  0.26110392  0.79354047  0.22089951  1  0  -0.102779  0  3.696512  0  0  -0.12468  0  3.941295  0  0  -0.129336  0  3.961334  0  0  -0.071309  -0.121904  0  3.928539  0
C  C51  1  0.46756261  0.20679821  0.27923213  1  0  -0.103794  0  3.697974  0  0  -0.125505  0  3.943108  0  0  -0.130119  0  3.96307  0  0  -0.072003  -0.12264  0  3.930206  0
C  C52  1  0.83202563  0.26617103  0.72732799  1  0  0.121342  0  3.677497  0  0  0.092684  0  3.920919  0  0  0.09954  0  3.936153  0  0  0.046206  0.088014  0  3.911349  0
C  C53  1  0.56585610  0.73364800  0.77263556  1  0  0.122053  0  3.678171  0  0  0.093656  0  3.921593  0  0  0.10045  0  3.936778  0  0  0.04639  0.088971  0  3.911983  0
C  C54  1  0.16799436  0.73384030  0.27267528  1  0  0.12151  0  3.677454  0  0  0.09283  0  3.920853  0  0  0.099687  0  3.936089  0  0  0.046302  0.088162  0  3.911297  0
C  C55  1  0.43413117  0.26634289  0.22736281  1  0  0.122038  0  3.678151  0  0  0.093631  0  3.921581  0  0  0.100426  0  3.93676  0  0  0.0464  0.08895  0  3.911968  0
C  C56  1  0.04168654  0.22862314  0.76887707  1  0  0.114671  0  3.671698  0  0  0.085858  0  3.914533  0  0  0.091713  0  3.931431  0  0  0.040718  0.081494  0  3.904441  0
C  C57  1  0.81319846  0.77135519  0.73123472  1  0  0.113356  0  3.672812  0  0  0.084001  0  3.916356  0  0  0.09009  0  3.932665  0  0  0.039621  0.079624  0  3.90646  0
C  C58  1  0.95832357  0.77137485  0.23112146  1  0  0.114678  0  3.671556  0  0  0.085932  0  3.914406  0  0  0.091802  0  3.931296  0  0  0.040731  0.081586  0  3.904307  0
C  C59  1  0.18679299  0.22864192  0.26876765  1  0  0.113322  0  3.673178  0  0  0.08401  0  3.91669  0  0  0.090083  0  3.933023  0  0  0.03968  0.079639  0  3.906795  0
C  C60  1  0.95689675  0.17117208  0.82377631  1  0  -0.120997  0  3.710782  0  0  -0.142762  0  3.960927  0  0  -0.148444  0  3.981945  0  0  -0.077389  -0.139062  0  3.947103  0
C  C61  1  0.78592973  0.82873876  0.67627895  1  0  -0.120363  0  3.708223  0  0  -0.142039  0  3.958381  0  0  -0.147754  0  3.979449  0  0  -0.077096  -0.138384  0  3.944546  0
C  C62  1  0.04311070  0.82882487  0.17622145  1  0  -0.121055  0  3.710769  0  0  -0.142774  0  3.960913  0  0  -0.148458  0  3.98193  0  0  -0.07738  -0.139085  0  3.947105  0
C  C63  1  0.21406271  0.17126249  0.32372590  1  0  -0.120577  0  3.708372  0  0  -0.142297  0  3.958565  0  0  -0.148011  0  3.979631  0  0  -0.077252  -0.138639  0  3.944738  0
C  C64  1  0.34537370  0.72790726  0.94433446  1  0  0.637975  0  3.924089  0  0  0.593577  0  4.216089  0  0  0.628847  0  4.208603  0  0  0.206031  0.569361  0  4.220532  0
C  C65  1  0.61763889  0.27218567  0.55562716  1  0  0.637727  0  3.921266  0  0  0.593715  0  4.213506  0  0  0.628983  0  4.206006  0  0  0.205901  0.569385  0  4.218067  0
C  C66  1  0.65460529  0.27207352  0.05566433  1  0  0.637684  0  3.92437  0  0  0.593406  0  4.216347  0  0  0.628673  0  4.208865  0  0  0.205865  0.569198  0  4.220785  0
C  C67  1  0.38236369  0.72783802  0.44438182  1  0  0.63824  0  3.920836  0  0  0.59422  0  4.212992  0  0  0.629495  0  4.205475  0  0  0.206206  0.569894  0  4.217575  0
C  C68  1  0.32333832  0.62213471  0.98365757  1  0  -0.0133  0  3.71588  0  0  0.009159  0  3.942338  0  0  0.007441  0  3.960919  0  0  0.00469  0.010075  0  3.930274  0
C  C69  1  0.70133979  0.37786910  0.51623912  1  0  -0.010886  0  3.712074  0  0  0.010023  0  3.940428  0  0  0.008251  0  3.959023  0  0  0.004783  0.010829  0  3.928501  0
C  C70  1  0.67664228  0.37784712  0.01634255  1  0  -0.012933  0  3.715736  0  0  0.009222  0  3.942558  0  0  0.007506  0  3.961142  0  0  0.004711  0.010134  0  3.930483  0
C  C71  1  0.29866874  0.62215147  0.48376757  1  0  -0.01096  0  3.712016  0  0  0.010047  0  3.940252  0  0  0.008273  0  3.958844  0  0  0.004821  0.010855  0  3.92833  0
C  C72  1  0.44034363  0.64462843  0.04298804  1  0  -0.105284  0  3.698302  0  0  -0.131859  0  3.946067  0  0  -0.136572  0  3.966984  0  0  -0.071654  -0.129108  0  3.932718  0
C  C73  1  0.79572696  0.35526405  0.45685005  1  0  -0.105428  0  3.697073  0  0  -0.131354  0  3.945089  0  0  -0.136067  0  3.965997  0  0  -0.071604  -0.12853  0  3.931491  0
C  C74  1  0.55963697  0.35535343  0.95701266  1  0  -0.105378  0  3.698314  0  0  -0.131907  0  3.946158  0  0  -0.136612  0  3.967053  0  0  -0.071685  -0.129145  0  3.932798  0
C  C75  1  0.20427233  0.64474232  0.54315631  1  0  -0.10541  0  3.697048  0  0  -0.131439  0  3.945039  0  0  -0.136152  0  3.965946  0  0  -0.071633  -0.128618  0  3.931443  0
C  C76  1  0.40756411  0.55744491  0.08802389  1  0  0.11338  0  3.69279  0  0  0.085205  0  3.942132  0  0  0.090438  0  3.958685  0  0  0.044643  0.081698  0  3.931593  0
C  C77  1  0.85019437  0.44246447  0.41184462  1  0  0.112924  0  3.693106  0  0  0.084017  0  3.942535  0  0  0.089402  0  3.95911  0  0  0.044375  0.080476  0  3.931945  0
C  C78  1  0.59241593  0.44253582  0.91197374  1  0  0.113294  0  3.692694  0  0  0.085112  0  3.942055  0  0  0.09035  0  3.958596  0  0  0.044601  0.081604  0  3.931522  0
C  C79  1  0.14981458  0.55753980  0.58815964  1  0  0.112984  0  3.693244  0  0  0.084102  0  3.942645  0  0  0.089487  0  3.959218  0  0  0.044469  0.08057  0  3.932056  0
C  C80  1  0.15642868  0.41928859  0.01373352  1  0  0.125111  0  3.650065  0  0  0.096968  0  3.895  0  0  0.102664  0  3.911656  0  0  0.04836  0.093294  0  3.884095  0
C  C81  1  0.73740981  0.58079654  0.48621690  1  0  0.124948  0  3.646527  0  0  0.096907  0  3.891267  0  0  0.102631  0  3.907999  0  0  0.048418  0.093095  0  3.88056  0
C  C82  1  0.84355672  0.58068998  0.98626029  1  0  0.125239  0  3.650401  0  0  0.09703  0  3.895301  0  0  0.102719  0  3.911969  0  0  0.048472  0.093351  0  3.88441  0
C  C83  1  0.26259465  0.41921159  0.51378178  1  0  0.125148  0  3.646631  0  0  0.09713  0  3.89136  0  0  0.102853  0  3.908084  0  0  0.048448  0.093321  0  3.880658  0
C  C84  1  0.18001056  0.50481394  0.96773352  1  0  -0.117639  0  3.704121  0  0  -0.138565  0  3.94592  0  0  -0.144254  0  3.968277  0  0  -0.073224  -0.134802  0  3.930961  0
C  C85  1  0.67545817  0.49527496  0.53220809  1  0  -0.118794  0  3.703384  0  0  -0.139542  0  3.945839  0  0  -0.145221  0  3.96824  0  0  -0.073646  -0.135845  0  3.93108  0
C  C86  1  0.81996895  0.49516788  0.03226603  1  0  -0.117685  0  3.704442  0  0  -0.138543  0  3.946293  0  0  -0.144232  0  3.968653  0  0  -0.073219  -0.134777  0  3.931346  0
C  C87  1  0.32454877  0.50474243  0.46779458  1  0  -0.118855  0  3.703439  0  0  -0.139648  0  3.945833  0  0  -0.145325  0  3.96824  0  0  -0.073696  -0.13596  0  3.931079  0
C  C88  1  0.94405396  0.92634419  0.97386056  1  0  0.554084  0  3.908511  0  0  0.510726  0  4.19855  0  0  0.541433  0  4.192888  0  0  0.215025  0.489589  0  4.202072  0
C  C89  1  0.01759276  0.07357454  0.52627496  1  0  0.554789  0  3.910336  0  0  0.511758  0  4.199161  0  0  0.542456  0  4.193525  0  0  0.215276  0.490641  0  4.202573  0
C  C90  1  0.05595193  0.07364322  0.02612514  1  0  0.554036  0  3.908731  0  0  0.510651  0  4.198822  0  0  0.541357  0  4.193164  0  0  0.215175  0.489515  0  4.202337  0
C  C91  1  0.98243217  0.92644452  0.47371773  1  0  0.554255  0  3.91063  0  0  0.511474  0  4.19917  0  0  0.542126  0  4.193593  0  0  0.215087  0.490386  0  4.202555  0
C  C92  1  0.21317204  0.92248404  0.72770463  1  0  0.543999  0  3.953423  0  0  0.499765  0  4.258981  0  0  0.530416  0  4.252036  0  0  0.213385  0.478746  0  4.262913  0
C  C93  1  0.29077911  0.07752407  0.77220859  1  0  0.542868  0  3.953335  0  0  0.498799  0  4.259059  0  0  0.529458  0  4.252096  0  0  0.213305  0.477763  0  4.263021  0
C  C94  1  0.78682323  0.07752503  0.27229194  1  0  0.543935  0  3.953191  0  0  0.499591  0  4.258861  0  0  0.530239  0  4.251917  0  0  0.213306  0.47858  0  4.262804  0
C  C95  1  0.70923283  0.92248616  0.22779220  1  0  0.542831  0  3.953194  0  0  0.498821  0  4.258858  0  0  0.529483  0  4.251893  0  0  0.213317  0.477782  0  4.262836  0
N  N96  1  0.98054434  0.27529225  0.72055427  1  0  -0.295325  0  3.440431  0  0  -0.212058  0  3.739462  0  0  -0.222863  0  3.745241  0  0  -0.37855  -0.205767  0  3.735476  0
N  N97  1  0.70532263  0.72465257  0.77951052  1  0  -0.294571  0  3.441741  0  0  -0.211666  0  3.741337  0  0  -0.222435  0  3.747154  0  0  -0.377882  -0.20535  0  3.737337  0
N  N98  1  0.01946842  0.72470890  0.27944770  1  0  -0.295357  0  3.440526  0  0  -0.212058  0  3.739483  0  0  -0.222861  0  3.745261  0  0  -0.378558  -0.205792  0  3.735525  0
N  N99  1  0.29466360  0.27533840  0.22049014  1  0  -0.294544  0  3.441917  0  0  -0.21165  0  3.741504  0  0  -0.222406  0  3.747302  0  0  -0.377951  -0.205338  0  3.737496  0
N  N100  1  0.26712772  0.44641665  0.07465328  1  0  -0.291958  0  3.443525  0  0  -0.209313  0  3.74184  0  0  -0.219741  0  3.74805  0  0  -0.375351  -0.203455  0  3.737859  0
N  N101  1  0.82089927  0.55358192  0.42525978  1  0  -0.291117  0  3.440732  0  0  -0.208267  0  3.739051  0  0  -0.21887  0  3.745348  0  0  -0.3751  -0.202347  0  3.73489  0
N  N102  1  0.73285712  0.55356297  0.92534129  1  0  -0.292034  0  3.443584  0  0  -0.209391  0  3.741957  0  0  -0.219823  0  3.74818  0  0  -0.375447  -0.203535  0  3.738005  0
N  N103  1  0.17911060  0.44642417  0.57473852  1  0  -0.291305  0  3.440882  0  0  -0.208458  0  3.739197  0  0  -0.219062  0  3.74548  0  0  -0.375113  -0.202549  0  3.735037  0
O  O104  1  0.55199928  0.03779255  0.86501258  1  0  -0.691923  0  2.036274  0  0  -0.648882  0  2.29793  0  0  -0.683583  0  2.292124  0  0  -0.378027  -0.623721  0  2.300988  0
O  O105  1  0.51449186  0.96209299  0.63487976  1  0  -0.691009  0  2.035861  0  0  -0.647922  0  2.297479  0  0  -0.682543  0  2.291593  0  0  -0.377557  -0.622971  0  2.300666  0
O  O106  1  0.44799892  0.96220736  0.13498287  1  0  -0.691975  0  2.036175  0  0  -0.648941  0  2.297855  0  0  -0.683645  0  2.292051  0  0  -0.378046  -0.623776  0  2.300914  0
O  O107  1  0.48551908  0.03791738  0.36512505  1  0  -0.691013  0  2.035965  0  0  -0.647891  0  2.297525  0  0  -0.682513  0  2.291642  0  0  -0.377549  -0.622943  0  2.300715  0
O  O108  1  0.77479012  0.09432445  0.94695664  1  0  -0.679873  0  2.008841  0  0  -0.633169  0  2.257382  0  0  -0.665561  0  2.250584  0  0  -0.356742  -0.609963  0  2.261122  0
O  O109  1  0.68034752  0.90500925  0.55281236  1  0  -0.679324  0  2.007457  0  0  -0.632815  0  2.256393  0  0  -0.665288  0  2.249747  0  0  -0.356903  -0.60969  0  2.260443  0
O  O110  1  0.22519709  0.90566846  0.05304152  1  0  -0.68002  0  2.008657  0  0  -0.633327  0  2.257214  0  0  -0.665718  0  2.250417  0  0  -0.356831  -0.610115  0  2.260957  0
O  O111  1  0.31965505  0.09499296  0.44719095  1  0  -0.679371  0  2.007527  0  0  -0.632854  0  2.256449  0  0  -0.665326  0  2.249803  0  0  -0.356958  -0.609732  0  2.260502  0
O  O112  1  0.23613190  0.70599789  0.89154423  1  0  -0.628265  0  1.896267  0  0  -0.585611  0  2.121674  0  0  -0.612722  0  2.111295  0  0  -0.35116  -0.566534  0  2.128236  0
O  O113  1  0.53055882  0.29424114  0.60852811  1  0  -0.628436  0  1.894797  0  0  -0.585711  0  2.119798  0  0  -0.612878  0  2.109495  0  0  -0.351036  -0.566621  0  2.126378  0
O  O114  1  0.76385125  0.29398693  0.10845416  1  0  -0.628238  0  1.896222  0  0  -0.585593  0  2.121586  0  0  -0.612702  0  2.111207  0  0  -0.35115  -0.566529  0  2.128152  0
O  O115  1  0.46944847  0.70578553  0.39147914  1  0  -0.62865  0  1.894361  0  0  -0.585996  0  2.119459  0  0  -0.613152  0  2.10912  0  0  -0.351271  -0.566914  0  2.126055  0
O  O116  1  0.47082168  0.84182917  0.96889433  1  0  -0.734813  0  2.067846  0  0  -0.687149  0  2.334033  0  0  -0.723577  0  2.327143  0  0  -0.386585  -0.660757  0  2.337559  0
O  O117  1  0.62899799  0.15815836  0.53103487  1  0  -0.735142  0  2.067812  0  0  -0.687249  0  2.33382  0  0  -0.723665  0  2.326763  0  0  -0.386784  -0.660917  0  2.337632  0
O  O118  1  0.52916483  0.15814949  0.03110177  1  0  -0.73476  0  2.068189  0  0  -0.687051  0  2.334215  0  0  -0.723494  0  2.327364  0  0  -0.386481  -0.66066  0  2.337735  0
O  O119  1  0.37100407  0.84186643  0.46897660  1  0  -0.735448  0  2.06794  0  0  -0.687531  0  2.333939  0  0  -0.72396  0  2.326882  0  0  -0.386891  -0.661154  0  2.337649  0
O  O120  1  0.00057044  0.86389689  0.91828925  1  0  -0.629175  0  2.06349  0  0  -0.573701  0  2.326148  0  0  -0.605323  0  2.315926  0  0  -0.353699  -0.55132  0  2.332317  0
O  O121  1  0.13646963  0.13585723  0.58186987  1  0  -0.629763  0  2.063581  0  0  -0.574492  0  2.325985  0  0  -0.606071  0  2.315752  0  0  -0.353622  -0.552029  0  2.332043  0
O  O122  1  0.99943227  0.13609060  0.08169875  1  0  -0.629234  0  2.063678  0  0  -0.573728  0  2.326312  0  0  -0.60535  0  2.316094  0  0  -0.35385  -0.551347  0  2.332472  0
O  O123  1  0.86355905  0.86416075  0.41812090  1  0  -0.629479  0  2.063486  0  0  -0.574378  0  2.325851  0  0  -0.605946  0  2.315644  0  0  -0.353606  -0.551919  0  2.331905  0
O  O124  1  0.80335523  0.87647073  0.98893912  1  0  -0.610649  0  2.06345  0  0  -0.561347  0  2.321454  0  0  -0.591102  0  2.312496  0  0  -0.346039  -0.540406  0  2.326933  0
O  O125  1  0.92663430  0.12346645  0.51136656  1  0  -0.610951  0  2.06454  0  0  -0.562005  0  2.322791  0  0  -0.591696  0  2.313715  0  0  -0.346188  -0.540968  0  2.328069  0
O  O126  1  0.19664852  0.12351668  0.01104659  1  0  -0.610606  0  2.063522  0  0  -0.561309  0  2.32154  0  0  -0.591064  0  2.312601  0  0  -0.346074  -0.54036  0  2.327003  0
O  O127  1  0.07337333  0.87654160  0.48862982  1  0  -0.610811  0  2.064664  0  0  -0.561918  0  2.322804  0  0  -0.591588  0  2.313735  0  0  -0.346083  -0.540865  0  2.32802  0
O  O128  1  0.19938691  0.84561914  0.76947900  1  0  -0.621286  0  1.979365  0  0  -0.579483  0  2.220341  0  0  -0.608155  0  2.21065  0  0  -0.347505  -0.558923  0  2.226272  0
O  O129  1  0.35383465  0.15432875  0.73040331  1  0  -0.620436  0  1.980423  0  0  -0.578596  0  2.221427  0  0  -0.607269  0  2.211704  0  0  -0.347212  -0.557984  0  2.227342  0
O  O130  1  0.80061111  0.15438469  0.23051259  1  0  -0.621325  0  1.979193  0  0  -0.579468  0  2.220225  0  0  -0.608141  0  2.210531  0  0  -0.347503  -0.558905  0  2.226159  0
O  O131  1  0.64618369  0.84568786  0.26960609  1  0  -0.620505  0  1.980258  0  0  -0.578655  0  2.221208  0  0  -0.607332  0  2.211479  0  0  -0.34729  -0.558037  0  2.227127  0
O  O132  1  0.16610131  0.88540876  0.65259314  1  0  -0.634549  0  2.042646  0  0  -0.589123  0  2.288114  0  0  -0.619047  0  2.281351  0  0  -0.358486  -0.567493  0  2.291824  0
O  O133  1  0.28089278  0.11469395  0.84732417  1  0  -0.634068  0  2.041389  0  0  -0.589534  0  2.287805  0  0  -0.619441  0  2.28101  0  0  -0.359378  -0.568022  0  2.291601  0
O  O134  1  0.83389931  0.11461957  0.34740353  1  0  -0.634405  0  2.042628  0  0  -0.58896  0  2.288205  0  0  -0.618886  0  2.28145  0  0  -0.358367  -0.567327  0  2.291918  0
O  O135  1  0.71910661  0.88530619  0.15267761  1  0  -0.63404  0  2.041429  0  0  -0.589503  0  2.287804  0  0  -0.619388  0  2.280956  0  0  -0.359337  -0.567987  0  2.291606  0
