# generated using pymatgen
data_ZnH7C8SNO4
_symmetry_space_group_name_H-M   'P 1'
_cell_length_a   18.22218341
_cell_length_b   20.99613710
_cell_length_c   21.12673336
_cell_angle_alpha   90.00000491
_cell_angle_beta   89.99994656
_cell_angle_gamma   89.99996604
_symmetry_Int_Tables_number   1
_chemical_formula_structural   ZnH7C8SNO4
_chemical_formula_sum   'Zn16 H112 C128 S16 N16 O64'
_cell_volume   8082.99229346
_cell_formula_units_Z   16
loop_
 _symmetry_equiv_pos_site_id
 _symmetry_equiv_pos_as_xyz
  1  'x, y, z'
loop_
 _atom_site_type_symbol
 _atom_site_label
 _atom_site_symmetry_multiplicity
 _atom_site_fract_x
 _atom_site_fract_y
 _atom_site_fract_z
 _atom_site_occupancy
 _atom_site_pbe_bader_charge
 _atom_site_pbe_bader_spin_density
 _atom_site_pbe_cm5_charge
 _atom_site_pbe_ddec_charge
 _atom_site_pbe_ddec_spin_density
 _atom_site_pbe_ddec_sum_bond_order
 _atom_site_pbe_magmom
Zn  Zn0  1  0.16061670  0.47680386  0.01046963  1  1.280603  0  0.663511  0.826591  0  2.331468  0
Zn  Zn1  1  0.66061623  0.02319605  0.98953037  1  1.280587  0  0.663539  0.82663  0  2.331345  0
Zn  Zn2  1  0.33938409  0.97680438  0.48953039  1  1.280609  0  0.663536  0.826627  0  2.331396  0
Zn  Zn3  1  0.83938359  0.52319653  0.51046951  1  1.280586  0  0.663519  0.826632  0  2.331488  0
Zn  Zn4  1  0.83938388  0.52319607  0.98953032  1  1.280607  0  0.663522  0.826622  0  2.331413  0
Zn  Zn5  1  0.33938380  0.97680436  0.01046958  1  1.280614  0  0.663532  0.826613  0  2.331398  0
Zn  Zn6  1  0.66061649  0.02319603  0.51046956  1  1.280608  0  0.663535  0.826651  0  2.331386  0
Zn  Zn7  1  0.16061644  0.47680340  0.48953044  1  1.280592  0  0.663518  0.826614  0  2.331491  0
Zn  Zn8  1  0.31137636  0.50586540  0.98837181  1  1.279348  0  0.668944  0.835615  0  2.387662  0
Zn  Zn9  1  0.81137607  0.99413361  0.01162811  1  1.279412  0  0.668951  0.835631  0  2.387729  0
Zn  Zn10  1  0.18862366  0.00586534  0.51162800  1  1.279333  0  0.668921  0.83557  0  2.387747  0
Zn  Zn11  1  0.68862341  0.49413455  0.48837150  1  1.279368  0  0.668946  0.835609  0  2.387662  0
Zn  Zn12  1  0.68862367  0.49413453  0.01162861  1  1.279352  0  0.668943  0.835608  0  2.387684  0
Zn  Zn13  1  0.18862395  0.00586536  0.98837184  1  1.279396  0  0.668919  0.835576  0  2.387782  0
Zn  Zn14  1  0.81137637  0.99413411  0.48837195  1  1.279347  0  0.66894  0.835595  0  2.387726  0
Zn  Zn15  1  0.31137662  0.50586538  0.51162797  1  1.279413  0  0.668939  0.835589  0  2.387718  0
H  H16  1  0.05721527  0.40580225  0.03741988  1  0.425555  0  0.31875  0.268205  0  0.893801  0
H  H17  1  0.55721533  0.09419818  0.96257973  1  0.425549  0  0.318748  0.268212  0  0.893798  0
H  H18  1  0.44278447  0.90580224  0.46257966  1  0.425552  0  0.31875  0.268216  0  0.893793  0
H  H19  1  0.94278499  0.59419813  0.53742016  1  0.425546  0  0.318743  0.268205  0  0.893809  0
H  H20  1  0.94278476  0.59419815  0.96257960  1  0.425546  0  0.318744  0.268202  0  0.893805  0
H  H21  1  0.44278470  0.90580222  0.03742022  1  0.425552  0  0.318747  0.268215  0  0.893802  0
H  H22  1  0.55721556  0.09419768  0.53742030  1  0.425553  0  0.31875  0.268219  0  0.893798  0
H  H23  1  0.05721504  0.40580179  0.46257979  1  0.425545  0  0.318744  0.268209  0  0.893801  0
H  H24  1  0.43145855  0.56664417  0.97451113  1  0.416806  0  0.315908  0.260495  0  0.899529  0
H  H25  1  0.93145829  0.93335526  0.02548917  1  0.416794  0  0.315893  0.260483  0  0.899529  0
H  H26  1  0.06854197  0.06664465  0.52548917  1  0.4168  0  0.315898  0.260487  0  0.899523  0
H  H27  1  0.56854178  0.43335578  0.47450997  1  0.416786  0  0.315888  0.260479  0  0.899561  0
H  H28  1  0.56854147  0.43335576  0.02548977  1  0.416799  0  0.315896  0.260477  0  0.899564  0
H  H29  1  0.06854173  0.06664466  0.97451078  1  0.416798  0  0.315898  0.26049  0  0.89952  0
H  H30  1  0.93145805  0.93335528  0.47451079  1  0.416797  0  0.315898  0.260496  0  0.899524  0
H  H31  1  0.43145825  0.56664415  0.52548904  1  0.416806  0  0.315905  0.260484  0  0.899567  0
H  H32  1  0.41007096  0.31187778  0.99748676  1  0.088631  0  0.104849  0.116853  0  1.002887  0
H  H33  1  0.91007090  0.18812199  0.00251304  1  0.088635  0  0.104848  0.116859  0  1.002886  0
H  H34  1  0.08992940  0.81187839  0.50251309  1  0.088632  0  0.104852  0.116852  0  1.002878  0
H  H35  1  0.58992880  0.68812169  0.49748702  1  0.088624  0  0.104844  0.116852  0  1.002889  0
H  H36  1  0.58992852  0.68812119  0.00251319  1  0.088608  0  0.104864  0.116871  0  1.002879  0
H  H37  1  0.08992913  0.81187841  0.99748691  1  0.088628  0  0.104848  0.116838  0  1.002885  0
H  H38  1  0.91007118  0.18812201  0.49748687  1  0.08863  0  0.104844  0.116854  0  1.00289  0
H  H39  1  0.41007178  0.31187824  0.50251293  1  0.088608  0  0.104843  0.116831  0  1.002891  0
H  H40  1  0.41818529  0.18523877  0.99617751  1  0.084759  0  0.106261  0.11932  0  1.000284  0
H  H41  1  0.91818569  0.31476148  0.00382323  1  0.084759  0  0.106271  0.11933  0  1.000283  0
H  H42  1  0.08181461  0.68523891  0.50382280  1  0.084774  0  0.106282  0.119345  0  1.000276  0
H  H43  1  0.58181447  0.81476118  0.49617684  1  0.084758  0  0.106268  0.119331  0  1.000284  0
H  H44  1  0.58181419  0.81476115  0.00382292  1  0.084744  0  0.106274  0.119321  0  1.000313  0
H  H45  1  0.08181489  0.68523893  0.99617672  1  0.084766  0  0.10628  0.119346  0  1.000287  0
H  H46  1  0.91818597  0.31476150  0.49617715  1  0.084754  0  0.106266  0.119324  0  1.000284  0
H  H47  1  0.41818556  0.18523923  0.50382311  1  0.084769  0  0.106279  0.119339  0  1.000275  0
H  H48  1  0.09675730  0.43344879  0.81306273  1  0.08783  0  0.109374  0.124025  0  0.994539  0
H  H49  1  0.59675712  0.06655115  0.18693732  1  0.087853  0  0.109371  0.124009  0  0.994546  0
H  H50  1  0.40324297  0.93344878  0.68693712  1  0.08782  0  0.109365  0.124007  0  0.994551  0
H  H51  1  0.90324266  0.56655114  0.31306273  1  0.087834  0  0.109378  0.124029  0  0.99453  0
H  H52  1  0.90324273  0.56655114  0.18693722  1  0.087831  0  0.109373  0.124023  0  0.99454  0
H  H53  1  0.40324290  0.93344878  0.81306263  1  0.087848  0  0.109369  0.124013  0  0.994546  0
H  H54  1  0.59675760  0.06655115  0.31306283  1  0.087832  0  0.109364  0.124013  0  0.994534  0
H  H55  1  0.09675737  0.43344878  0.68693770  1  0.087837  0  0.109378  0.124016  0  0.994545  0
H  H56  1  0.37235959  0.53536411  0.18694264  1  0.081371  0  0.106733  0.119269  0  1.006119  0
H  H57  1  0.87235956  0.96463535  0.81305724  1  0.081388  0  0.106729  0.119279  0  1.0061  0
H  H58  1  0.12764094  0.03536458  0.31305734  1  0.081388  0  0.106738  0.119272  0  1.006132  0
H  H59  1  0.62764050  0.46463534  0.68694269  1  0.081372  0  0.10673  0.119254  0  1.006147  0
H  H60  1  0.62764043  0.46463582  0.81305731  1  0.081378  0  0.106733  0.119267  0  1.006118  0
H  H61  1  0.12764046  0.03536458  0.18694272  1  0.081385  0  0.106724  0.119277  0  1.006107  0
H  H62  1  0.87235908  0.96463535  0.68694261  1  0.081381  0  0.106735  0.119269  0  1.006129  0
H  H63  1  0.37235953  0.53536364  0.31305726  1  0.081405  0  0.106738  0.119263  0  1.006117  0
H  H64  1  0.95735278  0.41993276  0.96657074  1  0.076652  0  0.103453  0.085885  0  1.022465  0
H  H65  1  0.45735294  0.08006699  0.03342903  1  0.076648  0  0.103465  0.085935  0  1.022416  0
H  H66  1  0.54264732  0.91993291  0.53342919  1  0.076643  0  0.103458  0.085917  0  1.022431  0
H  H67  1  0.04264702  0.58006671  0.46657048  1  0.076658  0  0.103453  0.085895  0  1.022463  0
H  H68  1  0.04264725  0.58006717  0.03342922  1  0.076647  0  0.103463  0.085925  0  1.022422  0
H  H69  1  0.54264709  0.91993293  0.96657092  1  0.076644  0  0.103464  0.085924  0  1.022421  0
H  H70  1  0.45735326  0.08006701  0.46657077  1  0.076655  0  0.103452  0.085899  0  1.022462  0
H  H71  1  0.95735301  0.41993322  0.53342947  1  0.076668  0  0.103452  0.085908  0  1.022458  0
H  H72  1  0.04356933  0.42002396  0.92502658  1  0.069438  0  0.114591  0.102938  0  0.974676  0
H  H73  1  0.54356981  0.07997600  0.07497304  1  0.069453  0  0.114628  0.103001  0  0.97463  0
H  H74  1  0.45643041  0.92002391  0.57497327  1  0.069384  0  0.114623  0.102988  0  0.974638  0
H  H75  1  0.95643051  0.57997598  0.42502701  1  0.069446  0  0.114599  0.102956  0  0.974665  0
H  H76  1  0.95643015  0.57997597  0.07497289  1  0.069446  0  0.114624  0.102988  0  0.974637  0
H  H77  1  0.45643022  0.92002345  0.92502691  1  0.069448  0  0.114632  0.103003  0  0.974582  0
H  H78  1  0.54356962  0.07997650  0.42502668  1  0.069437  0  0.114619  0.10298  0  0.974642  0
H  H79  1  0.04356952  0.42002394  0.57497294  1  0.069445  0  0.114625  0.102988  0  0.974641  0
H  H80  1  0.95517183  0.46346025  0.07739210  1  0.07273  0  0.106623  0.088214  0  0.9861  0
H  H81  1  0.45517162  0.03653950  0.92260719  1  0.072725  0  0.106608  0.088206  0  0.986097  0
H  H82  1  0.54482877  0.96346044  0.42260751  1  0.07272  0  0.106638  0.088247  0  0.986066  0
H  H83  1  0.04482838  0.53653966  0.57739263  1  0.07272  0  0.106604  0.0882  0  0.986099  0
H  H84  1  0.04482874  0.53653920  0.92260738  1  0.072727  0  0.106611  0.088213  0  0.986094  0
H  H85  1  0.54482841  0.96346042  0.07739229  1  0.072728  0  0.106631  0.088253  0  0.986055  0
H  H86  1  0.45517180  0.03653949  0.57739244  1  0.072734  0  0.106636  0.088262  0  0.98606  0
H  H87  1  0.95517165  0.46346027  0.42260732  1  0.07272  0  0.106626  0.088249  0  0.986055  0
H  H88  1  0.03976120  0.49218053  0.11013109  1  0.049434  0  0.115977  0.10742  0  0.968948  0
H  H89  1  0.53976085  0.00781943  0.88986854  1  0.049431  0  0.115975  0.107433  0  0.968933  0
H  H90  1  0.46023903  0.99218050  0.38986893  1  0.049435  0  0.115975  0.107441  0  0.968949  0
H  H91  1  0.96023898  0.50781986  0.61013135  1  0.049429  0  0.11597  0.107433  0  0.96894  0
H  H92  1  0.96023883  0.50781940  0.88986887  1  0.049429  0  0.11597  0.107427  0  0.968946  0
H  H93  1  0.46023863  0.99218049  0.11013094  1  0.049433  0  0.115968  0.10743  0  0.968957  0
H  H94  1  0.53976155  0.00781942  0.61013102  1  0.049437  0  0.11597  0.107433  0  0.968941  0
H  H95  1  0.03976105  0.49218007  0.38986861  1  0.049427  0  0.115969  0.107431  0  0.968957  0
H  H96  1  0.44091248  0.48600314  0.89643090  1  0.071939  0  0.118896  0.110124  0  0.948936  0
H  H97  1  0.94091188  0.01399663  0.10356982  1  0.072032  0  0.118891  0.110103  0  0.94897  0
H  H98  1  0.05908830  0.98600329  0.60356990  1  0.072061  0  0.118892  0.110119  0  0.94895  0
H  H99  1  0.55908793  0.51399680  0.39642975  1  0.071911  0  0.118891  0.110118  0  0.948948  0
H  H100  1  0.55908754  0.51399679  0.10357047  1  0.071912  0  0.118887  0.110112  0  0.94895  0
H  H101  1  0.05908815  0.98600330  0.89643013  1  0.071913  0  0.118891  0.110102  0  0.94897  0
H  H102  1  0.94091172  0.01399664  0.39643005  1  0.072033  0  0.118897  0.110127  0  0.948938  0
H  H103  1  0.44091209  0.48600312  0.60356925  1  0.071927  0  0.11889  0.110115  0  0.948948  0
H  H104  1  0.44729535  0.42852685  0.95728934  1  0.079332  0  0.111269  0.095847  0  0.986249  0
H  H105  1  0.94729532  0.07147291  0.04271044  1  0.07933  0  0.11127  0.095857  0  0.986236  0
H  H106  1  0.05270438  0.92852700  0.54271052  1  0.079323  0  0.111269  0.095831  0  0.98628  0
H  H107  1  0.55270445  0.57147310  0.45728914  1  0.079328  0  0.111275  0.095842  0  0.986273  0
H  H108  1  0.55270413  0.57147308  0.04271109  1  0.079331  0  0.11128  0.09585  0  0.98626  0
H  H109  1  0.05270470  0.92852702  0.95728952  1  0.079348  0  0.11126  0.095836  0  0.986256  0
H  H110  1  0.94729565  0.07147293  0.45728944  1  0.079331  0  0.111275  0.095838  0  0.986275  0
H  H111  1  0.44729557  0.42852683  0.54271081  1  0.079333  0  0.111278  0.095841  0  0.98627  0
H  H112  1  0.43902458  0.46589226  0.07069085  1  0.061535  0  0.114058  0.097679  0  0.961683  0
H  H113  1  0.93902472  0.03410750  0.92930941  1  0.061538  0  0.114054  0.09768  0  0.961685  0
H  H114  1  0.06097511  0.96589244  0.42930917  1  0.061534  0  0.114062  0.097686  0  0.961687  0
H  H115  1  0.56097509  0.53410813  0.57069001  1  0.061535  0  0.114055  0.097669  0  0.961696  0
H  H116  1  0.56097490  0.53410767  0.92931005  1  0.061541  0  0.114061  0.097688  0  0.96169  0
H  H117  1  0.06097531  0.96589242  0.07069055  1  0.061534  0  0.11405  0.097679  0  0.96169  0
H  H118  1  0.93902491  0.03410749  0.57069078  1  0.06154  0  0.114067  0.097679  0  0.961693  0
H  H119  1  0.43902438  0.46589227  0.42930900  1  0.061537  0  0.114055  0.097664  0  0.96164  0
H  H120  1  0.42654470  0.54796784  0.08471905  1  0.072351  0  0.116788  0.106079  0  0.968503  0
H  H121  1  0.92654566  0.95203207  0.91528125  1  0.072362  0  0.11678  0.106066  0  0.968494  0
H  H122  1  0.07345473  0.04796787  0.41528140  1  0.072353  0  0.116792  0.106096  0  0.968466  0
H  H123  1  0.57345551  0.45203255  0.58471867  1  0.072369  0  0.116773  0.106066  0  0.968487  0
H  H124  1  0.57345533  0.45203257  0.91528137  1  0.072377  0  0.116779  0.106084  0  0.968472  0
H  H125  1  0.07345436  0.04796786  0.08471870  1  0.072364  0  0.116781  0.106072  0  0.968493  0
H  H126  1  0.92654529  0.95203206  0.58471903  1  0.072348  0  0.116781  0.106066  0  0.968488  0
H  H127  1  0.42654507  0.54796785  0.41528128  1  0.07247  0  0.116787  0.106078  0  0.968478  0
C  C128  1  0.26848087  0.36924928  0.00226528  1  1.566506  0  0.207714  0.607047  0  4.213821  0
C  C129  1  0.76848032  0.13075057  0.99773463  1  1.567077  0  0.207661  0.606951  0  4.213882  0
C  C130  1  0.23151999  0.86924986  0.49773425  1  1.566562  0  0.20776  0.607025  0  4.213748  0
C  C131  1  0.73151942  0.63075062  0.50226526  1  1.566519  0  0.207725  0.607057  0  4.213767  0
C  C132  1  0.73151916  0.63075064  0.99773467  1  1.566514  0  0.207707  0.607036  0  4.213771  0
C  C133  1  0.23151970  0.86924984  0.00226579  1  1.566593  0  0.207763  0.607036  0  4.213807  0
C  C134  1  0.76848059  0.13075054  0.50226523  1  1.566584  0  0.207692  0.606999  0  4.213824  0
C  C135  1  0.26848060  0.36925026  0.49773421  1  1.566541  0  0.207785  0.607091  0  4.213736  0
C  C136  1  0.29161039  0.30165351  0.00102703  1  -0.191878  0  -0.026134  -0.119518  0  3.97308  0
C  C137  1  0.79160980  0.19834680  0.99897334  1  -0.191877  0  -0.026121  -0.11947  0  3.973029  0
C  C138  1  0.20838996  0.80165315  0.49897203  1  -0.191898  0  -0.026142  -0.119549  0  3.973056  0
C  C139  1  0.70838990  0.69834687  0.50102656  1  -0.191865  0  -0.026116  -0.119481  0  3.973017  0
C  C140  1  0.70839018  0.69834689  0.99897340  1  -0.191888  0  -0.026121  -0.119486  0  3.973029  0
C  C141  1  0.20838968  0.80165360  0.00102756  1  -0.191916  0  -0.026175  -0.119604  0  3.973117  0
C  C142  1  0.79161007  0.19834726  0.50102651  1  -0.191854  0  -0.026105  -0.119438  0  3.972982  0
C  C143  1  0.29161068  0.30165401  0.49897244  1  -0.191905  0  -0.026137  -0.119587  0  3.973081  0
C  C144  1  0.36338612  0.27963425  0.99857781  1  -0.011155  0  -0.101536  -0.112241  0  4.020212  0
C  C145  1  0.86338603  0.22036603  0.00142250  1  -0.01114  0  -0.101506  -0.112217  0  4.020264  0
C  C146  1  0.13661372  0.77963387  0.50142203  1  -0.011151  0  -0.101528  -0.112189  0  4.020182  0
C  C147  1  0.63661364  0.72036618  0.49857756  1  -0.011153  0  -0.101531  -0.11223  0  4.020295  0
C  C148  1  0.63661391  0.72036520  0.00142214  1  -0.011161  0  -0.101559  -0.112281  0  4.020377  0
C  C149  1  0.13661400  0.77963437  0.99857792  1  -0.011149  0  -0.101513  -0.112134  0  4.020214  0
C  C150  1  0.86338631  0.22036605  0.49857745  1  -0.011142  0  -0.101514  -0.112237  0  4.02026  0
C  C151  1  0.36338638  0.27963470  0.50142239  1  -0.011162  0  -0.101518  -0.112127  0  4.020267  0
C  C152  1  0.36764304  0.21274623  0.99784367  1  0.014018  0  -0.100964  -0.111436  0  4.020959  0
C  C153  1  0.86764291  0.28725405  0.00215712  1  0.014003  0  -0.100983  -0.111523  0  4.021056  0
C  C154  1  0.13235739  0.71274633  0.50215617  1  0.014007  0  -0.100982  -0.11151  0  4.020992  0
C  C155  1  0.63235672  0.78725372  0.49784295  1  0.013995  0  -0.100999  -0.111532  0  4.021066  0
C  C156  1  0.63235534  0.78725275  0.00215676  1  0.013973  0  -0.101018  -0.111501  0  4.021118  0
C  C157  1  0.13235767  0.71274636  0.99784378  1  0.014033  0  -0.100996  -0.11156  0  4.021072  0
C  C158  1  0.86764319  0.28725407  0.49784331  1  0.014011  0  -0.10099  -0.111497  0  4.021048  0
C  C159  1  0.36764276  0.21274668  0.50215700  1  0.014025  0  -0.100994  -0.111517  0  4.02105  0
C  C160  1  0.29905687  0.18420290  0.99886893  1  -0.147537  0  -0.026144  -0.119376  0  3.977659  0
C  C161  1  0.79905781  0.31579646  0.00113049  1  -0.147556  0  -0.026085  -0.119198  0  3.977553  0
C  C162  1  0.20094193  0.68420297  0.50112995  1  -0.147572  0  -0.026139  -0.119316  0  3.977577  0
C  C163  1  0.70094235  0.81579657  0.49886911  1  -0.147543  0  -0.026106  -0.119287  0  3.977644  0
C  C164  1  0.70094042  0.81579703  0.00113102  1  -0.147116  0  -0.026056  -0.119241  0  3.977627  0
C  C165  1  0.20094276  0.68420347  0.99887041  1  -0.147518  0  -0.02612  -0.119279  0  3.977565  0
C  C166  1  0.79905809  0.31579696  0.49886953  1  -0.147559  0  -0.02615  -0.119342  0  3.977634  0
C  C167  1  0.29905713  0.18420288  0.50113084  1  -0.14755  0  -0.02614  -0.119376  0  3.977595  0
C  C168  1  0.28200844  0.11543216  0.99721321  1  1.558988  0  0.207317  0.605899  0  4.21239  0
C  C169  1  0.78200604  0.38456721  0.00278669  1  1.559441  0  0.207337  0.605921  0  4.212029  0
C  C170  1  0.21799590  0.61543413  0.50278567  1  1.55946  0  0.207381  0.605963  0  4.211983  0
C  C171  1  0.71799352  0.88456731  0.49721339  1  1.559432  0  0.207361  0.605986  0  4.212117  0
C  C172  1  0.71798720  0.88456825  0.00278626  1  1.559093  0  0.207323  0.605922  0  4.212083  0
C  C173  1  0.21799398  0.61543320  0.99721374  1  1.55939  0  0.207343  0.605938  0  4.211994  0
C  C174  1  0.78200413  0.38456580  0.49721381  1  1.559495  0  0.207365  0.605951  0  4.211925  0
C  C175  1  0.28200925  0.11543166  0.50278704  1  1.559458  0  0.207336  0.605947  0  4.212243  0
C  C176  1  0.22138776  0.48367895  0.87665415  1  1.600935  0  0.209478  0.605347  0  4.212326  0
C  C177  1  0.72138549  0.01632092  0.12334533  1  1.600916  0  0.209402  0.605258  0  4.212682  0
C  C178  1  0.27861303  0.98367900  0.62334618  1  1.60122  0  0.209513  0.605397  0  4.212448  0
C  C179  1  0.77861158  0.51632051  0.37665377  1  1.600928  0  0.209487  0.605354  0  4.212301  0
C  C180  1  0.77861227  0.51632097  0.12334627  1  1.600922  0  0.209463  0.605297  0  4.212375  0
C  C181  1  0.27861399  0.98367901  0.87665462  1  1.600934  0  0.209493  0.605374  0  4.21242  0
C  C182  1  0.72138755  0.01632093  0.37665377  1  1.600922  0  0.209507  0.605372  0  4.212345  0
C  C183  1  0.22138844  0.48367894  0.62334618  1  1.600933  0  0.209534  0.605402  0  4.212286  0
C  C184  1  0.20501490  0.47636856  0.80847324  1  -0.208017  0  -0.025973  -0.120679  0  3.976469  0
C  C185  1  0.70501474  0.02363132  0.19152672  1  -0.207989  0  -0.026002  -0.120788  0  3.976574  0
C  C186  1  0.29498480  0.97636860  0.69152709  1  -0.208029  0  -0.025982  -0.120712  0  3.976489  0
C  C187  1  0.79498507  0.52363137  0.30847332  1  -0.208026  0  -0.025979  -0.120694  0  3.976477  0
C  C188  1  0.79498513  0.52363136  0.19152671  1  -0.208026  0  -0.025983  -0.120698  0  3.976497  0
C  C189  1  0.29498528  0.97636861  0.80847323  1  -0.208012  0  -0.026007  -0.120797  0  3.97656  0
C  C190  1  0.70501468  0.02363132  0.30847334  1  -0.208034  0  -0.025991  -0.120738  0  3.976511  0
C  C191  1  0.20501496  0.47636856  0.69152710  1  -0.208024  0  -0.02598  -0.120706  0  3.976473  0
C  C192  1  0.14092545  0.45125158  0.78327060  1  -0.066589  0  -0.099154  -0.109892  0  4.014098  0
C  C193  1  0.64092526  0.04874834  0.21672942  1  -0.066614  0  -0.099149  -0.109836  0  4.014076  0
C  C194  1  0.35907481  0.95125159  0.71672925  1  0.104883  0  -0.09916  -0.109878  0  4.014099  0
C  C195  1  0.85907454  0.54874835  0.28327063  1  0.10489  0  -0.099153  -0.109877  0  4.014086  0
C  C196  1  0.85907457  0.54874835  0.21672935  1  -0.066589  0  -0.099153  -0.109884  0  4.014103  0
C  C197  1  0.35907477  0.95125159  0.78327054  1  -0.066624  0  -0.099164  -0.109866  0  4.014115  0
C  C198  1  0.64092522  0.04874786  0.28327117  1  0.104868  0  -0.099163  -0.109888  0  4.01408  0
C  C199  1  0.14092549  0.45125157  0.71672932  1  0.10488  0  -0.099159  -0.109869  0  4.014101  0
C  C200  1  0.24274125  0.49686801  0.12335170  1  1.595013  0  0.207354  0.60316  0  4.223189  0
C  C201  1  0.74274093  0.00313281  0.87664872  1  1.595068  0  0.207386  0.603243  0  4.223354  0
C  C202  1  0.25725951  0.99686808  0.37664832  1  1.595028  0  0.207417  0.603238  0  4.223088  0
C  C203  1  0.75725836  0.50313238  0.62335117  1  1.59503  0  0.207376  0.603212  0  4.223136  0
C  C204  1  0.75725822  0.50313192  0.87664826  1  1.595026  0  0.207363  0.603178  0  4.223178  0
C  C205  1  0.25725965  0.99686807  0.12335171  1  1.595036  0  0.20741  0.603243  0  4.22326  0
C  C206  1  0.74274106  0.00313184  0.62335163  1  1.59504  0  0.207416  0.603281  0  4.223068  0
C  C207  1  0.24274167  0.49686802  0.37664831  1  1.595015  0  0.207318  0.603025  0  4.223271  0
C  C208  1  0.25965796  0.50240903  0.19154870  1  -0.197377  0  -0.026049  -0.119602  0  3.977142  0
C  C209  1  0.75965846  0.99759049  0.80845127  1  -0.197372  0  -0.026072  -0.119685  0  3.977229  0
C  C210  1  0.24034150  0.00240897  0.30845128  1  -0.197256  0  -0.026015  -0.119548  0  3.977112  0
C  C211  1  0.74034213  0.49759042  0.69154866  1  -0.197369  0  -0.02604  -0.119598  0  3.977111  0
C  C212  1  0.74034207  0.49759090  0.80845126  1  -0.197387  0  -0.026048  -0.119611  0  3.977191  0
C  C213  1  0.24034157  0.00240944  0.19154916  1  -0.197374  0  -0.026038  -0.119595  0  3.977196  0
C  C214  1  0.75965852  0.99759048  0.69154915  1  -0.197374  0  -0.026051  -0.119621  0  3.977196  0
C  C215  1  0.25965790  0.50240855  0.30845129  1  -0.197396  0  -0.026032  -0.119533  0  3.977105  0
C  C216  1  0.32632174  0.52175162  0.21675465  1  -0.067321  0  -0.100401  -0.110596  0  4.021668  0
C  C217  1  0.82632173  0.97824787  0.78324526  1  -0.067351  0  -0.100408  -0.110598  0  4.02167  0
C  C218  1  0.17367826  0.02175159  0.28324580  1  0.104564  0  -0.100448  -0.110634  0  4.021673  0
C  C219  1  0.67367832  0.47824783  0.71675419  1  0.104568  0  -0.100436  -0.110605  0  4.021663  0
C  C220  1  0.67367829  0.47824831  0.78324530  1  -0.067322  0  -0.100398  -0.110584  0  4.021667  0
C  C221  1  0.17367775  0.02175159  0.21675469  1  -0.067346  0  -0.100412  -0.110624  0  4.02168  0
C  C222  1  0.82632177  0.97824786  0.71675462  1  0.104564  0  -0.10041  -0.110592  0  4.021709  0
C  C223  1  0.32632170  0.52175114  0.28324576  1  0.104559  0  -0.100438  -0.110611  0  4.021643  0
C  C224  1  0.00918594  0.44581014  0.95900582  1  0.244345  0  -0.072301  -0.060729  0  3.876668  0
C  C225  1  0.50918537  0.05418984  0.04099383  1  0.24435  0  -0.072363  -0.060887  0  3.876712  0
C  C226  1  0.49081488  0.94581007  0.54099403  1  0.244416  0  -0.072361  -0.060859  0  3.8767  0
C  C227  1  0.99081442  0.55418933  0.45900575  1  0.244342  0  -0.072349  -0.060785  0  3.876728  0
C  C228  1  0.99081464  0.55418979  0.04099413  1  0.244349  0  -0.072347  -0.06085  0  3.8767  0
C  C229  1  0.49081465  0.94581009  0.95900612  1  0.244348  0  -0.072341  -0.060832  0  3.876636  0
C  C230  1  0.50918570  0.05418986  0.45900592  1  0.244354  0  -0.072345  -0.060814  0  3.87671  0
C  C231  1  0.00918561  0.44581060  0.54099421  1  0.244337  0  -0.072362  -0.060848  0  3.876769  0
C  C232  1  0.00706810  0.48814646  0.06674436  1  0.276983  0  -0.068266  -0.051558  0  3.863385  0
C  C233  1  0.50706771  0.01185304  0.93325529  1  0.277025  0  -0.068196  -0.051516  0  3.863303  0
C  C234  1  0.49293212  0.98814642  0.43325518  1  0.277021  0  -0.068204  -0.051547  0  3.863298  0
C  C235  1  0.99293212  0.51185345  0.56674460  1  0.276973  0  -0.068185  -0.051496  0  3.863321  0
C  C236  1  0.99293192  0.51185299  0.93325512  1  0.27702  0  -0.068191  -0.051526  0  3.863294  0
C  C237  1  0.49293177  0.98814641  0.06674466  1  0.27702  0  -0.068189  -0.051525  0  3.863295  0
C  C238  1  0.50706845  0.01185350  0.56674477  1  0.277015  0  -0.068194  -0.051539  0  3.863274  0
C  C239  1  0.00706791  0.48814648  0.43325536  1  0.277017  0  -0.068173  -0.051527  0  3.863295  0
C  C240  1  0.46269635  0.47742632  0.94416994  1  0.234846  0  -0.070339  -0.068566  0  3.900375  0
C  C241  1  0.96269579  0.02257391  0.05583030  1  0.23478  0  -0.070371  -0.068605  0  3.900405  0
C  C242  1  0.03730389  0.97742552  0.55583040  1  0.234793  0  -0.070384  -0.068623  0  3.900462  0
C  C243  1  0.53730402  0.52257410  0.44416975  1  0.234949  0  -0.070366  -0.068612  0  3.900439  0
C  C244  1  0.53730368  0.52257409  0.05583049  1  0.234941  0  -0.070353  -0.068594  0  3.900422  0
C  C245  1  0.03730423  0.97742554  0.94416966  1  0.234914  0  -0.070366  -0.068591  0  3.900392  0
C  C246  1  0.96269613  0.02257393  0.44417003  1  0.234836  0  -0.070371  -0.068599  0  3.900452  0
C  C247  1  0.46269601  0.47742630  0.55583020  1  0.234901  0  -0.070357  -0.068586  0  3.900402  0
C  C248  1  0.45455345  0.51364580  0.05393671  1  0.281683  0  -0.071169  -0.066235  0  3.903007  0
C  C249  1  0.95455381  0.98635457  0.94606357  1  0.281702  0  -0.071129  -0.066188  0  3.902946  0
C  C250  1  0.04544656  0.01364537  0.44606374  1  0.2817  0  -0.071147  -0.066235  0  3.903018  0
C  C251  1  0.54544679  0.48635459  0.55393541  1  0.281703  0  -0.071123  -0.066186  0  3.903022  0
C  C252  1  0.54544658  0.48635460  0.94606466  1  0.281732  0  -0.071156  -0.066255  0  3.903068  0
C  C253  1  0.04544622  0.01364536  0.05393638  1  0.281697  0  -0.071141  -0.066218  0  3.902976  0
C  C254  1  0.95455402  0.98635455  0.55393622  1  0.281697  0  -0.071142  -0.066178  0  3.903022  0
C  C255  1  0.45455323  0.51364582  0.44606359  1  0.281579  0  -0.071154  -0.06621  0  3.902957  0
S  S256  1  0.22975010  0.23988073  0.00149471  1  0.266796  0  0.089233  0.153344  0  2.836262  0
S  S257  1  0.72975056  0.26011961  0.99850619  1  0.266783  0  0.089205  0.153263  0  2.836282  0
S  S258  1  0.27024920  0.73988081  0.49850482  1  0.266795  0  0.089212  0.153311  0  2.836257  0
S  S259  1  0.77024965  0.76011965  0.50149372  1  0.266799  0  0.089238  0.153319  0  2.836268  0
S  S260  1  0.77024883  0.76012015  0.99850667  1  0.266846  0  0.089224  0.153319  0  2.836286  0
S  S261  1  0.27024947  0.73988127  0.00149471  1  0.266791  0  0.089209  0.153312  0  2.836253  0
S  S262  1  0.72975028  0.26012007  0.50149372  1  0.266785  0  0.089247  0.153325  0  2.836216  0
S  S263  1  0.22975093  0.23988123  0.49850529  1  0.266831  0  0.089207  0.153337  0  2.83625  0
S  S264  1  0.26529529  0.49919512  0.74999991  1  0.277651  0  0.091404  0.152356  0  2.821415  0
S  S265  1  0.76529509  0.00080473  0.25000001  1  0.277677  0  0.091423  0.152422  0  2.821415  0
S  S266  1  0.23470493  0.99919520  0.74999995  1  0.277673  0  0.091416  0.152404  0  2.82143  0
S  S267  1  0.73470473  0.50080480  0.25000004  1  0.277659  0  0.091408  0.152365  0  2.821406  0
S  S268  1  0.19715500  0.48464149  0.25000026  1  0.260763  0  0.093254  0.154413  0  2.818304  0
S  S269  1  0.69715534  0.01535839  0.75000019  1  0.260773  0  0.093243  0.154444  0  2.818366  0
S  S270  1  0.30284468  0.98464153  0.24999976  1  0.26064  0  0.093241  0.154415  0  2.81837  0
S  S271  1  0.80284503  0.51535844  0.75000017  1  0.260768  0  0.093232  0.154413  0  2.818379  0
N  N272  1  0.05031214  0.45084530  0.01972714  1  -1.060657  0  -0.473034  -0.303689  0  3.413415  0
N  N273  1  0.55031166  0.04915466  0.98027296  1  -1.060675  0  -0.473066  -0.303732  0  3.413428  0
N  N274  1  0.44968812  0.95084529  0.48027288  1  -1.060682  0  -0.473069  -0.303731  0  3.413419  0
N  N275  1  0.94968814  0.54915461  0.51972741  1  -1.060641  0  -0.473071  -0.303746  0  3.413423  0
N  N276  1  0.94968789  0.54915463  0.98027281  1  -1.060632  0  -0.473062  -0.303714  0  3.413409  0
N  N277  1  0.44968781  0.95084527  0.01972747  1  -1.060655  0  -0.473084  -0.303773  0  3.413435  0
N  N278  1  0.55031246  0.04915464  0.51972708  1  -1.060655  0  -0.473084  -0.303771  0  3.413439  0
N  N279  1  0.05031189  0.45084532  0.48027302  1  -1.060642  0  -0.47307  -0.303734  0  3.413417  0
N  N280  1  0.42434361  0.52045138  0.98900130  1  -1.071427  0  -0.476866  -0.297612  0  3.442224  0
N  N281  1  0.92434333  0.97954852  0.01099900  1  -1.071428  0  -0.47685  -0.297583  0  3.44219  0
N  N282  1  0.07565695  0.02045138  0.51099899  1  -1.071421  0  -0.476844  -0.297551  0  3.442232  0
N  N283  1  0.57565616  0.47954856  0.48900061  1  -1.071447  0  -0.476829  -0.297564  0  3.442377  0
N  N284  1  0.57565642  0.47954854  0.01099912  1  -1.071441  0  -0.476846  -0.297568  0  3.442357  0
N  N285  1  0.07565669  0.02045140  0.98900142  1  -1.071394  0  -0.476841  -0.297564  0  3.442168  0
N  N286  1  0.92434362  0.97954854  0.48900144  1  -1.071473  0  -0.476861  -0.29762  0  3.442266  0
N  N287  1  0.42434386  0.52045136  0.51099887  1  -1.071447  0  -0.476838  -0.297563  0  3.442341  0
O  O288  1  0.20119584  0.38233885  0.01191801  1  -1.16147  0  -0.326453  -0.555768  0  2.271832  0
O  O289  1  0.70119641  0.11766103  0.98808196  1  -1.162047  0  -0.326402  -0.555711  0  2.271922  0
O  O290  1  0.29880501  0.88233892  0.48808200  1  -1.161507  0  -0.32644  -0.555729  0  2.27187  0
O  O291  1  0.79880444  0.61766106  0.51191794  1  -1.161486  0  -0.326463  -0.555787  0  2.271833  0
O  O292  1  0.79880419  0.61766108  0.98808194  1  -1.161475  0  -0.326456  -0.555772  0  2.271822  0
O  O293  1  0.29880417  0.88233890  0.01191847  1  -1.161537  0  -0.326415  -0.555702  0  2.271889  0
O  O294  1  0.70119612  0.11766101  0.51191795  1  -1.161538  0  -0.326417  -0.555741  0  2.271879  0
O  O295  1  0.20119558  0.38233887  0.48808154  1  -1.161476  0  -0.326472  -0.555766  0  2.271788  0
O  O296  1  0.32013385  0.40931287  0.99302941  1  -1.172432  0  -0.320364  -0.553145  0  2.348381  0
O  O297  1  0.82013385  0.09068695  0.00697046  1  -1.17247  0  -0.320383  -0.553153  0  2.348347  0
O  O298  1  0.17986644  0.90931296  0.50697044  1  -1.172416  0  -0.32038  -0.553121  0  2.348336  0
O  O299  1  0.67986592  0.59068708  0.49302959  1  -1.172429  0  -0.320379  -0.553166  0  2.348382  0
O  O300  1  0.67986618  0.59068705  0.00697054  1  -1.172429  0  -0.320364  -0.553146  0  2.348383  0
O  O301  1  0.17986618  0.90931345  0.99302996  1  -1.172429  0  -0.320392  -0.553135  0  2.348325  0
O  O302  1  0.82013413  0.09068697  0.49302951  1  -1.172428  0  -0.320386  -0.55316  0  2.348371  0
O  O303  1  0.32013411  0.40931380  0.50697036  1  -1.17251  0  -0.320377  -0.553141  0  2.34838  0
O  O304  1  0.33560685  0.07679261  0.00333687  1  -1.173629  0  -0.315614  -0.556026  0  2.317382  0
O  O305  1  0.83560884  0.42320815  0.99666252  1  -1.173568  0  -0.315636  -0.556061  0  2.317029  0
O  O306  1  0.16438873  0.57679084  0.49666216  1  -1.173209  0  -0.315661  -0.556116  0  2.316816  0
O  O307  1  0.66439180  0.92320777  0.50333693  1  -1.173572  0  -0.315641  -0.556079  0  2.317119  0
O  O308  1  0.66438769  0.92320731  0.99666308  1  -1.173415  0  -0.315622  -0.556081  0  2.317228  0
O  O309  1  0.16439119  0.57679177  0.00333791  1  -1.173561  0  -0.315596  -0.556028  0  2.316983  0
O  O310  1  0.83561185  0.42320956  0.50333779  1  -1.17323  0  -0.31568  -0.556132  0  2.316758  0
O  O311  1  0.33560823  0.07679216  0.49666302  1  -1.173639  0  -0.315636  -0.55607  0  2.317338  0
O  O312  1  0.21472782  0.10037607  0.98971847  1  -1.157905  0  -0.328793  -0.550905  0  2.31019  0
O  O313  1  0.71473199  0.39962380  0.01028054  1  -1.158297  0  -0.328835  -0.550947  0  2.310212  0
O  O314  1  0.28526500  0.60037563  0.51027946  1  -1.158655  0  -0.328824  -0.550888  0  2.310349  0
O  O315  1  0.78526811  0.89962388  0.48971906  1  -1.158287  0  -0.32883  -0.550931  0  2.310168  0
O  O316  1  0.78526782  0.89962481  0.01028195  1  -1.158495  0  -0.32882  -0.55092  0  2.309997  0
O  O317  1  0.28526804  0.60037565  0.98971988  1  -1.15829  0  -0.328844  -0.550939  0  2.310173  0
O  O318  1  0.71473557  0.39962478  0.48972049  1  -1.158694  0  -0.328809  -0.550876  0  2.310337  0
O  O319  1  0.21473027  0.10037557  0.51028136  1  -1.158253  0  -0.3288  -0.550903  0  2.310136  0
O  O320  1  0.28574721  0.50083590  0.89299409  1  -1.16976  0  -0.324142  -0.546711  0  2.280018  0
O  O321  1  0.78574792  0.99916407  0.10700538  1  -1.169755  0  -0.324148  -0.546734  0  2.279953  0
O  O322  1  0.21425281  0.00083584  0.60700573  1  -1.16974  0  -0.324146  -0.546725  0  2.279975  0
O  O323  1  0.71425321  0.49916451  0.39299423  1  -1.169774  0  -0.32415  -0.546712  0  2.280053  0
O  O324  1  0.71425282  0.49916450  0.10700586  1  -1.169759  0  -0.324138  -0.546673  0  2.280022  0
O  O325  1  0.21425266  0.00083585  0.89299457  1  -1.169723  0  -0.324168  -0.546734  0  2.279951  0
O  O326  1  0.78574722  0.99916409  0.39299422  1  -1.169753  0  -0.324134  -0.546698  0  2.28  0
O  O327  1  0.28574682  0.50083541  0.60700572  1  -1.169768  0  -0.324142  -0.546704  0  2.280021  0
O  O328  1  0.16795836  0.47169819  0.91386627  1  -1.180851  0  -0.316278  -0.554148  0  2.364704  0
O  O329  1  0.66795832  0.02830123  0.08613468  1  -1.1809  0  -0.316169  -0.553982  0  2.36505  0
O  O330  1  0.33204134  0.97169868  0.58613454  1  -1.181151  0  -0.316291  -0.554149  0  2.364844  0
O  O331  1  0.83204204  0.52830175  0.41386632  1  -1.180831  0  -0.316288  -0.554171  0  2.364667  0
O  O332  1  0.83204167  0.52830173  0.08613416  1  -1.180841  0  -0.316269  -0.554125  0  2.364702  0
O  O333  1  0.33204171  0.97169870  0.91386528  1  -1.180893  0  -0.316238  -0.554076  0  2.364851  0
O  O334  1  0.66795869  0.02830172  0.41386589  1  -1.180846  0  -0.316319  -0.554176  0  2.364758  0
O  O335  1  0.16795854  0.47169818  0.58613363  1  -1.180829  0  -0.316331  -0.554193  0  2.36471  0
O  O336  1  0.17731662  0.48278639  0.10677557  1  -1.160132  0  -0.324654  -0.547454  0  2.293648  0
O  O337  1  0.67731900  0.01721303  0.89322442  1  -1.160108  0  -0.324653  -0.547495  0  2.293788  0
O  O338  1  0.32268306  0.98278691  0.39322445  1  -1.160153  0  -0.324693  -0.547489  0  2.293667  0
O  O339  1  0.82268521  0.51721353  0.60677499  1  -1.160166  0  -0.324723  -0.547537  0  2.293428  0
O  O340  1  0.82268341  0.51721354  0.89322439  1  -1.160134  0  -0.324701  -0.547537  0  2.293554  0
O  O341  1  0.32268212  0.98278689  0.10677553  1  -1.160138  0  -0.324684  -0.54749  0  2.293802  0
O  O342  1  0.67731696  0.01721350  0.60677550  1  -1.160146  0  -0.324703  -0.547528  0  2.293623  0
O  O343  1  0.17731646  0.48278687  0.39322496  1  -1.16012  0  -0.324695  -0.547461  0  2.293501  0
O  O344  1  0.29628590  0.50697604  0.08611591  1  -1.181372  0  -0.314792  -0.556868  0  2.363647  0
O  O345  1  0.79628794  0.99302298  0.91388497  1  -1.181423  0  -0.314806  -0.55687  0  2.36377  0
O  O346  1  0.20371411  0.00697601  0.41388406  1  -1.181364  0  -0.314814  -0.556918  0  2.363604  0
O  O347  1  0.70371650  0.49302435  0.58611685  1  -1.18136  0  -0.314703  -0.556788  0  2.363846  0
O  O348  1  0.70371413  0.49302388  0.91388404  1  -1.181384  0  -0.314757  -0.556817  0  2.363753  0
O  O349  1  0.20371319  0.00697647  0.08611593  1  -1.181382  0  -0.314802  -0.55691  0  2.363642  0
O  O350  1  0.79628592  0.99302392  0.58611589  1  -1.181377  0  -0.314789  -0.556893  0  2.36364  0
O  O351  1  0.29628517  0.50697653  0.41388357  1  -1.181395  0  -0.314723  -0.556759  0  2.363843  0
