# generated using pymatgen
data_ZnSiH16C24N8(O4F3)2
_symmetry_space_group_name_H-M   'P 1'
_cell_length_a   7.64458569
_cell_length_b   13.73275333
_cell_length_c   13.73276715
_cell_angle_alpha   89.01168050
_cell_angle_beta   82.19791557
_cell_angle_gamma   82.19239523
_symmetry_Int_Tables_number   1
_chemical_formula_structural   ZnSiH16C24N8(O4F3)2
_chemical_formula_sum   'Zn1 Si1 H16 C24 N8 O8 F6'
_cell_volume   1415.09472611
_cell_formula_units_Z   1
loop_
 _symmetry_equiv_pos_site_id
 _symmetry_equiv_pos_as_xyz
  1  'x, y, z'
loop_
 _atom_site_type_symbol
 _atom_site_label
 _atom_site_symmetry_multiplicity
 _atom_site_fract_x
 _atom_site_fract_y
 _atom_site_fract_z
 _atom_site_occupancy
 _atom_site_pbe_bader_charge
 _atom_site_pbe_bader_spin_density
 _atom_site_pbe_cm5_charge
 _atom_site_pbe_ddec_charge
 _atom_site_pbe_ddec_spin_density
 _atom_site_pbe_ddec_sum_bond_order
 _atom_site_pbe_magmom
Zn  Zn0  1  0.49998306  0.49887948  0.50112980  1  1.345948  0  0.712485  0.729089  0  2.432775  0
Si  Si1  1  0.99998984  0.49941739  0.50057872  1  3.217602  0  0.262012  1.724973  0  3.952448  0
H  H2  1  0.27100809  0.57040540  0.34591030  1  0.193967  0  0.119522  0.108432  0  1.033258  0
H  H3  1  0.28095266  0.57918797  0.16758328  1  0.117814  0  0.118179  0.128357  0  1.014092  0
H  H4  1  0.82414043  0.42888451  0.14307590  1  0.071674  0  0.116167  0.126203  0  1.001212  0
H  H5  1  0.79505056  0.43411864  0.32506110  1  0.176422  0  0.125053  0.110903  0  0.997757  0
H  H6  1  0.20678064  0.43087311  0.85782847  1  0.113111  0  0.116014  0.126429  0  1.001658  0
H  H7  1  0.68094291  0.57737736  0.83437788  1  0.152594  0  0.118394  0.129045  0  1.009232  0
H  H8  1  0.69655910  0.56834251  0.65576619  1  0.20714  0  0.118793  0.109314  0  1.037989  0
H  H9  1  0.23415034  0.43599213  0.67569196  1  0.184826  0  0.124229  0.111902  0  1.000727  0
H  H10  1  0.30344069  0.34424936  0.43164737  1  0.207483  0  0.118797  0.109421  0  1.038077  0
H  H11  1  0.31909334  0.16564344  0.42259008  1  0.152452  0  0.11841  0.129057  0  1.009442  0
H  H12  1  0.79319921  0.14216677  0.56916583  1  0.112942  0  0.116005  0.12641  0  1.001544  0
H  H13  1  0.76582466  0.32430408  0.56405287  1  0.18476  0  0.124275  0.111819  0  1.000696  0
H  H14  1  0.17578630  0.85696959  0.57102054  1  0.070443  0  0.116181  0.126341  0  1.001174  0
H  H15  1  0.71907115  0.83241031  0.42083977  1  0.117818  0  0.118222  0.128401  0  1.013994  0
H  H16  1  0.72898014  0.65408126  0.42963405  1  0.194115  0  0.119445  0.108243  0  1.033566  0
H  H17  1  0.20488156  0.67498124  0.56580323  1  0.175368  0  0.125103  0.111099  0  0.997619  0
C  C18  1  0.39213292  0.54035470  0.29862588  1  0.473093  0  0.058735  0.107909  0  3.901168  0
C  C19  1  0.39716113  0.54259974  0.19724980  1  -0.003601  0  -0.076075  -0.152603  0  3.898741  0
C  C20  1  0.55157294  0.50029869  0.13747594  1  -0.052943  0  0.009503  0.099808  0  4.018166  0
C  C21  1  0.69829138  0.46106328  0.18442008  1  0.073177  0  -0.074488  -0.156425  0  3.888067  0
C  C22  1  0.68301765  0.46282921  0.28650421  1  0.444068  0  0.061624  0.11147  0  3.889593  0
C  C23  1  0.56355706  0.49767138  0.02994110  1  0.306209  0  0.094239  -0.012398  0  3.866609  0
C  C24  1  0.43449422  0.49911252  0.97134995  1  0.194488  0  0.095327  -0.010086  0  3.864909  0
C  C25  1  0.31788712  0.46227684  0.81660530  1  -0.000465  0  -0.074134  -0.156228  0  3.889785  0
C  C26  1  0.44627781  0.50063389  0.86373319  1  -0.042828  0  0.009083  0.096431  0  4.020635  0
C  C27  1  0.58188847  0.54161496  0.80425916  1  -0.046377  0  -0.076165  -0.15134  0  3.896376  0
C  C28  1  0.58876755  0.53917077  0.70281779  1  0.502936  0  0.058908  0.107628  0  3.897163  0
C  C29  1  0.33287020  0.46389107  0.71448905  1  0.468079  0  0.062311  0.111714  0  3.885739  0
C  C30  1  0.41123774  0.29719036  0.46081990  1  0.502132  0  0.058948  0.107506  0  3.897147  0
C  C31  1  0.41812471  0.19574926  0.45837425  1  -0.045981  0  -0.076235  -0.151491  0  3.896453  0
C  C32  1  0.55371727  0.13626813  0.49938679  1  -0.043653  0  0.009046  0.09642  0  4.020631  0
C  C33  1  0.68210468  0.18338995  0.53774404  1  0.000473  0  -0.074149  -0.156244  0  3.889438  0
C  C34  1  0.66711488  0.28551563  0.53613338  1  0.468612  0  0.062374  0.111942  0  3.885169  0
C  C35  1  0.56547544  0.02864661  0.50091480  1  0.195505  0  0.095317  -0.010056  0  3.864607  0
C  C36  1  0.43642051  0.97006527  0.50228724  1  0.305058  0  0.094306  -0.012347  0  3.866253  0
C  C37  1  0.30165758  0.81561130  0.53887272  1  0.073439  0  -0.074299  -0.156653  0  3.888538  0
C  C38  1  0.44840782  0.86253429  0.49967007  1  -0.052397  0  0.009426  0.099747  0  4.018468  0
C  C39  1  0.60283134  0.80275574  0.45739443  1  -0.003749  0  -0.07615  -0.152621  0  3.898686  0
C  C40  1  0.60784579  0.70137651  0.45965488  1  0.473237  0  0.058734  0.107874  0  3.901332  0
C  C41  1  0.31692024  0.71352712  0.53710793  1  0.445766  0  0.061282  0.111046  0  3.889781  0
N  N42  1  0.53161129  0.50056320  0.34278699  1  -1.251849  0  -0.312393  -0.225355  0  3.522686  0
N  N43  1  0.46748167  0.50052169  0.65851071  1  -1.251694  0  -0.31312  -0.223001  0  3.52129  0
N  N44  1  0.53249609  0.34149831  0.49950439  1  -1.251918  0  -0.313168  -0.222996  0  3.521108  0
N  N45  1  0.46835420  0.65723018  0.49942121  1  -1.251863  0  -0.312152  -0.224752  0  3.521934  0
N  N46  1  0.75021394  0.49312126  0.97987994  1  0.419542  0  0.058698  0.508888  0  4.245418  0
N  N47  1  0.24821273  0.50066889  0.02102007  1  0.422225  0  0.059424  0.508313  0  4.242855  0
N  N48  1  0.75173034  0.97896153  0.49946802  1  0.42447  0  0.05911  0.507953  0  4.241413  0
N  N49  1  0.24977407  0.02013348  0.50671250  1  0.416691  0  0.058674  0.509142  0  4.244743  0
O  O50  1  0.81282737  0.57163066  0.97457786  1  -0.413269  0  -0.100499  -0.292489  0  1.928315  0
O  O51  1  0.82766898  0.41234315  0.94982553  1  -0.41205  0  -0.102137  -0.291001  0  1.87339  0
O  O52  1  0.15579734  0.58190059  0.02656000  1  -0.407915  0  -0.09821  -0.286798  0  1.920479  0
O  O53  1  0.20058201  0.42175906  0.05058928  1  -0.422813  0  -0.102242  -0.292193  0  1.877911  0
O  O54  1  0.84431187  0.97337978  0.41828973  1  -0.411169  0  -0.097919  -0.28617  0  1.920126  0
O  O55  1  0.79917714  0.94942693  0.57843039  1  -0.421717  0  -0.102276  -0.292502  0  1.876781  0
O  O56  1  0.18733133  0.02544813  0.42814950  1  -0.413091  0  -0.100033  -0.291875  0  1.927529  0
O  O57  1  0.17217153  0.05019182  0.58745482  1  -0.4095  0  -0.102537  -0.291768  0  1.873384  0
F  F58  1  0.22603172  0.50403068  0.50519998  1  -0.831106  0  -0.197358  -0.501052  0  1.374753  0
F  F59  1  0.77395359  0.49477349  0.49598065  1  -0.831208  0  -0.197351  -0.501007  0  1.37453  0
F  F60  1  0.99995898  0.58824320  0.41174483  1  -0.832491  0  -0.238796  -0.535112  0  1.09839  0
F  F61  1  0.00002720  0.41112740  0.58886685  1  -0.833541  0  -0.24684  -0.544853  0  1.074823  0
F  F62  1  0.05233996  0.41171062  0.41112187  1  -0.833122  0  -0.241853  -0.538926  0  1.091293  0
F  F63  1  0.94764075  0.58887302  0.58827864  1  -0.833378  0  -0.241775  -0.538886  0  1.091391  0
