# generated using pymatgen
data_HoPH6C2O7
_symmetry_space_group_name_H-M   'P 1'
_cell_length_a   6.83262549
_cell_length_b   7.61845386
_cell_length_c   12.85763340
_cell_angle_alpha   90.00025664
_cell_angle_beta   89.99913743
_cell_angle_gamma   89.99901646
_symmetry_Int_Tables_number   1
_chemical_formula_structural   HoPH6C2O7
_chemical_formula_sum   'Ho4 P4 H24 C8 O28'
_cell_volume   669.29178943
_cell_formula_units_Z   4
loop_
 _symmetry_equiv_pos_site_id
 _symmetry_equiv_pos_as_xyz
  1  'x, y, z'
loop_
 _atom_site_type_symbol
 _atom_site_label
 _atom_site_symmetry_multiplicity
 _atom_site_fract_x
 _atom_site_fract_y
 _atom_site_fract_z
 _atom_site_occupancy
 _atom_site_hle17_bader_spin_density
 _atom_site_hle17_ddec_charge
 _atom_site_hle17_ddec_spin_density
 _atom_site_hle17_ddec_sum_bond_order
 _atom_site_hle17_magmom
 _atom_site_hse06_10hf_bader_spin_density
 _atom_site_hse06_10hf_ddec_charge
 _atom_site_hse06_10hf_ddec_spin_density
 _atom_site_hse06_10hf_ddec_sum_bond_order
 _atom_site_hse06_10hf_magmom
 _atom_site_hse06_bader_spin_density
 _atom_site_hse06_ddec_charge
 _atom_site_hse06_ddec_spin_density
 _atom_site_hse06_ddec_sum_bond_order
 _atom_site_hse06_magmom
 _atom_site_pbe_bader_spin_density
 _atom_site_pbe_cm5_charge
 _atom_site_pbe_ddec_charge
 _atom_site_pbe_ddec_spin_density
 _atom_site_pbe_ddec_sum_bond_order
 _atom_site_pbe_magmom
Ho  Ho0  1  0.74997272  0.63706436  0.66392412  1  0  2.317359  0  1.702113  0  0  2.182954  0  2.164356  0  0  2.297459  0  1.992418  0  0  1.558283  2.149612  0  2.195787  0
Ho  Ho1  1  0.24998711  0.13706455  0.83607841  1  0  2.31739  0  1.702072  0  0  2.182965  0  2.16437  0  0  2.297508  0  1.992364  0  0  1.558275  2.149672  0  2.195699  0
Ho  Ho2  1  0.24998781  0.36293915  0.33607378  1  0  2.317382  0  1.702133  0  0  2.182978  0  2.164347  0  0  2.297488  0  1.992393  0  0  1.558277  2.149667  0  2.195716  0
Ho  Ho3  1  0.75000854  0.86295078  0.16392493  1  0  2.317418  0  1.701897  0  0  2.183001  0  2.164142  0  0  2.297537  0  1.992143  0  0  1.558268  2.149686  0  2.19552  0
P  P4  1  0.75002234  0.18730266  0.36436685  1  0  1.664707  0  4.752128  0  0  1.512778  0  5.248006  0  0  1.565147  0  5.210971  0  0  0.375543  1.477528  0  5.275619  0
P  P5  1  0.25004177  0.68730734  0.13562052  1  0  1.664849  0  4.752028  0  0  1.51288  0  5.248128  0  0  1.565253  0  5.211096  0  0  0.375596  1.477643  0  5.275719  0
P  P6  1  0.24999527  0.81269167  0.63563260  1  0  1.665023  0  4.752087  0  0  1.51337  0  5.247458  0  0  1.565784  0  5.210317  0  0  0.37568  1.478082  0  5.275158  0
P  P7  1  0.75001243  0.31269223  0.86436572  1  0  1.664787  0  4.751989  0  0  1.513053  0  5.24759  0  0  1.565429  0  5.210529  0  0  0.375651  1.477776  0  5.275262  0
H  H8  1  0.87995229  0.06060595  0.52120686  1  0  0.16441  0  0.945058  0  0  0.176033  0  0.999828  0  0  0.179571  0  0.997865  0  0  0.121967  0.173521  0  1.001142  0
H  H9  1  0.12053443  0.56047222  0.97876747  1  0  0.164154  0  0.945554  0  0  0.175957  0  1.000063  0  0  0.179539  0  0.998032  0  0  0.12193  0.173406  0  1.00144  0
H  H10  1  0.37989369  0.93939950  0.47880791  1  0  0.16451  0  0.945066  0  0  0.176133  0  0.999843  0  0  0.179678  0  0.99787  0  0  0.122004  0.173624  0  1.001156  0
H  H11  1  0.62048319  0.43951230  0.02123300  1  0  0.164169  0  0.945483  0  0  0.175934  0  1.000102  0  0  0.179487  0  0.998123  0  0  0.121939  0.173414  0  1.001441  0
H  H12  1  0.12048975  0.93950914  0.47877315  1  0  0.16417  0  0.945472  0  0  0.175945  0  1.000061  0  0  0.179495  0  0.998086  0  0  0.121966  0.173426  0  1.001398  0
H  H13  1  0.87987981  0.43940660  0.02119776  1  0  0.164443  0  0.945116  0  0  0.176087  0  0.999884  0  0  0.179625  0  0.997916  0  0  0.121955  0.173574  0  1.001199  0
H  H14  1  0.62053372  0.06047538  0.52123588  1  0  0.164116  0  0.945578  0  0  0.175882  0  1.000125  0  0  0.17946  0  0.998096  0  0  0.121892  0.173334  0  1.0015  0
H  H15  1  0.37993398  0.56059229  0.97879134  1  0  0.164486  0  0.945057  0  0  0.176064  0  0.999883  0  0  0.179601  0  0.997921  0  0  0.12199  0.17355  0  1.001202  0
H  H16  1  0.87044300  0.68243008  0.44927612  1  0  0.453743  0  0.840488  0  0  0.423  0  0.902754  0  0  0.434843  0  0.885757  0  0  0.304778  0.414712  0  0.914763  0
H  H17  1  0.12963729  0.18237347  0.05076179  1  0  0.453861  0  0.840403  0  0  0.423114  0  0.90268  0  0  0.434957  0  0.885682  0  0  0.304864  0.414828  0  0.914688  0
H  H18  1  0.37045273  0.31757027  0.55072628  1  0  0.453648  0  0.840613  0  0  0.422929  0  0.902849  0  0  0.434758  0  0.885871  0  0  0.304734  0.414643  0  0.914856  0
H  H19  1  0.62965001  0.81762928  0.94923627  1  0  0.453715  0  0.840606  0  0  0.423045  0  0.902778  0  0  0.434855  0  0.885822  0  0  0.304812  0.414776  0  0.914768  0
H  H20  1  0.12964193  0.31763644  0.55076534  1  0  0.45378  0  0.840486  0  0  0.423051  0  0.902745  0  0  0.434882  0  0.885761  0  0  0.304847  0.414762  0  0.914756  0
H  H21  1  0.87046374  0.81757492  0.94926488  1  0  0.453498  0  0.84086  0  0  0.422834  0  0.903022  0  0  0.434637  0  0.886081  0  0  0.304708  0.414581  0  0.914991  0
H  H22  1  0.62963513  0.68236893  0.44923584  1  0  0.453795  0  0.840482  0  0  0.423051  0  0.902752  0  0  0.4349  0  0.885746  0  0  0.304857  0.414767  0  0.914756  0
H  H23  1  0.37045102  0.18243199  0.05072819  1  0  0.453606  0  0.840693  0  0  0.422932  0  0.902851  0  0  0.434736  0  0.885908  0  0  0.304764  0.414659  0  0.914844  0
H  H24  1  0.86174196  0.98268521  0.76591646  1  0  0.452053  0  0.828492  0  0  0.421796  0  0.895007  0  0  0.431774  0  0.880658  0  0  0.322491  0.414329  0  0.906071  0
H  H25  1  0.13743705  0.48200246  0.73419274  1  0  0.451673  0  0.828611  0  0  0.421504  0  0.895284  0  0  0.431455  0  0.880967  0  0  0.322867  0.414039  0  0.906351  0
H  H26  1  0.36174904  0.01731265  0.23407279  1  0  0.452254  0  0.828252  0  0  0.421996  0  0.894757  0  0  0.431972  0  0.880408  0  0  0.322573  0.414528  0  0.905824  0
H  H27  1  0.63741821  0.51804611  0.26579593  1  0  0.45176  0  0.828535  0  0  0.421549  0  0.895282  0  0  0.431501  0  0.88096  0  0  0.322883  0.414089  0  0.906342  0
H  H28  1  0.13746921  0.01797856  0.23419266  1  0  0.451621  0  0.828822  0  0  0.42145  0  0.895398  0  0  0.431399  0  0.881083  0  0  0.322842  0.413989  0  0.906461  0
H  H29  1  0.86168925  0.51726469  0.26593738  1  0  0.452381  0  0.82818  0  0  0.422079  0  0.894713  0  0  0.432061  0  0.880354  0  0  0.322608  0.414611  0  0.905782  0
H  H30  1  0.63746362  0.98202276  0.76581856  1  0  0.451772  0  0.828707  0  0  0.421613  0  0.895177  0  0  0.431558  0  0.880867  0  0  0.322949  0.414154  0  0.906234  0
H  H31  1  0.36170808  0.48269641  0.73407987  1  0  0.452356  0  0.828358  0  0  0.422058  0  0.894755  0  0  0.432035  0  0.880405  0  0  0.322609  0.414595  0  0.905815  0
C  C32  1  0.75011046  0.30102600  0.57130322  1  0  0.770207  0  3.829879  0  0  0.718183  0  4.12743  0  0  0.753044  0  4.122607  0  0  0.217629  0.693947  0  4.134156  0
C  C33  1  0.25013164  0.80100014  0.92869507  1  0  0.770563  0  3.829129  0  0  0.718573  0  4.126664  0  0  0.753446  0  4.121828  0  0  0.217669  0.694325  0  4.133408  0
C  C34  1  0.25009303  0.69898801  0.42870635  1  0  0.770513  0  3.829067  0  0  0.718363  0  4.126846  0  0  0.753228  0  4.122019  0  0  0.217677  0.694121  0  4.13358  0
C  C35  1  0.75009526  0.19899812  0.07129660  1  0  0.770379  0  3.829383  0  0  0.71831  0  4.127033  0  0  0.753172  0  4.122215  0  0  0.217675  0.694071  0  4.133767  0
C  C36  1  0.75018760  0.14014533  0.50442522  1  0  -0.600068  0  3.614073  0  0  -0.612696  0  3.846584  0  0  -0.625654  0  3.843741  0  0  -0.16152  -0.602951  0  3.846538  0
C  C37  1  0.25018197  0.64014887  0.99556565  1  0  -0.600274  0  3.614615  0  0  -0.61293  0  3.847257  0  0  -0.625908  0  3.844433  0  0  -0.161519  -0.603186  0  3.847223  0
C  C38  1  0.25014467  0.85983456  0.49557967  1  0  -0.600215  0  3.614478  0  0  -0.612967  0  3.847238  0  0  -0.625888  0  3.844344  0  0  -0.161613  -0.603244  0  3.847182  0
C  C39  1  0.75013860  0.35984677  0.00442214  1  0  -0.599964  0  3.61431  0  0  -0.612774  0  3.847089  0  0  -0.625687  0  3.844196  0  0  -0.161522  -0.60305  0  3.847032  0
O  O40  1  0.91142511  0.37230967  0.59907606  1  0  -0.717461  0  2.025769  0  0  -0.660534  0  2.266982  0  0  -0.693326  0  2.2563  0  0  -0.351163  -0.642698  0  2.274111  0
O  O41  1  0.08876148  0.87226771  0.90095041  1  0  -0.717479  0  2.024004  0  0  -0.660578  0  2.265258  0  0  -0.693414  0  2.254695  0  0  -0.351412  -0.642761  0  2.272367  0
O  O42  1  0.41143326  0.62769135  0.40092835  1  0  -0.717585  0  2.025129  0  0  -0.660641  0  2.266472  0  0  -0.69348  0  2.255872  0  0  -0.351183  -0.642807  0  2.273598  0
O  O43  1  0.58874760  0.12775536  0.09905497  1  0  -0.717436  0  2.024638  0  0  -0.660473  0  2.265903  0  0  -0.693304  0  2.255342  0  0  -0.351369  -0.642649  0  2.273014  0
O  O44  1  0.08873739  0.62773978  0.40094439  1  0  -0.717441  0  2.024337  0  0  -0.660445  0  2.265666  0  0  -0.69329  0  2.255109  0  0  -0.351347  -0.642613  0  2.272773  0
O  O45  1  0.91143322  0.12770693  0.09906149  1  0  -0.717573  0  2.025252  0  0  -0.660639  0  2.266573  0  0  -0.693455  0  2.255917  0  0  -0.351189  -0.642808  0  2.273696  0
O  O46  1  0.58875705  0.37224784  0.59905010  1  0  -0.717249  0  2.024867  0  0  -0.660376  0  2.266197  0  0  -0.693212  0  2.255635  0  0  -0.35132  -0.642547  0  2.27331  0
O  O47  1  0.41145588  0.87230722  0.90093437  1  0  -0.717457  0  2.025464  0  0  -0.66065  0  2.266781  0  0  -0.693448  0  2.256118  0  0  -0.35113  -0.642828  0  2.273917  0
O  O48  1  0.75021509  0.00686951  0.31165941  1  0  -0.992137  0  1.931264  0  0  -0.91967  0  2.214956  0  0  -0.95748  0  2.186441  0  0  -0.499869  -0.90155  0  2.230096  0
O  O49  1  0.25022860  0.50687067  0.18834305  1  0  -0.99216  0  1.93104  0  0  -0.91962  0  2.21461  0  0  -0.957426  0  2.186098  0  0  -0.499843  -0.901507  0  2.229749  0
O  O50  1  0.25016988  0.99312481  0.68834160  1  0  -0.992226  0  1.931197  0  0  -0.919727  0  2.214665  0  0  -0.957547  0  2.186136  0  0  -0.499889  -0.901605  0  2.22981  0
O  O51  1  0.75017539  0.49313022  0.81165485  1  0  -0.992183  0  1.931149  0  0  -0.919656  0  2.214603  0  0  -0.957467  0  2.186094  0  0  -0.499926  -0.901528  0  2.229749  0
O  O52  1  0.93446614  0.29484133  0.33951255  1  0  -1.001031  0  1.980574  0  0  -0.918526  0  2.255663  0  0  -0.95635  0  2.230146  0  0  -0.489135  -0.899454  0  2.269654  0
O  O53  1  0.06533101  0.79447234  0.16037088  1  0  -1.00078  0  1.980365  0  0  -0.918576  0  2.255906  0  0  -0.956405  0  2.230369  0  0  -0.489782  -0.8995  0  2.269886  0
O  O54  1  0.43444480  0.70516328  0.66048468  1  0  -1.001253  0  1.980627  0  0  -0.918823  0  2.255678  0  0  -0.956657  0  2.230159  0  0  -0.489261  -0.899738  0  2.269677  0
O  O55  1  0.56530883  0.20551565  0.83961758  1  0  -1.00094  0  1.980534  0  0  -0.918743  0  2.255972  0  0  -0.956571  0  2.230437  0  0  -0.489777  -0.899661  0  2.269954  0
O  O56  1  0.06528949  0.70553759  0.66038191  1  0  -1.000912  0  1.98064  0  0  -0.918801  0  2.256167  0  0  -0.956634  0  2.230625  0  0  -0.489773  -0.89971  0  2.270153  0
O  O57  1  0.93446854  0.20517940  0.83953136  1  0  -1.000954  0  1.980569  0  0  -0.918589  0  2.255768  0  0  -0.956419  0  2.230252  0  0  -0.489171  -0.899512  0  2.26976  0
O  O58  1  0.56529327  0.29444515  0.33963299  1  0  -1.000922  0  1.980701  0  0  -0.918733  0  2.256302  0  0  -0.956555  0  2.230769  0  0  -0.489854  -0.899656  0  2.27028  0
O  O59  1  0.43448778  0.79482783  0.16047054  1  0  -1.001136  0  1.98087  0  0  -0.918667  0  2.256014  0  0  -0.956495  0  2.2305  0  0  -0.489145  -0.899594  0  2.270006  0
O  O60  1  0.75000676  0.70595957  0.49144457  1  0  -0.954763  0  1.846086  0  0  -0.906769  0  2.057206  0  0  -0.938676  0  2.018169  0  0  -0.671093  -0.891706  0  2.080258  0
O  O61  1  0.25001454  0.20595590  0.00855530  1  0  -0.954755  0  1.846196  0  0  -0.906815  0  2.057245  0  0  -0.938687  0  2.018284  0  0  -0.671098  -0.891756  0  2.080229  0
O  O62  1  0.25001524  0.29404395  0.50855411  1  0  -0.954641  0  1.846096  0  0  -0.906691  0  2.057126  0  0  -0.938567  0  2.018153  0  0  -0.671006  -0.891626  0  2.080158  0
O  O63  1  0.75003820  0.79404368  0.99143871  1  0  -0.954561  0  1.846334  0  0  -0.906699  0  2.057221  0  0  -0.938537  0  2.018331  0  0  -0.671008  -0.89167  0  2.080113  0
O  O64  1  0.74982994  0.91635098  0.73835497  1  0  -0.908609  0  1.858662  0  0  -0.858034  0  2.066852  0  0  -0.886559  0  2.028882  0  0  -0.636515  -0.845399  0  2.090055  0
O  O65  1  0.24986405  0.41634665  0.76164828  1  0  -0.908809  0  1.858526  0  0  -0.858225  0  2.066686  0  0  -0.886755  0  2.0287  0  0  -0.636566  -0.8456  0  2.089889  0
O  O66  1  0.24986861  0.08364729  0.26165070  1  0  -0.908627  0  1.85846  0  0  -0.858038  0  2.066634  0  0  -0.886555  0  2.028653  0  0  -0.636477  -0.845413  0  2.089836  0
O  O67  1  0.74987109  0.58365556  0.23835351  1  0  -0.908944  0  1.858164  0  0  -0.858343  0  2.066323  0  0  -0.886868  0  2.02833  0  0  -0.636579  -0.845717  0  2.089531  0
