# generated using pymatgen
data_MnH18C20(NO)4
_symmetry_space_group_name_H-M   'P 1'
_cell_length_a   9.27000383
_cell_length_b   9.29683017
_cell_length_c   10.23082357
_cell_angle_alpha   90.00005314
_cell_angle_beta   89.99978252
_cell_angle_gamma   115.33799099
_symmetry_Int_Tables_number   1
_chemical_formula_structural   MnH18C20(NO)4
_chemical_formula_sum   'Mn2 H36 C40 N8 O8'
_cell_volume   796.88794094
_cell_formula_units_Z   2
loop_
 _symmetry_equiv_pos_site_id
 _symmetry_equiv_pos_as_xyz
  1  'x, y, z'
loop_
 _atom_site_type_symbol
 _atom_site_label
 _atom_site_symmetry_multiplicity
 _atom_site_fract_x
 _atom_site_fract_y
 _atom_site_fract_z
 _atom_site_occupancy
 _atom_site_pbe_cm5_charge
 _atom_site_pbe_ddec_charge
 _atom_site_pbe_ddec_spin_density
 _atom_site_pbe_ddec_sum_bond_order
 _atom_site_pbe_magmom
Mn  Mn0  1  0.50000033  0.49999915  0.50000109  1  0.622729  0.525798  -1.239316  3.215592  -1.195
Mn  Mn1  1  0.99999849  0.99999828  0.99999826  1  0.622772  0.525772  -1.239189  3.215294  -1.195
H  H2  1  0.14926489  0.87274360  0.23636836  1  0.300262  0.342908  0.000315  0.985608  0.0
H  H3  1  0.35071585  0.62727935  0.73635490  1  0.300246  0.342976  0.000315  0.985492  0.0
H  H4  1  0.85073735  0.12725590  0.76363283  1  0.300271  0.342905  0.000315  0.985605  0.0
H  H5  1  0.64928639  0.37272015  0.26364239  1  0.300266  0.34295  0.000315  0.985446  0.0
H  H6  1  0.20836548  0.56850997  0.41389692  1  0.1141  0.094977  0.000966  1.052793  0.0
H  H7  1  0.29157940  0.93147928  0.91387498  1  0.114238  0.095089  0.000965  1.052898  0.0
H  H8  1  0.79164042  0.43149312  0.58610330  1  0.114095  0.094966  0.000966  1.052772  0.0
H  H9  1  0.70842442  0.06852142  0.08612133  1  0.114241  0.095074  0.000965  1.052929  0.0
H  H10  1  0.41871727  0.04293400  0.25505115  1  0.106116  0.118758  0.000715  1.055075  0.0
H  H11  1  0.08125358  0.45707500  0.75503399  1  0.106089  0.118791  0.000714  1.055041  0.0
H  H12  1  0.58128755  0.95706908  0.74495786  1  0.10608  0.118749  0.000715  1.055092  0.0
H  H13  1  0.91874966  0.54292689  0.24496231  1  0.106104  0.118774  0.000714  1.055084  0.0
H  H14  1  0.67766133  0.07308991  0.34864277  1  0.103601  0.103207  0.000189  1.046167  0.0
H  H15  1  0.82229067  0.42688758  0.84862756  1  0.103669  0.103378  0.000189  1.045857  0.0
H  H16  1  0.32234340  0.92691554  0.65136429  1  0.103626  0.103276  0.000189  1.046174  0.0
H  H17  1  0.17770623  0.57310950  0.15136777  1  0.103667  0.103367  0.000189  1.045898  0.0
H  H18  1  0.69697222  0.84666986  0.45948774  1  0.113566  0.079413  0.000979  1.069776  0.0
H  H19  1  0.80299859  0.65330963  0.95947805  1  0.113586  0.079441  0.000979  1.069937  0.0
H  H20  1  0.30303102  0.15333202  0.54051443  1  0.113579  0.079462  0.000979  1.069696  0.0
H  H21  1  0.19700465  0.34669225  0.04051923  1  0.113599  0.079456  0.000978  1.069868  0.0
H  H22  1  0.11337128  0.23742291  0.76490780  1  0.118814  0.104572  0.000547  1.041247  0.0
H  H23  1  0.38660276  0.26260652  0.26492062  1  0.118775  0.104366  0.000548  1.041292  0.0
H  H24  1  0.88662512  0.76257297  0.23509046  1  0.118805  0.104497  0.000547  1.041384  0.0
H  H25  1  0.61339356  0.73739173  0.73508057  1  0.118773  0.104429  0.000548  1.04119  0.0
H  H26  1  0.62303149  0.49781658  0.80576985  1  0.10531  0.108518  0.000979  1.058492  0.0
H  H27  1  0.87696617  0.00223611  0.30576935  1  0.105403  0.108518  0.000979  1.058658  0.0
H  H28  1  0.37696474  0.50218404  0.19423232  1  0.105323  0.108512  0.000979  1.058467  0.0
H  H29  1  0.12303015  0.99776214  0.69422695  1  0.10539  0.108491  0.000979  1.058621  0.0
H  H30  1  0.60571927  0.31592717  0.99441015  1  0.100957  0.10346  0.000149  1.052446  0.0
H  H31  1  0.89427641  0.18413394  0.49438119  1  0.10093  0.103318  0.00015  1.052806  0.0
H  H32  1  0.39427438  0.68406987  0.00559104  1  0.100941  0.10343  0.000149  1.052455  0.0
H  H33  1  0.10571991  0.81586431  0.50561512  1  0.100906  0.103332  0.00015  1.052697  0.0
H  H34  1  0.34221944  0.10932116  0.06088857  1  0.115292  0.087365  0.000223  1.05653  0.0
H  H35  1  0.15775850  0.39068644  0.56091307  1  0.115249  0.087241  0.000223  1.056603  0.0
H  H36  1  0.65777538  0.89067352  0.93911067  1  0.11531  0.087397  0.000223  1.05645  0.0
H  H37  1  0.84223623  0.60931062  0.43908519  1  0.115256  0.087212  0.000223  1.056597  0.0
C  C38  1  0.31226586  0.68072014  0.39871216  1  0.019284  -0.068295  0.018638  3.882382  0.01
C  C39  1  0.18769837  0.81926894  0.89870734  1  0.019258  -0.068124  0.018615  3.882685  0.01
C  C40  1  0.68773896  0.31928295  0.60129001  1  0.019272  -0.068314  0.018641  3.882428  0.01
C  C41  1  0.81230487  0.18073294  0.10128799  1  0.019315  -0.068037  0.018614  3.88255  0.01
C  C42  1  0.29404894  0.80274358  0.33010581  1  0.079479  0.271492  0.00043  4.102095  -0.001
C  C43  1  0.20593634  0.69725697  0.83008916  1  0.079597  0.271622  0.000432  4.101847  -0.001
C  C44  1  0.70595855  0.19726071  0.66989734  1  0.079535  0.271587  0.00043  4.10194  -0.001
C  C45  1  0.79406639  0.30274372  0.16990714  1  0.079523  0.271445  0.000432  4.102065  -0.001
C  C46  1  0.42758579  0.94645423  0.30894465  1  -0.100636  -0.194674  0.020339  3.984259  0.011
C  C47  1  0.07238752  0.55355630  0.80893604  1  -0.100624  -0.194835  0.020303  3.984243  0.011
C  C48  1  0.57241894  0.05355122  0.69106534  1  -0.100583  -0.194678  0.020343  3.98403  0.011
C  C49  1  0.92761247  0.44644554  0.19105929  1  -0.100642  -0.194766  0.020301  3.984208  0.011
C  C50  1  0.57198697  0.96156211  0.35963697  1  -0.091263  -0.093884  0.000948  4.037057  -0.001
C  C51  1  0.92797831  0.53841947  0.85962545  1  -0.091307  -0.094073  0.000945  4.036828  -0.001
C  C52  1  0.42801885  0.03844335  0.64036813  1  -0.091328  -0.094037  0.000948  4.037121  -0.001
C  C53  1  0.07202176  0.46158001  0.14036988  1  -0.091286  -0.094071  0.000945  4.036708  -0.001
C  C54  1  0.58264207  0.83537972  0.42395341  1  0.017158  0.019653  0.011728  3.976459  0.006
C  C55  1  0.91733462  0.66460602  0.92396727  1  0.017106  0.019732  0.011718  3.976504  0.006
C  C56  1  0.41736275  0.16462336  0.57605170  1  0.017144  0.019707  0.011729  3.976444  0.006
C  C57  1  0.08266712  0.33539229  0.07603196  1  0.017078  0.01974  0.011716  3.976357  0.006
C  C58  1  0.22496359  0.25847896  0.81346448  1  0.020662  -0.07821  0.013415  3.865494  0.007
C  C59  1  0.27499436  0.24153023  0.31346463  1  0.020973  -0.077751  0.013416  3.865362  0.007
C  C60  1  0.77503231  0.74151573  0.18653574  1  0.020745  -0.078062  0.013417  3.865525  0.007
C  C61  1  0.72500354  0.75846922  0.68653754  1  0.02093  -0.07782  0.013419  3.865328  0.007
C  C62  1  0.37024115  0.38202490  0.77011070  1  0.07996  0.27477  -0.000451  4.106229  -0.002
C  C63  1  0.12973569  0.11800351  0.27012548  1  0.07995  0.274875  -0.000447  4.106972  -0.002
C  C64  1  0.62975300  0.61797332  0.22988951  1  0.07992  0.274676  -0.000451  4.106073  -0.002
C  C65  1  0.87026171  0.88199476  0.72987473  1  0.079948  0.274889  -0.000448  4.106909  -0.002
C  C66  1  0.51017341  0.40363763  0.83703238  1  -0.095248  -0.171808  0.018858  3.97238  0.011
C  C67  1  0.98980882  0.09641688  0.33701402  1  -0.095346  -0.171899  0.018853  3.972929  0.011
C  C68  1  0.48982282  0.59636299  0.16296882  1  -0.095283  -0.171804  0.018858  3.972332  0.011
C  C69  1  0.01018908  0.90358257  0.66298131  1  -0.095317  -0.171807  0.018859  3.972643  0.011
C  C70  1  0.50031085  0.30314857  0.93994087  1  -0.096128  -0.107094  -3.9e-05  4.04  -0.002
C  C71  1  0.99968027  0.19688620  0.43994330  1  -0.096214  -0.107161  -3.4e-05  4.040943  -0.002
C  C72  1  0.49968555  0.69684731  0.06005739  1  -0.09616  -0.107139  -3.9e-05  4.039978  -0.002
C  C73  1  0.00031288  0.80310965  0.56005300  1  -0.096221  -0.107374  -3.4e-05  4.040907  -0.002
C  C74  1  0.35348091  0.18518479  0.97726576  1  0.017087  0.020007  0.010025  3.958564  0.005
C  C75  1  0.14647571  0.31482152  0.47728116  1  0.017221  0.020235  0.010014  3.958857  0.005
C  C76  1  0.64651490  0.81481227  0.02273446  1  0.017144  0.020037  0.010026  3.958389  0.005
C  C77  1  0.85351744  0.68517433  0.52271710  1  0.017225  0.020477  0.010016  3.958864  0.005
N  N78  1  0.45565723  0.69258640  0.44204245  1  -0.329817  -0.16114  0.022889  3.573347  0.017
N  N79  1  0.04432020  0.80741104  0.94202404  1  -0.329867  -0.16142  0.022872  3.5739  0.017
N  N80  1  0.54434651  0.30741667  0.55796070  1  -0.329814  -0.161212  0.02289  3.573485  0.017
N  N81  1  0.95568312  0.19258847  0.05797325  1  -0.329916  -0.161483  0.022873  3.57386  0.017
N  N82  1  0.21488769  0.16188646  0.91641888  1  -0.335312  -0.165894  0.014761  3.574706  0.017
N  N83  1  0.28505206  0.33810269  0.41642425  1  -0.335447  -0.165982  0.014771  3.574172  0.017
N  N84  1  0.78510763  0.83810941  0.08358134  1  -0.335388  -0.165905  0.014761  3.574626  0.017
N  N85  1  0.71494426  0.66189556  0.58357694  1  -0.3354  -0.166043  0.014773  3.574333  0.017
O  O86  1  0.14737115  0.77656044  0.28513453  1  -0.347172  -0.448305  -0.000161  2.388737  0.0
O  O87  1  0.35262075  0.72346863  0.78512731  1  -0.347282  -0.448424  -0.00016  2.388486  0.0
O  O88  1  0.85263525  0.22344384  0.71486764  1  -0.347211  -0.448347  -0.000161  2.388774  0.0
O  O89  1  0.64738415  0.27653208  0.21486900  1  -0.34724  -0.448283  -0.00016  2.388522  0.0
O  O90  1  0.37473147  0.47956807  0.67114035  1  -0.327459  -0.502734  -0.016801  2.415098  -0.014
O  O91  1  0.12530004  0.02047732  0.17117238  1  -0.32755  -0.502749  -0.016757  2.414884  -0.014
O  O92  1  0.62525968  0.52042302  0.32885693  1  -0.327442  -0.502698  -0.016803  2.414996  -0.014
O  O93  1  0.87469895  0.97952215  0.82882784  1  -0.327548  -0.502751  -0.01676  2.41502  -0.014
