# generated using pymatgen
data_Zn8H54C79(O13F3)2
_symmetry_space_group_name_H-M   'P 1'
_cell_length_a   18.44303417
_cell_length_b   18.49299162
_cell_length_c   18.50256193
_cell_angle_alpha   59.83761343
_cell_angle_beta   60.17281382
_cell_angle_gamma   59.97524159
_symmetry_Int_Tables_number   1
_chemical_formula_structural   Zn8H54C79(O13F3)2
_chemical_formula_sum   'Zn8 H54 C79 O26 F6'
_cell_volume   4461.71529128
_cell_formula_units_Z   1
loop_
 _symmetry_equiv_pos_site_id
 _symmetry_equiv_pos_as_xyz
  1  'x, y, z'
loop_
 _atom_site_type_symbol
 _atom_site_label
 _atom_site_symmetry_multiplicity
 _atom_site_fract_x
 _atom_site_fract_y
 _atom_site_fract_z
 _atom_site_occupancy
 _atom_site_pbe_bader_charge
 _atom_site_pbe_bader_spin_density
 _atom_site_pbe_cm5_charge
 _atom_site_pbe_ddec_charge
 _atom_site_pbe_ddec_spin_density
 _atom_site_pbe_ddec_sum_bond_order
 _atom_site_pbe_magmom
Zn  Zn0  1  0.53864324  0.54571566  0.04663359  1  1.310884  0  0.675776  0.956558  0  2.393524  0
Zn  Zn1  1  0.54121483  0.54557999  0.87178535  1  1.312527  0  0.668044  0.952577  0  2.383917  0
Zn  Zn2  1  0.36925901  0.54344401  0.04636141  1  1.305187  0  0.673085  0.961834  0  2.399441  0
Zn  Zn3  1  0.54423051  0.36949153  0.04364610  1  1.303546  0  0.676248  0.967344  0  2.356528  0
Zn  Zn4  1  0.95368679  0.95545405  0.46034119  1  1.315804  0  0.676012  0.961831  0  2.378754  0
Zn  Zn5  1  0.12665431  0.95815975  0.45675313  1  1.298399  0  0.668851  0.943749  0  2.401909  0
Zn  Zn6  1  0.95341015  0.96034020  0.63052100  1  1.300898  0  0.672506  0.959226  0  2.391728  0
Zn  Zn7  1  0.95350874  0.13269733  0.45514550  1  1.308028  0  0.671687  0.965926  0  2.366162  0
H  H8  1  0.72505020  0.68418701  0.05705999  1  0.06375  0  0.10773  0.127022  0  0.987665  0
H  H9  1  0.82016390  0.57917200  0.97043134  1  0.059436  0  0.102974  0.100882  0  0.990776  0
H  H10  1  0.08771424  0.31753717  0.30975644  1  0.107724  0  0.109965  0.115786  0  0.989011  0
H  H11  1  0.37860455  0.02795387  0.33081935  1  0.064068  0  0.105111  0.130732  0  1.003157  0
H  H12  1  0.36428129  0.03466835  0.23855080  1  0.053094  0  0.099719  0.120959  0  0.980494  0
H  H13  1  0.45883017  0.13468225  0.13768017  1  0.079802  0  0.102869  0.05597  0  0.957207  0
H  H14  1  0.69947353  0.41754959  0.68076957  1  0.090963  0  0.111425  0.118806  0  0.987724  0
H  H15  1  0.79529255  0.32311076  0.58528507  1  0.115482  0  0.112268  0.117509  0  0.985907  0
H  H16  1  0.75185461  0.03508504  0.86867483  1  0.06003  0  0.105826  0.070118  0  0.954326  0
H  H17  1  0.65497483  0.13150578  0.96741235  1  0.076953  0  0.105047  0.067814  0  0.95975  0
H  H18  1  0.82302513  0.42250405  0.04479102  1  0.071638  0  0.09981  0.103171  0  0.997053  0
H  H19  1  0.72265895  0.88690286  0.46416680  1  0.055551  0  0.106343  0.127334  0  0.998301  0
H  H20  1  0.08416045  0.79353548  0.81772892  1  0.124596  0  0.117751  0.149271  0  0.978799  0
H  H21  1  0.37543585  0.75592783  0.53417647  1  0.049347  0  0.098021  0.072921  0  0.964133  0
H  H22  1  0.46858669  0.66222490  0.63052684  1  0.053247  0  0.097581  0.111395  0  0.980812  0
H  H23  1  0.46265181  0.75763527  0.63788239  1  0.046503  0  0.098415  0.113355  0  0.98845  0
H  H24  1  0.65734539  0.74559395  0.90988143  1  0.111723  0  0.10538  0.111233  0  1.002702  0
H  H25  1  0.75218226  0.84137697  0.81481400  1  0.086807  0  0.105153  0.110961  0  0.996062  0
H  H26  1  0.82514919  0.77252117  0.53253502  1  0.063388  0  0.094783  0.105864  0  1.028639  0
H  H27  1  0.91088742  0.68280835  0.57480995  1  0.064499  0  0.09942  0.110377  0  0.977098  0
H  H28  1  0.72511950  0.67863236  0.62787592  1  0.050575  0  0.09665  0.106682  0  0.986553  0
H  H29  1  0.81218471  0.58878351  0.66843018  1  0.037499  0  0.097931  0.106835  0  0.982716  0
H  H30  1  0.17792291  0.70175178  0.20645178  1  0.082096  0  0.106271  0.113036  0  0.999444  0
H  H31  1  0.81380356  0.31181123  0.28580199  1  0.106576  0  0.109829  0.120781  0  0.999113  0
H  H32  1  0.69582696  0.18823799  0.20146005  1  0.119244  0  0.114624  0.129982  0  0.988776  0
H  H33  1  0.89348872  0.05463070  0.17408662  1  0.084145  0  0.105416  0.107418  0  0.985936  0
H  H34  1  0.92326963  0.89722617  0.20676273  1  0.044867  0  0.102576  0.105969  0  0.99697  0
H  H35  1  0.90935242  0.60181150  0.45730534  1  0.030374  0  0.082747  0.107698  0  1.010706  0
H  H36  1  0.93828324  0.61148560  0.34660280  1  0.015712  0  0.084459  0.109368  0  1.003584  0
H  H37  1  0.02180160  0.58255249  0.38742221  1  0.027056  0  0.086367  0.112915  0  1.002685  0
H  H38  1  0.98613207  0.74244973  0.29161478  1  0.027528  0  0.088106  0.07585  0  0.984151  0
H  H39  1  0.95538647  0.73329001  0.40167178  1  0.026019  0  0.087333  0.074818  0  0.99649  0
H  H40  1  0.79718688  0.75800232  0.42373415  1  0.015716  0  0.08948  0.083434  0  0.994462  0
H  H41  1  0.08265438  0.79756931  0.30053946  1  0.124058  0  0.103355  0.105177  0  1.030889  0
H  H42  1  0.83128586  0.77685863  0.31002973  1  0.009047  0  0.095608  0.095677  0  0.96772  0
H  H43  1  0.41826487  0.03069662  0.45923946  1  0.030251  0  0.084124  0.110959  0  1.007415  0
H  H44  1  0.30585639  0.06863654  0.46752564  1  -0.009313  0  0.081163  0.107744  0  1.01917  0
H  H45  1  0.33225945  0.07465966  0.54395438  1  0.020383  0  0.085427  0.111297  0  1.003147  0
H  H46  1  0.27695072  0.94714211  0.61402451  1  0.011949  0  0.084501  0.072343  0  0.986865  0
H  H47  1  0.38736860  0.90945840  0.60884003  1  0.01092  0  0.085068  0.070268  0  0.984575  0
H  H48  1  0.44014211  0.87521270  0.47095379  1  0.021321  0  0.088628  0.082377  0  0.978571  0
H  H49  1  0.32876801  0.91508241  0.47652421  1  0.042596  0  0.089016  0.088814  0  1.003342  0
H  H50  1  0.49364702  0.39728344  0.46679551  1  0.039856  0  0.083712  0.109074  0  1.003424  0
H  H51  1  0.43762003  0.51328204  0.42865267  1  -0.00583  0  0.081528  0.104243  0  1.009571  0
H  H52  1  0.36656282  0.85290498  0.24702282  1  0.027708  0  0.096083  0.104835  0  0.986195  0
H  H53  1  0.40956086  0.43865324  0.42154281  1  0.023509  0  0.086195  0.11237  0  1.002596  0
H  H54  1  0.50465312  0.51389127  0.27229371  1  0.036155  0  0.085221  0.078841  0  1.003659  0
H  H55  1  0.55642411  0.39846388  0.30813099  1  0.017987  0  0.084953  0.077049  0  0.994785  0
H  H56  1  0.65283379  0.40893379  0.35441228  1  0.039848  0  0.092132  0.091672  0  0.98782  0
H  H57  1  0.59239030  0.52223982  0.34116197  1  0.027668  0  0.089232  0.088298  0  0.998655  0
H  H58  1  0.36900428  0.75664218  0.34375835  1  0.048799  0  0.097427  0.108007  0  0.982815  0
H  H59  1  0.46357404  0.75517888  0.15189486  1  0.043077  0  0.097581  0.110381  0  0.978728  0
H  H60  1  0.46544422  0.65972942  0.24880696  1  0.061738  0  0.095237  0.110543  0  1.013577  0
H  H61  1  0.18344855  0.41216906  0.21727330  1  0.100536  0  0.110705  0.118302  0  0.989096  0
C  C62  1  0.63520865  0.36538607  0.86051726  1  1.549063  0  0.22828  0.603671  0  4.181299  0
C  C63  1  0.73673399  0.34370209  0.21036434  1  -0.061845  0  0.010072  0.071874  0  3.945588  0
C  C64  1  0.85692877  0.01698150  0.23818921  1  -0.014614  0  -0.086586  -0.101246  0  4.006161  0
C  C65  1  0.35797721  0.63925483  0.14141704  1  1.491497  0  0.227251  0.605952  0  4.176619  0
C  C66  1  0.87359149  0.92816577  0.25687002  1  -0.066324  0  -0.100328  -0.159187  0  4.00624  0
C  C67  1  0.82640106  0.87887979  0.33826396  1  0.018054  0  -0.008381  0.140665  0  3.990057  0
C  C68  1  0.76236725  0.92148876  0.40034023  1  0.01474  0  -0.107705  -0.276415  0  3.999473  0
C  C69  1  0.74772875  0.00974408  0.38063108  1  0.433447  0  0.095114  0.259699  0  4.056285  0
C  C70  1  0.79380628  0.06002855  0.30022278  1  0.053641  0  -0.019839  -0.041496  0  4.024221  0
C  C71  1  0.33728007  0.72643926  0.22388699  1  -0.086349  0  -0.002303  0.065459  0  3.879272  0
C  C72  1  0.30141226  0.69652881  0.19741666  1  -0.001238  0  -0.01416  -0.079618  0  3.979338  0
C  C73  1  0.67577879  0.49711198  0.21945572  1  0.0309  0  -0.015606  -0.033269  0  3.930836  0
C  C74  1  0.20793141  0.72380362  0.22638865  1  0.092734  0  -0.083773  -0.099977  0  3.980872  0
C  C75  1  0.15461404  0.77739970  0.27904138  1  -0.137246  0  -0.08413  -0.10021  0  3.982225  0
C  C76  1  0.19157006  0.80706895  0.30585336  1  -0.004654  0  -0.01514  -0.08129  0  3.982444  0
C  C77  1  0.63576359  0.63900205  0.86653163  1  1.532343  0  0.227535  0.608643  0  4.176741  0
C  C78  1  0.28379271  0.78031251  0.27655764  1  -0.01966  0  -0.002875  0.064322  0  3.881894  0
C  C79  1  0.36217371  0.78599535  0.27812286  1  0.007269  0  -0.151052  -0.196636  0  3.885512  0
C  C80  1  0.42262151  0.72504310  0.21854617  1  0.014402  0  -0.153126  -0.204441  0  3.881557  0
C  C81  1  0.34088624  0.21161374  0.22196598  1  -0.05892  0  -0.010898  -0.032902  0  3.887238  0
C  C82  1  0.30610552  0.30366013  0.19968722  1  0.001983  0  -0.004058  -0.041763  0  3.958306  0
C  C83  1  0.21311916  0.34042633  0.23311013  1  0.038359  0  -0.078432  -0.097486  0  3.958672  0
C  C84  1  0.67755191  0.58402305  0.17459393  1  0.411293  0  0.090598  0.232236  0  4.050702  0
C  C85  1  0.15943621  0.28732841  0.28470683  1  -0.086249  0  -0.075108  -0.083756  0  3.960439  0
C  C86  1  0.19522245  0.19437409  0.30611672  1  0.006111  0  -0.010914  -0.07918  0  3.966804  0
C  C87  1  0.28743206  0.15830181  0.27370558  1  0.010028  0  0.00368  0.08869  0  3.896142  0
C  C88  1  0.36475345  0.07280422  0.26847313  1  -0.026989  0  -0.154573  -0.28993  0  3.867522  0
C  C89  1  0.36260578  0.36120624  0.14241072  1  1.554756  0  0.228469  0.604031  0  4.179695  0
C  C90  1  0.42468341  0.13332589  0.20666847  1  0.548188  0  0.032958  0.19577  0  3.859523  0
C  C91  1  0.72544830  0.21593732  0.83889799  1  -0.023722  0  -0.005382  -0.006668  0  3.902096  0
C  C92  1  0.69396351  0.30848557  0.80365283  1  -0.028018  0  -0.002407  -0.041311  0  3.942627  0
C  C93  1  0.72146665  0.34548399  0.71077702  1  0.014346  0  -0.071314  -0.087314  0  3.943322  0
C  C94  1  0.77542734  0.29240117  0.65710768  1  0.060186  0  -0.070813  -0.081487  0  3.938585  0
C  C95  1  0.72758034  0.61537363  0.08674404  1  -0.011015  0  -0.109111  -0.222735  0  4.059771  0
C  C96  1  0.80522358  0.19925727  0.69315565  1  -0.032346  0  -0.003042  -0.044613  0  3.943222  0
C  C97  1  0.77928961  0.16306337  0.78551657  1  -0.032762  0  -0.004875  -0.003717  0  3.896643  0
C  C98  1  0.78164569  0.07706745  0.86340529  1  0.558658  0  0.028984  0.10898  0  3.873913  0
C  C99  1  0.72096039  0.13755205  0.92433294  1  0.575694  0  0.030138  0.114068  0  3.869608  0
C  C100  1  0.33794654  0.72631241  0.71491353  1  0.026731  0  0.000224  0.087764  0  3.908356  0
C  C101  1  0.36095428  0.63760552  0.86337413  1  1.561491  0  0.226996  0.627191  0  4.176052  0
C  C102  1  0.30291386  0.69404141  0.80728535  1  -0.011847  0  -0.020125  -0.189428  0  3.951349  0
C  C103  1  0.20905092  0.72128904  0.84059544  1  0.422924  0  0.109316  0.282844  0  4.029717  0
C  C104  1  0.15593410  0.77498631  0.78696472  1  0.013682  0  -0.093425  -0.231929  0  3.96961  0
C  C105  1  0.19367430  0.80575937  0.69423857  1  0.043849  0  -0.007916  -0.041388  0  3.989121  0
C  C106  1  0.78603596  0.28558852  0.26789343  1  0.063265  0  -0.077212  -0.13667  0  3.93327  0
C  C107  1  0.28600852  0.78006747  0.65984111  1  -0.016767  0  -0.007439  0.005178  0  3.87152  0
C  C108  1  0.36564438  0.78906285  0.57542804  1  0.010984  0  -0.074144  -0.001659  0  3.828776  0
C  C109  1  0.42420970  0.72708522  0.63860615  1  -0.025241  0  -0.151761  -0.240902  0  3.862506  0
C  C110  1  0.74782609  0.69717875  0.72341540  1  -0.002554  0  -0.003289  0.062398  0  3.880766  0
C  C111  1  0.69432025  0.69416692  0.81012019  1  -0.017871  0  -0.013439  -0.078546  0  3.982373  0
C  C112  1  0.69806125  0.74692706  0.84210494  1  -0.03852  0  -0.084009  -0.101434  0  3.986765  0
C  C113  1  0.64218224  0.36265714  0.13369333  1  1.565836  0  0.231729  0.605763  0  4.160554  0
C  C114  1  0.75133330  0.80037739  0.78894638  1  -0.05106  0  -0.084247  -0.100769  0  3.982712  0
C  C115  1  0.80455466  0.80380614  0.70077222  1  0.025095  0  -0.013274  -0.077322  0  3.97972  0
C  C116  1  0.80179863  0.75008891  0.67053249  1  -0.019058  0  -0.003435  0.064401  0  3.883092  0
C  C117  1  0.80428311  0.19351339  0.30181113  1  -0.052062  0  -0.007095  -0.068235  0  3.917235  0
C  C118  1  0.83940760  0.71994028  0.59270963  1  -0.057316  0  -0.152708  -0.20391  0  3.876958  0
C  C119  1  0.77754112  0.66074631  0.65207021  1  0.012345  0  -0.151313  -0.200401  0  3.887848  0
C  C120  1  0.13705824  0.13865070  0.36163870  1  1.553003  0  0.227721  0.607514  0  4.180159  0
C  C121  1  0.85977972  0.86230471  0.64343869  1  1.534943  0  0.227397  0.609895  0  4.175242  0
C  C122  1  0.13442336  0.86343914  0.36271951  1  1.561029  0  0.227371  0.608737  0  4.175786  0
C  C123  1  0.86120694  0.14295912  0.63569623  1  1.57944  0  0.229679  0.605983  0  4.180915  0
C  C124  1  0.13594315  0.86294975  0.63777809  1  1.592956  0  0.230432  0.608073  0  4.168851  0
C  C125  1  0.78032132  0.55645168  0.03961884  1  0.051604  0  -0.093471  -0.05386  0  4.063896  0
C  C126  1  0.85908099  0.13825146  0.36198211  1  1.54642  0  0.230964  0.611846  0  4.152179  0
C  C127  1  0.78162582  0.46891817  0.08129667  1  -0.072593  0  -0.101899  -0.154043  0  4.015733  0
C  C128  1  0.77347682  0.15646338  0.27624853  1  0.001544  0  0.009691  0.084779  0  3.956515  0
C  C129  1  0.72977998  0.43906062  0.17000079  1  -0.045988  0  -0.003029  0.047935  0  3.967968  0
C  C130  1  0.84424901  0.78263292  0.35874431  1  0.008191  0  -0.157827  -0.197872  0  3.96215  0
C  C131  1  0.93942088  0.72238998  0.35870643  1  -0.023762  0  -0.164381  -0.092325  0  3.963865  0
C  C132  1  0.95307659  0.62419767  0.38907004  1  -0.0739  0  -0.244852  -0.354796  0  3.988609  0
C  C133  1  0.37161343  0.88212207  0.51723557  1  -0.025666  0  -0.165108  -0.179538  0  3.950227  0
C  C134  1  0.34516474  0.94122744  0.56765413  1  0.006629  0  -0.168417  -0.087839  0  3.973332  0
C  C135  1  0.35082736  0.03371581  0.50631671  1  -0.045777  0  -0.245123  -0.355884  0  3.980384  0
C  C136  1  0.61544695  0.47084047  0.31371697  1  -0.010572  0  -0.162601  -0.18464  0  3.971162  0
C  C137  1  0.53436134  0.45839540  0.32285144  1  0.001954  0  -0.167365  -0.087732  0  3.939911  0
C  C138  1  0.46507054  0.45145801  0.41495056  1  -0.060647  0  -0.24496  -0.352997  0  3.991174  0
C  C139  1  0.72207053  0.21478345  0.22067400  1  0.006181  0  -0.073804  -0.133782  0  3.924392  0
C  C140  1  0.70237380  0.30680941  0.18844937  1  -0.059011  0  -0.007362  -0.0712  0  3.930364  0
O  O141  1  0.49932987  0.49998843  0.00151631  1  -1.201331  0  -0.572782  -1.030189  0  2.541025  0
O  O142  1  0.88286277  0.05946456  0.67641033  1  -1.170917  0  -0.305808  -0.53138  0  2.344411  0
O  O143  1  0.17571096  0.88547426  0.55426297  1  -1.153042  0  -0.305178  -0.531766  0  2.346909  0
O  O144  1  0.61081181  0.32444255  0.94365559  1  -1.172238  0  -0.306059  -0.533507  0  2.334279  0
O  O145  1  0.88086233  0.18011823  0.38177909  1  -1.165301  0  -0.315725  -0.546463  0  2.336174  0
O  O146  1  0.05231612  0.88425747  0.67725501  1  -1.188454  0  -0.312103  -0.5393  0  2.339842  0
O  O147  1  0.87981031  0.05442058  0.38861096  1  -1.150463  0  -0.301732  -0.536337  0  2.402039  0
O  O148  1  0.05067746  0.88442568  0.38595322  1  -1.156664  0  -0.313351  -0.541465  0  2.342358  0
O  O149  1  0.88179379  0.18260292  0.55214612  1  -1.187862  0  -0.312322  -0.544472  0  2.325546  0
O  O150  1  0.17674279  0.05479506  0.38326199  1  -1.159892  0  -0.310141  -0.535098  0  2.334147  0
O  O151  1  0.87320357  0.89413855  0.68128658  1  -1.162201  0  -0.315858  -0.547364  0  2.33451  0
O  O152  1  0.60519192  0.62482995  0.94955188  1  -1.174453  0  -0.311924  -0.542227  0  2.350134  0
O  O153  1  0.44165197  0.61484520  0.12274926  1  -1.15063  0  -0.308091  -0.535812  0  2.343825  0
O  O154  1  0.62121113  0.61060623  0.82630055  1  -1.16057  0  -0.313127  -0.541332  0  2.327888  0
O  O155  1  0.32254694  0.44470219  0.12379441  1  -1.165138  0  -0.311715  -0.539786  0  2.340591  0
O  O156  1  0.44444558  0.62034564  0.82158876  1  -1.158073  0  -0.312503  -0.540748  0  2.320266  0
O  O157  1  0.62620339  0.32205042  0.10704650  1  -1.154526  0  -0.310972  -0.53786  0  2.336648  0
O  O158  1  0.32398159  0.61141137  0.94687624  1  -1.166788  0  -0.313056  -0.542396  0  2.375399  0
O  O159  1  0.61005450  0.44566829  0.11992997  1  -1.170696  0  -0.300667  -0.536493  0  2.423381  0
O  O160  1  0.44612620  0.32142728  0.11667213  1  -1.16689  0  -0.307457  -0.536507  0  2.336217  0
O  O161  1  0.61458217  0.44909800  0.82115729  1  -1.160219  0  -0.312199  -0.54231  0  2.333588  0
O  O162  1  0.31908067  0.61915423  0.11655953  1  -1.158219  0  -0.314437  -0.543957  0  2.336489  0
O  O163  1  0.99661074  0.00262677  0.50073544  1  -1.19479  0  -0.572287  -1.028676  0  2.54199  0
O  O164  1  0.05341923  0.17873501  0.38301183  1  -1.175781  0  -0.314401  -0.547658  0  2.333431  0
O  O165  1  0.88913027  0.87572422  0.56053441  1  -1.176968  0  -0.308236  -0.535848  0  2.331459  0
O  O166  1  0.17466111  0.88595603  0.38380367  1  -1.169236  0  -0.312934  -0.541676  0  2.338842  0
F  F167  1  0.68492140  0.04899623  0.44305132  1  -0.644249  0  -0.120501  -0.165357  0  1.301515  0
F  F168  1  0.48875821  0.11482836  0.23908557  1  -0.632135  0  -0.154345  -0.20291  0  1.234705  0
F  F169  1  0.86410981  0.02299864  0.87467116  1  -0.620577  0  -0.147305  -0.179045  0  1.271886  0
F  F170  1  0.76193831  0.12686058  0.97682412  1  -0.620387  0  -0.145585  -0.177803  0  1.270114  0
F  F171  1  0.16584626  0.69541833  0.92911223  1  -0.624143  0  -0.103933  -0.139144  0  1.346403  0
F  F172  1  0.62646302  0.64319231  0.21990264  1  -0.636336  0  -0.113393  -0.167304  0  1.332956  0
