# generated using pymatgen
data_CuH7C6N3ClO
_symmetry_space_group_name_H-M   'P 1'
_cell_length_a   6.02360458
_cell_length_b   6.77613804
_cell_length_c   18.40249536
_cell_angle_alpha   90.00369305
_cell_angle_beta   90.00117786
_cell_angle_gamma   93.67632035
_symmetry_Int_Tables_number   1
_chemical_formula_structural   CuH7C6N3ClO
_chemical_formula_sum   'Cu4 H28 C24 N12 Cl4 O4'
_cell_volume   749.58485749
_cell_formula_units_Z   4
loop_
 _symmetry_equiv_pos_site_id
 _symmetry_equiv_pos_as_xyz
  1  'x, y, z'
loop_
 _atom_site_type_symbol
 _atom_site_label
 _atom_site_symmetry_multiplicity
 _atom_site_fract_x
 _atom_site_fract_y
 _atom_site_fract_z
 _atom_site_occupancy
 _atom_site_hle17_bader_spin_density
 _atom_site_hle17_ddec_charge
 _atom_site_hle17_ddec_spin_density
 _atom_site_hle17_ddec_sum_bond_order
 _atom_site_hle17_magmom
 _atom_site_hse06_10hf_bader_spin_density
 _atom_site_hse06_10hf_ddec_charge
 _atom_site_hse06_10hf_ddec_spin_density
 _atom_site_hse06_10hf_ddec_sum_bond_order
 _atom_site_hse06_10hf_magmom
 _atom_site_hse06_bader_spin_density
 _atom_site_hse06_ddec_charge
 _atom_site_hse06_ddec_spin_density
 _atom_site_hse06_ddec_sum_bond_order
 _atom_site_hse06_magmom
 _atom_site_pbe_bader_spin_density
 _atom_site_pbe_cm5_charge
 _atom_site_pbe_ddec_charge
 _atom_site_pbe_ddec_spin_density
 _atom_site_pbe_ddec_sum_bond_order
 _atom_site_pbe_magmom
Cu  Cu0  1  0.92892664  0.33783187  0.44777677  1  0  0.441785  0  1.820032  0  0  0.325789  0  2.297077  0  0  0.326403  0  2.251364  0  0  0.434258  0.328513  0  2.325445  0
Cu  Cu1  1  0.07109498  0.16216875  0.94776787  1  0  0.441832  0  1.819913  0  0  0.32584  0  2.296926  0  0  0.326495  0  2.251223  0  0  0.434246  0.328559  0  2.32531  0
Cu  Cu2  1  0.07105648  0.66215871  0.55223028  1  0  0.441861  0  1.819966  0  0  0.325868  0  2.296946  0  0  0.326489  0  2.251224  0  0  0.434286  0.328583  0  2.325322  0
Cu  Cu3  1  0.92891669  0.83784996  0.05222940  1  0  0.441765  0  1.819961  0  0  0.325837  0  2.296989  0  0  0.32648  0  2.2513  0  0  0.434272  0.328557  0  2.325363  0
H  H4  1  0.42001000  0.30131986  0.00910525  1  0  0.279576  0  0.926248  0  0  0.26759  0  0.989188  0  0  0.271967  0  0.986392  0  0  0.282654  0.264325  0  0.991507  0
H  H5  1  0.57997351  0.19862397  0.50908120  1  0  0.279671  0  0.926213  0  0  0.267653  0  0.989225  0  0  0.272058  0  0.986348  0  0  0.282722  0.264366  0  0.991607  0
H  H6  1  0.57997923  0.69866333  0.99090614  1  0  0.279545  0  0.926153  0  0  0.267556  0  0.989156  0  0  0.271957  0  0.986272  0  0  0.282645  0.264291  0  0.991468  0
H  H7  1  0.42000005  0.80134885  0.49090520  1  0  0.279768  0  0.925988  0  0  0.267713  0  0.989083  0  0  0.272116  0  0.986193  0  0  0.282716  0.264442  0  0.991413  0
H  H8  1  0.27591726  0.49289494  0.98534718  1  0  0.277846  0  0.919172  0  0  0.262704  0  0.989521  0  0  0.267607  0  0.984822  0  0  0.285892  0.259023  0  0.993107  0
H  H9  1  0.72412736  0.00709249  0.48532803  1  0  0.277974  0  0.919096  0  0  0.26278  0  0.989565  0  0  0.267675  0  0.98489  0  0  0.285948  0.259103  0  0.993155  0
H  H10  1  0.72409990  0.50710752  0.01466476  1  0  0.277891  0  0.919168  0  0  0.262746  0  0.989544  0  0  0.267645  0  0.984859  0  0  0.285895  0.259062  0  0.993139  0
H  H11  1  0.27586530  0.99289219  0.51466380  1  0  0.277815  0  0.919233  0  0  0.26265  0  0.989622  0  0  0.267546  0  0.984946  0  0  0.285857  0.258973  0  0.993203  0
H  H12  1  0.03117797  0.29530393  0.08726717  1  0  0.260743  0  0.976798  0  0  0.238779  0  1.053721  0  0  0.246174  0  1.048268  0  0  0.284859  0.233592  0  1.057566  0
H  H13  1  0.96882826  0.20470417  0.58724536  1  0  0.260754  0  0.977322  0  0  0.238736  0  1.054177  0  0  0.246129  0  1.048726  0  0  0.284937  0.233551  0  1.05802  0
H  H14  1  0.96882009  0.70468667  0.91275347  1  0  0.260716  0  0.977415  0  0  0.238737  0  1.054208  0  0  0.246129  0  1.048758  0  0  0.28499  0.233553  0  1.05805  0
H  H15  1  0.03115206  0.79529380  0.41274538  1  0  0.260869  0  0.977176  0  0  0.238861  0  1.054022  0  0  0.246256  0  1.048571  0  0  0.285016  0.233673  0  1.057866  0
H  H16  1  0.52552541  0.50335296  0.26135667  1  0  0.107626  0  0.956934  0  0  0.118549  0  1.017529  0  0  0.121635  0  1.016571  0  0  0.109391  0.116178  0  1.018572  0
H  H17  1  0.47451154  0.99670072  0.76133310  1  0  0.107764  0  0.957207  0  0  0.11866  0  1.017806  0  0  0.121759  0  1.01683  0  0  0.10949  0.116295  0  1.018844  0
H  H18  1  0.47446885  0.49670122  0.73865853  1  0  0.107769  0  0.957148  0  0  0.118753  0  1.01763  0  0  0.121826  0  1.016683  0  0  0.109566  0.116402  0  1.018655  0
H  H19  1  0.52551066  0.00326448  0.23866185  1  0  0.107759  0  0.957162  0  0  0.118697  0  1.01773  0  0  0.121786  0  1.016766  0  0  0.10952  0.116379  0  1.018712  0
H  H20  1  0.87319214  0.31473444  0.17912521  1  0  0.112994  0  0.955525  0  0  0.122897  0  1.016871  0  0  0.126521  0  1.015801  0  0  0.107825  0.120273  0  1.017713  0
H  H21  1  0.12681562  0.18535487  0.67911404  1  0  0.112901  0  0.955673  0  0  0.12282  0  1.017006  0  0  0.126448  0  1.015924  0  0  0.107804  0.120198  0  1.017849  0
H  H22  1  0.12678210  0.68534190  0.82088456  1  0  0.112972  0  0.955561  0  0  0.12287  0  1.016928  0  0  0.126503  0  1.015844  0  0  0.10782  0.120248  0  1.017771  0
H  H23  1  0.87319478  0.81462243  0.32087128  1  0  0.112914  0  0.955555  0  0  0.122852  0  1.016886  0  0  0.126468  0  1.015804  0  0  0.107846  0.120229  0  1.017727  0
H  H24  1  0.75298395  0.26176473  0.30646064  1  0  0.084197  0  0.959089  0  0  0.090378  0  1.030542  0  0  0.094515  0  1.025466  0  0  0.112525  0.087199  0  1.034526  0
H  H25  1  0.24704398  0.23828579  0.80646363  1  0  0.084206  0  0.95894  0  0  0.090236  0  1.030595  0  0  0.094386  0  1.025502  0  0  0.112465  0.087054  0  1.034562  0
H  H26  1  0.24703385  0.73827025  0.69353935  1  0  0.084092  0  0.958977  0  0  0.090221  0  1.030544  0  0  0.094357  0  1.025481  0  0  0.112486  0.087062  0  1.034477  0
H  H27  1  0.75297273  0.76166343  0.19352440  1  0  0.08416  0  0.959056  0  0  0.090304  0  1.03062  0  0  0.094458  0  1.025544  0  0  0.112493  0.087125  0  1.034576  0
H  H28  1  0.37434500  0.44889536  0.38735629  1  0  0.089073  0  0.952272  0  0  0.091411  0  1.025614  0  0  0.095585  0  1.022009  0  0  0.103734  0.088099  0  1.028643  0
H  H29  1  0.62568929  0.05110303  0.88733843  1  0  0.088787  0  0.952695  0  0  0.091251  0  1.025847  0  0  0.095446  0  1.022192  0  0  0.103649  0.087959  0  1.028887  0
H  H30  1  0.62566012  0.55110117  0.61264913  1  0  0.088926  0  0.952528  0  0  0.091344  0  1.025746  0  0  0.095537  0  1.022094  0  0  0.103685  0.088023  0  1.028789  0
H  H31  1  0.37432692  0.94886246  0.11265557  1  0  0.088762  0  0.95267  0  0  0.091259  0  1.025806  0  0  0.095457  0  1.022145  0  0  0.103647  0.087991  0  1.028813  0
C  C32  1  0.31677588  0.43578581  0.13547432  1  0  0.499398  0  3.872734  0  0  0.453914  0  4.159856  0  0  0.481493  0  4.159484  0  0  0.233433  0.435241  0  4.159855  0
C  C33  1  0.68322407  0.06425512  0.63545829  1  0  0.498801  0  3.873719  0  0  0.453501  0  4.160414  0  0  0.481001  0  4.160167  0  0  0.233243  0.434871  0  4.160338  0
C  C34  1  0.68319295  0.56426095  0.86453164  1  0  0.498932  0  3.873767  0  0  0.453564  0  4.160607  0  0  0.481073  0  4.160345  0  0  0.233277  0.434951  0  4.160538  0
C  C35  1  0.31676889  0.93571033  0.36453137  1  0  0.499018  0  3.873669  0  0  0.453619  0  4.160526  0  0  0.481154  0  4.160221  0  0  0.233286  0.434988  0  4.160452  0
C  C36  1  0.21550791  0.41132720  0.20953752  1  0  -0.007301  0  3.747394  0  0  0.010921  0  3.976215  0  0  0.011786  0  3.996367  0  0  -0.000949  0.010408  0  3.962467  0
C  C37  1  0.78451971  0.08871080  0.70951793  1  0  -0.007172  0  3.747539  0  0  0.01093  0  3.976396  0  0  0.011814  0  3.996576  0  0  -0.001006  0.01044  0  3.962586  0
C  C38  1  0.78448759  0.58872107  0.79047550  1  0  -0.007073  0  3.747343  0  0  0.010994  0  3.976301  0  0  0.011872  0  3.996482  0  0  -0.001018  0.010441  0  3.962581  0
C  C39  1  0.21548426  0.91126945  0.29046955  1  0  -0.007176  0  3.748047  0  0  0.011011  0  3.976847  0  0  0.011861  0  3.997077  0  0  -0.001059  0.010517  0  3.963053  0
C  C40  1  0.35284786  0.45101223  0.26978306  1  0  -0.122441  0  3.715926  0  0  -0.142644  0  3.960283  0  0  -0.14835  0  3.980327  0  0  -0.08013  -0.139126  0  3.947213  0
C  C41  1  0.64716656  0.04902059  0.76976638  1  0  -0.12248  0  3.715579  0  0  -0.142711  0  3.960017  0  0  -0.148428  0  3.980054  0  0  -0.080187  -0.139212  0  3.946952  0
C  C42  1  0.64713352  0.54902419  0.73022453  1  0  -0.122733  0  3.715678  0  0  -0.142962  0  3.96008  0  0  -0.148656  0  3.980126  0  0  -0.080257  -0.139455  0  3.947017  0
C  C43  1  0.35284539  0.95095524  0.23022925  1  0  -0.122552  0  3.71575  0  0  -0.142837  0  3.9602  0  0  -0.148546  0  3.980243  0  0  -0.08017  -0.139372  0  3.947123  0
C  C44  1  0.99342465  0.34581770  0.22267651  1  0  -0.128063  0  3.705713  0  0  -0.148418  0  3.951054  0  0  -0.154524  0  3.972402  0  0  -0.081598  -0.14454  0  3.936858  0
C  C45  1  0.00659320  0.15423502  0.72266818  1  0  -0.128042  0  3.705526  0  0  -0.148454  0  3.95099  0  0  -0.154538  0  3.97231  0  0  -0.081613  -0.144595  0  3.936793  0
C  C46  1  0.00656446  0.65423432  0.77732715  1  0  -0.128119  0  3.70542  0  0  -0.148523  0  3.950941  0  0  -0.154611  0  3.972254  0  0  -0.081655  -0.14465  0  3.936777  0
C  C47  1  0.99342493  0.84575789  0.27731972  1  0  -0.128167  0  3.705669  0  0  -0.148622  0  3.95119  0  0  -0.154695  0  3.972511  0  0  -0.081661  -0.144765  0  3.937  0
C  C48  1  0.92190365  0.31904573  0.29387672  1  0  0.103458  0  3.687985  0  0  0.074295  0  3.942359  0  0  0.081222  0  3.955542  0  0  0.031626  0.069465  0  3.934475  0
C  C49  1  0.07810975  0.18099833  0.79387488  1  0  0.103686  0  3.687834  0  0  0.074643  0  3.942058  0  0  0.081501  0  3.955372  0  0  0.031794  0.069833  0  3.934182  0
C  C50  1  0.07809017  0.68097888  0.70612544  1  0  0.103646  0  3.687981  0  0  0.074479  0  3.942277  0  0  0.081371  0  3.955522  0  0  0.031706  0.069656  0  3.934404  0
C  C51  1  0.92190708  0.81897602  0.20611641  1  0  0.10361  0  3.688151  0  0  0.074451  0  3.942466  0  0  0.081323  0  3.955697  0  0  0.031721  0.069637  0  3.934601  0
C  C52  1  0.26976159  0.42176613  0.33951261  1  0  0.1207  0  3.669646  0  0  0.089758  0  3.927455  0  0  0.097008  0  3.940143  0  0  0.034942  0.084976  0  3.919545  0
C  C53  1  0.73027373  0.07824235  0.83949835  1  0  0.120841  0  3.669715  0  0  0.089869  0  3.927414  0  0  0.097127  0  3.940108  0  0  0.035089  0.085053  0  3.919495  0
C  C54  1  0.73024094  0.57824074  0.66049444  1  0  0.120765  0  3.669833  0  0  0.089758  0  3.92754  0  0  0.097017  0  3.940229  0  0  0.034972  0.084982  0  3.919638  0
C  C55  1  0.26974196  0.92173939  0.16049511  1  0  0.120913  0  3.669697  0  0  0.089936  0  3.927406  0  0  0.097199  0  3.940082  0  0  0.035064  0.0851  0  3.919499  0
N  N56  1  0.26269083  0.35380218  0.00824846  1  0  -0.440807  0  3.252971  0  0  -0.40359  0  3.527712  0  0  -0.410323  0  3.520063  0  0  -0.546247  -0.39906  0  3.533213  0
N  N57  1  0.73731247  0.14618738  0.50823170  1  0  -0.440763  0  3.253023  0  0  -0.403559  0  3.527499  0  0  -0.410285  0  3.519863  0  0  -0.546344  -0.399038  0  3.532975  0
N  N58  1  0.73730454  0.64619729  0.99176076  1  0  -0.440682  0  3.252775  0  0  -0.403637  0  3.527529  0  0  -0.410362  0  3.519902  0  0  -0.546315  -0.399099  0  3.533019  0
N  N59  1  0.26265456  0.85378692  0.49176285  1  0  -0.440835  0  3.252817  0  0  -0.40372  0  3.527496  0  0  -0.410438  0  3.519858  0  0  -0.546301  -0.399184  0  3.532979  0
N  N60  1  0.18600494  0.36521115  0.08035977  1  0  -0.278804  0  3.375254  0  0  -0.236437  0  3.632652  0  0  -0.253219  0  3.641224  0  0  -0.346033  -0.225424  0  3.626925  0
N  N61  1  0.81402652  0.13480770  0.58033833  1  0  -0.27894  0  3.375386  0  0  -0.236303  0  3.632403  0  0  -0.253062  0  3.641005  0  0  -0.346062  -0.225298  0  3.626657  0
N  N62  1  0.81402624  0.63480167  0.91965217  1  0  -0.278852  0  3.37526  0  0  -0.236257  0  3.632379  0  0  -0.253019  0  3.640977  0  0  -0.346121  -0.225262  0  3.626632  0
N  N63  1  0.18596677  0.86518585  0.41965241  1  0  -0.278887  0  3.375382  0  0  -0.236254  0  3.63242  0  0  -0.253021  0  3.641004  0  0  -0.346084  -0.225256  0  3.626676  0
N  N64  1  0.05611300  0.35610919  0.35218539  1  0  -0.290763  0  3.410072  0  0  -0.21856  0  3.717608  0  0  -0.225646  0  3.720945  0  0  -0.37835  -0.2145  0  3.714817  0
N  N65  1  0.94392719  0.14388654  0.85218137  1  0  -0.290839  0  3.410575  0  0  -0.218618  0  3.718118  0  0  -0.225706  0  3.721466  0  0  -0.378479  -0.214561  0  3.715345  0
N  N66  1  0.94389150  0.64390212  0.64781731  1  0  -0.290707  0  3.410396  0  0  -0.218398  0  3.717823  0  0  -0.225481  0  3.721157  0  0  -0.378362  -0.21434  0  3.71503  0
N  N67  1  0.05608787  0.85608633  0.14781372  1  0  -0.290692  0  3.410615  0  0  -0.218555  0  3.718236  0  0  -0.225645  0  3.721596  0  0  -0.37849  -0.214502  0  3.715466  0
Cl  Cl68  1  0.74368042  0.64287660  0.46473710  1  0  -0.566277  0  1.137415  0  0  -0.496859  0  1.462076  0  0  -0.510178  0  1.43145  0  0  -0.28588  -0.487223  0  1.482384  0
Cl  Cl69  1  0.25629774  0.85709592  0.96473732  1  0  -0.56617  0  1.137277  0  0  -0.496836  0  1.461963  0  0  -0.510187  0  1.431382  0  0  -0.285839  -0.487192  0  1.482258  0
Cl  Cl70  1  0.25630653  0.35709772  0.53526777  1  0  -0.566241  0  1.137346  0  0  -0.496876  0  1.462017  0  0  -0.510219  0  1.431436  0  0  -0.28589  -0.487234  0  1.48232  0
Cl  Cl71  1  0.74369441  0.14290502  0.03526756  1  0  -0.566191  0  1.137157  0  0  -0.496837  0  1.461828  0  0  -0.510174  0  1.43125  0  0  -0.285869  -0.487197  0  1.48213  0
O  O72  1  0.50877818  0.51116075  0.12636307  1  0  -0.543062  0  1.930807  0  0  -0.500516  0  2.16243  0  0  -0.519746  0  2.156101  0  0  -0.301886  -0.487458  0  2.166601  0
O  O73  1  0.49126865  0.98888498  0.62634987  1  0  -0.542735  0  1.931638  0  0  -0.500359  0  2.163193  0  0  -0.519551  0  2.156895  0  0  -0.301847  -0.487325  0  2.167347  0
O  O74  1  0.49123227  0.48891120  0.87363855  1  0  -0.542694  0  1.93189  0  0  -0.500222  0  2.163403  0  0  -0.519412  0  2.157089  0  0  -0.301741  -0.487188  0  2.167553  0
O  O75  1  0.50874609  0.01105980  0.37364631  1  0  -0.542824  0  1.931537  0  0  -0.500417  0  2.163136  0  0  -0.519613  0  2.156797  0  0  -0.301849  -0.487379  0  2.167296  0
