# generated using pymatgen
data_GdH13C15(NO2)4
_symmetry_space_group_name_H-M   'P 1'
_cell_length_a   8.90019966
_cell_length_b   9.68569857
_cell_length_c   12.92928591
_cell_angle_alpha   99.81198839
_cell_angle_beta   93.70066652
_cell_angle_gamma   107.23769356
_symmetry_Int_Tables_number   1
_chemical_formula_structural   GdH13C15(NO2)4
_chemical_formula_sum   'Gd2 H26 C30 N8 O16'
_cell_volume   1041.06436143
_cell_formula_units_Z   2
loop_
 _symmetry_equiv_pos_site_id
 _symmetry_equiv_pos_as_xyz
  1  'x, y, z'
loop_
 _atom_site_type_symbol
 _atom_site_label
 _atom_site_symmetry_multiplicity
 _atom_site_fract_x
 _atom_site_fract_y
 _atom_site_fract_z
 _atom_site_occupancy
 _atom_site_hle17_bader_spin_density
 _atom_site_hle17_ddec_charge
 _atom_site_hle17_ddec_spin_density
 _atom_site_hle17_ddec_sum_bond_order
 _atom_site_hle17_magmom
 _atom_site_hse06_10hf_bader_spin_density
 _atom_site_hse06_10hf_ddec_charge
 _atom_site_hse06_10hf_ddec_spin_density
 _atom_site_hse06_10hf_ddec_sum_bond_order
 _atom_site_hse06_10hf_magmom
 _atom_site_hse06_bader_spin_density
 _atom_site_hse06_ddec_charge
 _atom_site_hse06_ddec_spin_density
 _atom_site_hse06_ddec_sum_bond_order
 _atom_site_hse06_magmom
 _atom_site_pbe_bader_spin_density
 _atom_site_pbe_cm5_charge
 _atom_site_pbe_ddec_charge
 _atom_site_pbe_ddec_spin_density
 _atom_site_pbe_ddec_sum_bond_order
 _atom_site_pbe_magmom
Gd  Gd0  1  0.20668058  0.44741554  0.00936278  1  0  2.229069  0  1.746884  0  0  2.141909  0  2.10324  0  0  2.194798  0  2.045681  0  0  1.469974  2.099546  0  2.151355  0
Gd  Gd1  1  0.79331872  0.55258191  0.99063718  1  0  2.229072  0  1.746858  0  0  2.141974  0  2.103143  0  0  2.194865  0  2.045576  0  0  1.469957  2.09949  0  2.15144  0
H  H2  1  0.44885925  0.52531980  0.19991527  1  0  0.377474  0  0.958999  0  0  0.335774  0  1.039039  0  0  0.347274  0  1.02333  0  0  0.291889  0.32773  0  1.050016  0
H  H3  1  0.55114032  0.47468875  0.80008729  1  0  0.377425  0  0.959046  0  0  0.335721  0  1.039088  0  0  0.34722  0  1.023382  0  0  0.291872  0.327681  0  1.050058  0
H  H4  1  0.50598662  0.62744425  0.11257268  1  0  0.423464  0  0.878616  0  0  0.396096  0  0.939704  0  0  0.406544  0  0.92442  0  0  0.305119  0.388712  0  0.950513  0
H  H5  1  0.49402709  0.37256588  0.88743513  1  0  0.423459  0  0.878609  0  0  0.396062  0  0.939738  0  0  0.406504  0  0.924468  0  0  0.305122  0.38868  0  0.950545  0
H  H6  1  0.22192843  0.46051244  0.77060020  1  0  0.39977  0  0.918908  0  0  0.353869  0  1.005516  0  0  0.366405  0  0.98785  0  0  0.29042  0.345055  0  1.017895  0
H  H7  1  0.77806393  0.53948471  0.22939641  1  0  0.399809  0  0.918895  0  0  0.353925  0  1.005464  0  0  0.366464  0  0.987791  0  0  0.290431  0.34511  0  1.017844  0
H  H8  1  0.04144919  0.38163040  0.79102069  1  0  0.438539  0  0.816159  0  0  0.425515  0  0.857779  0  0  0.433438  0  0.84647  0  0  0.332418  0.419908  0  0.865821  0
H  H9  1  0.95854205  0.61836282  0.20898171  1  0  0.438444  0  0.816363  0  0  0.425452  0  0.857872  0  0  0.43337  0  0.846572  0  0  0.332417  0.419845  0  0.865909  0
H  H10  1  0.22458688  0.35968161  0.24231027  1  0  0.43916  0  0.847027  0  0  0.402946  0  0.917848  0  0  0.415074  0  0.899949  0  0  0.308275  0.394267  0  0.930618  0
H  H11  1  0.77540002  0.64031914  0.75769114  1  0  0.43927  0  0.846862  0  0  0.403024  0  0.917762  0  0  0.415157  0  0.899855  0  0  0.308342  0.394336  0  0.930548  0
H  H12  1  0.08901609  0.25158491  0.15536755  1  0  0.443684  0  0.813004  0  0  0.42679  0  0.861712  0  0  0.435269  0  0.84948  0  0  0.329623  0.420676  0  0.870584  0
H  H13  1  0.91097692  0.74841041  0.84463355  1  0  0.44373  0  0.81298  0  0  0.42682  0  0.861685  0  0  0.4353  0  0.849452  0  0  0.32961  0.420704  0  0.870558  0
H  H14  1  0.24773739  0.28387225  0.50256890  1  0  0.103077  0  0.933741  0  0  0.113146  0  0.99213  0  0  0.116257  0  0.990221  0  0  0.106029  0.11084  0  0.9936  0
H  H15  1  0.75226933  0.71612398  0.49742887  1  0  0.103165  0  0.93359  0  0  0.113181  0  0.991966  0  0  0.11629  0  0.990059  0  0  0.106015  0.110875  0  0.99344  0
H  H16  1  0.19434058  0.14767101  0.65141445  1  0  0.114521  0  0.932666  0  0  0.12724  0  0.986455  0  0  0.130883  0  0.984661  0  0  0.107688  0.124599  0  0.987885  0
H  H17  1  0.80564937  0.85233655  0.34857607  1  0  0.114538  0  0.932624  0  0  0.127218  0  0.986464  0  0  0.130868  0  0.984656  0  0  0.107659  0.124579  0  0.987898  0
H  H18  1  0.64767913  0.07427668  0.64238751  1  0  0.105663  0  0.95372  0  0  0.119264  0  1.005999  0  0  0.121542  0  1.006587  0  0  0.104153  0.117741  0  1.005611  0
H  H19  1  0.35231517  0.92572000  0.35760292  1  0  0.105626  0  0.953802  0  0  0.119218  0  1.006097  0  0  0.121517  0  1.006659  0  0  0.104148  0.117693  0  1.005702  0
H  H20  1  0.70399685  0.21636925  0.49950173  1  0  0.102703  0  0.935961  0  0  0.112596  0  0.994206  0  0  0.116063  0  0.991642  0  0  0.106321  0.109921  0  0.996576  0
H  H21  1  0.29601950  0.78364312  0.50049244  1  0  0.102835  0  0.936113  0  0  0.112652  0  0.994332  0  0  0.116118  0  0.991769  0  0  0.106338  0.109977  0  0.996704  0
H  H22  1  0.34014879  0.79571440  0.81904046  1  0  0.133611  0  0.925182  0  0  0.140919  0  0.986989  0  0  0.145235  0  0.983388  0  0  0.119199  0.137657  0  0.989978  0
H  H23  1  0.65985701  0.20427877  0.18096009  1  0  0.1335  0  0.925216  0  0  0.140871  0  0.986959  0  0  0.145192  0  0.98336  0  0  0.119142  0.137607  0  0.989956  0
H  H24  1  0.79912710  0.95202598  0.00636098  1  0  0.127093  0  0.942825  0  0  0.133677  0  1.00805  0  0  0.138246  0  1.003748  0  0  0.113812  0.130116  0  1.011522  0
H  H25  1  0.20088910  0.04799236  0.99363994  1  0  0.127094  0  0.942897  0  0  0.133695  0  1.008116  0  0  0.138266  0  1.003813  0  0  0.113804  0.130132  0  1.011591  0
H  H26  1  0.65654371  0.22686977  0.81543252  1  0  0.129647  0  0.983937  0  0  0.137266  0  1.046583  0  0  0.141383  0  1.043488  0  0  0.114374  0.133976  0  1.049524  0
H  H27  1  0.34347301  0.77314209  0.18458330  1  0  0.129483  0  0.984094  0  0  0.137147  0  1.046723  0  0  0.141239  0  1.043659  0  0  0.114335  0.133857  0  1.049656  0
C  C28  1  0.51771362  0.33987952  0.40599408  1  0  0.260629  0  3.798789  0  0  0.239134  0  4.082116  0  0  0.247288  0  4.100087  0  0  0.20583  0.233802  0  4.069597  0
C  C29  1  0.48227604  0.66011582  0.59400770  1  0  0.260273  0  3.799566  0  0  0.239162  0  4.082567  0  0  0.247315  0  4.100543  0  0  0.205921  0.233836  0  4.070043  0
C  C30  1  0.47948692  0.25847053  0.49095710  1  0  -0.004807  0  3.797437  0  0  0.010702  0  4.035844  0  0  0.007908  0  4.059311  0  0  -0.012863  0.012154  0  4.020418  0
C  C31  1  0.52053635  0.74153146  0.50904330  1  0  -0.004025  0  3.797199  0  0  0.010787  0  4.035579  0  0  0.007992  0  4.059045  0  0  -0.012874  0.012229  0  4.020162  0
C  C32  1  0.33448368  0.23673122  0.53284722  1  0  -0.068241  0  3.739657  0  0  -0.095724  0  3.997997  0  0  -0.095396  0  4.01853  0  0  -0.086676  -0.095563  0  3.983929  0
C  C33  1  0.66552459  0.76327352  0.46714752  1  0  -0.06884  0  3.740273  0  0  -0.095859  0  3.998352  0  0  -0.095534  0  4.018893  0  0  -0.086734  -0.095694  0  3.984283  0
C  C34  1  0.30428086  0.16154256  0.61584757  1  0  -0.17771  0  3.752829  0  0  -0.202469  0  4.012893  0  0  -0.208101  0  4.032913  0  0  -0.102304  -0.198492  0  3.999316  0
C  C35  1  0.69572562  0.83846288  0.38415647  1  0  -0.177581  0  3.752701  0  0  -0.202377  0  4.012696  0  0  -0.208012  0  4.032706  0  0  -0.102266  -0.198398  0  3.999125  0
C  C36  1  0.41796825  0.10519937  0.65618158  1  0  0.276096  0  3.778069  0  0  0.266784  0  4.040939  0  0  0.277487  0  4.057287  0  0  0.082907  0.259831  0  4.029899  0
C  C37  1  0.58203223  0.89480603  0.34380831  1  0  0.276057  0  3.777798  0  0  0.26669  0  4.040781  0  0  0.277393  0  4.057133  0  0  0.082909  0.259731  0  4.029743  0
C  C38  1  0.56196007  0.12378097  0.61428579  1  0  -0.193221  0  3.793279  0  0  -0.210103  0  4.041474  0  0  -0.217004  0  4.06456  0  0  -0.105411  -0.205677  0  4.026574  0
C  C39  1  0.43804104  0.87622931  0.38571078  1  0  -0.19301  0  3.792979  0  0  -0.209938  0  4.041063  0  0  -0.216854  0  4.064145  0  0  -0.10537  -0.205503  0  4.026147  0
C  C40  1  0.59247102  0.20148791  0.53311189  1  0  -0.058244  0  3.73521  0  0  -0.0822  0  3.984446  0  0  -0.081825  0  4.004316  0  0  -0.082627  -0.083174  0  3.972462  0
C  C41  1  0.40753462  0.79851514  0.46688958  1  0  -0.058874  0  3.735057  0  0  -0.082349  0  3.98402  0  0  -0.081973  0  4.003892  0  0  -0.082635  -0.083323  0  3.972038  0
C  C42  1  0.48995887  0.01015962  0.80499550  1  0  0.275696  0  3.776577  0  0  0.270224  0  4.04197  0  0  0.277854  0  4.057747  0  0  0.091076  0.264738  0  4.031822  0
C  C43  1  0.51004236  0.98983681  0.19500521  1  0  0.275552  0  3.77673  0  0  0.270193  0  4.042049  0  0  0.277793  0  4.05787  0  0  0.091058  0.264722  0  4.031877  0
C  C44  1  0.45368099  0.88098278  0.84509907  1  0  -0.128793  0  3.65136  0  0  -0.172641  0  3.913975  0  0  -0.171774  0  3.930988  0  0  -0.076448  -0.173816  0  3.903473  0
C  C45  1  0.54631348  0.11902035  0.15490436  1  0  -0.128507  0  3.651257  0  0  -0.172438  0  3.913835  0  0  -0.171573  0  3.930874  0  0  -0.076359  -0.173626  0  3.90334  0
C  C46  1  0.56488716  0.86099009  0.91810693  1  0  -0.065134  0  3.761581  0  0  -0.042103  0  4.005843  0  0  -0.0521  0  4.030991  0  0  -0.013844  -0.03589  0  3.989396  0
C  C47  1  0.43510707  0.13901213  0.08189873  1  0  -0.065404  0  3.761741  0  0  -0.042393  0  4.006037  0  0  -0.052389  0  4.031192  0  0  -0.013891  -0.036189  0  3.989596  0
C  C48  1  0.52235647  0.72349137  0.96193111  1  0  0.714095  0  3.840053  0  0  0.66207  0  4.139593  0  0  0.697487  0  4.12994  0  0  0.240127  0.637732  0  4.145477  0
C  C49  1  0.47763549  0.27650015  0.03807736  1  0  0.714287  0  3.840216  0  0  0.662386  0  4.139549  0  0  0.697788  0  4.129917  0  0  0.240227  0.638057  0  4.145422  0
C  C50  1  0.71206313  0.96950144  0.95121022  1  0  -0.068668  0  3.65988  0  0  -0.111649  0  3.913477  0  0  -0.1083  0  3.931446  0  0  -0.073867  -0.112625  0  3.90083  0
C  C51  1  0.28792846  0.03050301  0.04879634  1  0  -0.068567  0  3.659853  0  0  -0.111616  0  3.913515  0  0  -0.108265  0  3.931479  0  0  -0.073867  -0.112581  0  3.900868  0
C  C52  1  0.74306601  0.10183277  0.91432514  1  0  -0.055195  0  3.779931  0  0  -0.028684  0  4.012728  0  0  -0.038269  0  4.036511  0  0  -0.016607  -0.022384  0  3.99652  0
C  C53  1  0.25693735  0.89816293  0.08568022  1  0  -0.055033  0  3.779676  0  0  -0.028491  0  4.012513  0  0  -0.038071  0  4.036293  0  0  -0.016451  -0.022206  0  3.996317  0
C  C54  1  0.89370493  0.22287366  0.95208855  1  0  0.699479  0  3.84681  0  0  0.656082  0  4.134252  0  0  0.691225  0  4.124592  0  0  0.226091  0.632303  0  4.139379  0
C  C55  1  0.10628187  0.77710952  0.04791122  1  0  0.699228  0  3.846638  0  0  0.655784  0  4.134183  0  0  0.690926  0  4.124538  0  0  0.225966  0.63201  0  4.139298  0
C  C56  1  0.63251157  0.12250408  0.84165291  1  0  -0.166071  0  3.697133  0  0  -0.201892  0  3.944295  0  0  -0.202283  0  3.961885  0  0  -0.08531  -0.202355  0  3.933922  0
C  C57  1  0.36749142  0.87750400  0.15835746  1  0  -0.165941  0  3.697361  0  0  -0.201838  0  3.944495  0  0  -0.202203  0  3.962114  0  0  -0.085302  -0.202302  0  3.934116  0
N  N58  1  0.66790690  0.39311583  0.38272416  1  0  -0.297928  0  2.900768  0  0  -0.294115  0  3.18188  0  0  -0.300948  0  3.192231  0  0  -0.226681  -0.288851  0  3.174384  0
N  N59  1  0.33210346  0.60687800  0.61727041  1  0  -0.297812  0  2.901212  0  0  -0.294037  0  3.182221  0  0  -0.300864  0  3.192572  0  0  -0.22669  -0.288773  0  3.17472  0
N  N60  1  0.65478697  0.46068235  0.30283515  1  0  -0.098327  0  3.154554  0  0  -0.059073  0  3.428699  0  0  -0.063313  0  3.442018  0  0  -0.090393  -0.056001  0  3.419834  0
N  N61  1  0.34522132  0.53931511  0.69716433  1  0  -0.09837  0  3.154466  0  0  -0.059156  0  3.428639  0  0  -0.063411  0  3.44197  0  0  -0.090393  -0.056083  0  3.419778  0
N  N62  1  0.50456332  0.44921793  0.27842270  1  0  -0.105056  0  3.216624  0  0  -0.063558  0  3.480413  0  0  -0.069442  0  3.497691  0  0  -0.103845  -0.059533  0  3.469214  0
N  N63  1  0.49544395  0.55078361  0.72157326  1  0  -0.104931  0  3.217156  0  0  -0.063418  0  3.4809  0  0  -0.069292  0  3.498181  0  0  -0.103873  -0.059399  0  3.469698  0
N  N64  1  0.41378001  0.37367419  0.34089542  1  0  -0.333222  0  2.957575  0  0  -0.309242  0  3.225045  0  0  -0.31981  0  3.2386  0  0  -0.222053  -0.301652  0  3.215609  0
N  N65  1  0.58621231  0.62631613  0.65909746  1  0  -0.333215  0  2.958208  0  0  -0.309282  0  3.2256  0  0  -0.319853  0  3.239152  0  0  -0.22202  -0.301686  0  3.216159  0
O  O66  1  0.41030485  0.57626842  0.14236942  1  0  -0.932771  0  1.994995  0  0  -0.887462  0  2.20489  0  0  -0.910059  0  2.17508  0  0  -0.67346  -0.87027  0  2.226151  0
O  O67  1  0.58969787  0.42372912  0.85763144  1  0  -0.93275  0  1.994984  0  0  -0.887414  0  2.204969  0  0  -0.910012  0  2.175166  0  0  -0.673427  -0.870207  0  2.226235  0
O  O68  1  0.90269701  0.35845624  0.94715382  1  0  -0.841486  0  2.088831  0  0  -0.797197  0  2.347211  0  0  -0.824535  0  2.333755  0  0  -0.437163  -0.7768  0  2.355758  0
O  O69  1  0.09729039  0.64153287  0.05283800  1  0  -0.84133  0  2.089004  0  0  -0.797031  0  2.347402  0  0  -0.824366  0  2.333954  0  0  -0.437111  -0.77666  0  2.355967  0
O  O70  1  0.01580558  0.19618272  0.98741982  1  0  -0.664145  0  1.974521  0  0  -0.623035  0  2.204882  0  0  -0.647154  0  2.193681  0  0  -0.349374  -0.606118  0  2.212597  0
O  O71  1  0.98417554  0.80382116  0.01258014  1  0  -0.664095  0  1.974145  0  0  -0.622941  0  2.204488  0  0  -0.647064  0  2.193299  0  0  -0.349366  -0.606006  0  2.212195  0
O  O72  1  0.15097067  0.40581695  0.82138005  1  0  -0.904794  0  1.875222  0  0  -0.863543  0  2.066385  0  0  -0.882495  0  2.033654  0  0  -0.638436  -0.849448  0  2.089304  0
O  O73  1  0.84902462  0.59419583  0.17862120  1  0  -0.904794  0  1.875374  0  0  -0.863578  0  2.066511  0  0  -0.882531  0  2.033773  0  0  -0.638447  -0.849467  0  2.089447  0
O  O74  1  0.63175214  0.69826048  0.01947543  1  0  -0.766052  0  2.06736  0  0  -0.715008  0  2.317413  0  0  -0.740785  0  2.303404  0  0  -0.412716  -0.695895  0  2.326979  0
O  O75  1  0.36824167  0.30173325  0.98053330  1  0  -0.766138  0  2.067308  0  0  -0.715097  0  2.317284  0  0  -0.740867  0  2.303287  0  0  -0.412752  -0.69601  0  2.32684  0
O  O76  1  0.15418634  0.35448445  0.17781065  1  0  -0.87743  0  1.807491  0  0  -0.834049  0  1.971957  0  0  -0.852307  0  1.939679  0  0  -0.607355  -0.820333  0  1.995017  0
O  O77  1  0.84581581  0.64550491  0.82218324  1  0  -0.877587  0  1.80721  0  0  -0.834217  0  1.971643  0  0  -0.852478  0  1.939363  0  0  -0.607427  -0.820484  0  1.994724  0
O  O78  1  0.38094379  0.63868694  0.94345260  1  0  -0.701917  0  2.080534  0  0  -0.659952  0  2.341585  0  0  -0.686317  0  2.332303  0  0  -0.377863  -0.640476  0  2.347627  0
O  O79  1  0.61904089  0.36130373  0.05654547  1  0  -0.701975  0  2.08077  0  0  -0.660079  0  2.341778  0  0  -0.686439  0  2.332501  0  0  -0.377953  -0.640588  0  2.347818  0
O  O80  1  0.37519011  0.02424323  0.73451833  1  0  -0.284165  0  2.322601  0  0  -0.218318  0  2.540913  0  0  -0.23545  0  2.541922  0  0  -0.149996  -0.205919  0  2.539696  0
O  O81  1  0.62481118  0.97575046  0.26547516  1  0  -0.284161  0  2.322808  0  0  -0.218397  0  2.541158  0  0  -0.23552  0  2.542178  0  0  -0.150099  -0.205994  0  2.539927  0
