# generated using pymatgen
data_ZnH36C31NO4F3
_symmetry_space_group_name_H-M   'P 1'
_cell_length_a   8.78303557
_cell_length_b   16.90022302
_cell_length_c   17.62214679
_cell_angle_alpha   94.50581593
_cell_angle_beta   98.43769026
_cell_angle_gamma   98.34733175
_symmetry_Int_Tables_number   1
_chemical_formula_structural   ZnH36C31NO4F3
_chemical_formula_sum   'Zn2 H72 C62 N2 O8 F6'
_cell_volume   2546.66289538
_cell_formula_units_Z   2
loop_
 _symmetry_equiv_pos_site_id
 _symmetry_equiv_pos_as_xyz
  1  'x, y, z'
loop_
 _atom_site_type_symbol
 _atom_site_label
 _atom_site_symmetry_multiplicity
 _atom_site_fract_x
 _atom_site_fract_y
 _atom_site_fract_z
 _atom_site_occupancy
 _atom_site_pbe_bader_charge
 _atom_site_pbe_bader_spin_density
 _atom_site_pbe_cm5_charge
 _atom_site_pbe_ddec_charge
 _atom_site_pbe_ddec_spin_density
 _atom_site_pbe_ddec_sum_bond_order
 _atom_site_pbe_magmom
Zn  Zn0  1  0.48403376  0.40877850  0.49739300  1  1.311269  0  0.684969  0.863951  0  2.303748  0
Zn  Zn1  1  0.48620351  0.58997911  0.48814297  1  1.309968  0  0.687344  0.864412  0  2.304842  0
H  H2  1  0.00233866  0.58829947  0.48641063  1  0.125765  0  0.11237  0.129907  0  1.005562  0
H  H3  1  0.58662471  0.83887239  0.77899365  1  0.013239  0  0.083077  0.108428  0  1.001726  0
H  H4  1  0.54452045  0.80826467  0.67840203  1  0.012762  0  0.076272  0.09947  0  1.054475  0
H  H5  1  0.40166927  0.84595637  0.72593324  1  0.000158  0  0.08329  0.107315  0  1.004706  0
H  H6  1  0.34396486  0.69456953  0.69906784  1  0.053715  0  0.088491  0.080833  0  1.000109  0
H  H7  1  0.37170749  0.72639810  0.79864579  1  0.007072  0  0.084764  0.070835  0  0.979598  0
H  H8  1  0.64472938  0.69629935  0.81265747  1  0.043147  0  0.088223  0.088675  0  0.994639  0
H  H9  1  0.61727965  0.66563635  0.71182215  1  0.076192  0  0.095305  0.108227  0  1.0248  0
H  H10  1  0.73602152  0.75244817  0.05701782  1  0.030101  0  0.084071  0.111786  0  1.003713  0
H  H11  1  0.57167551  0.78825419  0.08628727  1  -0.003583  0  0.082578  0.107074  0  1.005412  0
H  H12  1  0.76060471  0.82405013  0.13913867  1  0.005961  0  0.082366  0.105859  0  1.01067  0
H  H13  1  0.96616379  0.40457764  0.49031967  1  0.100107  0  0.113574  0.133935  0  0.99119  0
H  H14  1  0.61568442  0.72258068  0.20992773  1  0.036406  0  0.084139  0.075999  0  0.999197  0
H  H15  1  0.77896608  0.68648086  0.18135327  1  0.02771  0  0.085159  0.075882  0  0.987788  0
H  H16  1  0.60521004  0.61368704  0.06076496  1  0.059912  0  0.094411  0.097442  0  0.992252  0
H  H17  1  0.44440218  0.64585352  0.09284605  1  0.018863  0  0.096296  0.095115  0  0.964837  0
H  H18  1  0.13671417  0.23654822  0.90943383  1  0.039977  0  0.087187  0.116872  0  0.998692  0
H  H19  1  0.01096150  0.22365815  0.81934132  1  -0.011878  0  0.08086  0.103497  0  1.014455  0
H  H20  1  0.16654934  0.16725855  0.83395901  1  0.025735  0  0.084694  0.108155  0  1.010036  0
H  H21  1  0.24308010  0.28003150  0.75631923  1  0.048996  0  0.08439  0.072775  0  1.003507  0
H  H22  1  0.36052490  0.29638507  0.84814418  1  0.028062  0  0.089613  0.082675  0  0.973765  0
H  H23  1  0.17373957  0.38524406  0.89307128  1  0.072577  0  0.094275  0.096814  0  0.99061  0
H  H24  1  0.53653130  0.19630223  0.32563278  1  -0.006367  0  0.076424  0.100597  0  1.040236  0
H  H25  1  0.07133254  0.37329375  0.79761720  1  0.04995  0  0.092626  0.089278  0  0.995517  0
H  H26  1  0.05200288  0.14546840  0.68940068  1  0.01049  0  0.085698  0.115044  0  1.024285  0
H  H27  1  0.97047592  0.04993722  0.63895443  1  0.021594  0  0.083898  0.113355  0  1.007485  0
H  H28  1  0.11984973  0.11270695  0.60402945  1  0.026403  0  0.085042  0.112203  0  1.00569  0
H  H29  1  0.85925451  0.11682788  0.52572614  1  0.02335  0  0.086457  0.074142  0  0.99204  0
H  H30  1  0.94069550  0.21231977  0.57365420  1  0.042837  0  0.090156  0.079295  0  0.99008  0
H  H31  1  0.77234717  0.19190597  0.67472186  1  0.012042  0  0.098277  0.09846  0  1.002108  0
H  H32  1  0.70145311  0.09224083  0.63377083  1  0.026031  0  0.094941  0.097593  0  0.987264  0
H  H33  1  0.06507377  0.98298191  0.38708595  1  0.004317  0  0.081998  0.112363  0  1.019727  0
H  H34  1  0.96126757  0.88610505  0.35007936  1  0.031835  0  0.085582  0.112345  0  0.998878  0
H  H35  1  0.46065030  0.15348613  0.22976835  1  0.015937  0  0.082032  0.106708  0  1.003957  0
H  H36  1  0.92852608  0.93231658  0.43904413  1  0.022066  0  0.083494  0.111384  0  1.012131  0
H  H37  1  0.09782907  0.82725945  0.46425507  1  -0.006145  0  0.087462  0.073385  0  1.016888  0
H  H38  1  0.20143570  0.92333434  0.49999923  1  0.027173  0  0.086234  0.076413  0  0.985143  0
H  H39  1  0.32772943  0.92874390  0.38149013  1  0.068876  0  0.094095  0.098074  0  0.995547  0
H  H40  1  0.22325378  0.83277617  0.34492782  1  0.033119  0  0.098365  0.099814  0  1.002178  0
H  H41  1  0.80506604  0.37039980  0.78681328  1  0.009814  0  0.079326  0.10184  0  1.02772  0
H  H42  1  0.69469790  0.44271185  0.74910348  1  0.040463  0  0.085948  0.119711  0  1.002941  0
H  H43  1  0.62525175  0.38158116  0.81803334  1  0.029591  0  0.083971  0.11038  0  1.016044  0
H  H44  1  0.47991188  0.33166138  0.68592157  1  0.045519  0  0.0872  0.082901  0  1.013693  0
H  H45  1  0.58968052  0.25899942  0.72197721  1  0.016725  0  0.081254  0.063862  0  0.995032  0
H  H46  1  0.66449565  0.16770166  0.26328598  1  0.026561  0  0.083727  0.106667  0  1.018437  0
H  H47  1  0.80035522  0.31059776  0.64512010  1  0.011211  0  0.09687  0.103849  0  0.985569  0
H  H48  1  0.68848537  0.38252691  0.61208309  1  0.084677  0  0.102682  0.127185  0  1.039121  0
H  H49  1  0.17703552  0.56888928  0.26860215  1  0.053835  0  0.08783  0.123617  0  0.996435  0
H  H50  1  0.06990986  0.64807471  0.24655844  1  0.009195  0  0.080362  0.102242  0  1.016288  0
H  H51  1  0.21213201  0.62455775  0.18983909  1  0.042579  0  0.084043  0.110709  0  1.010027  0
H  H52  1  0.32378342  0.74755958  0.28124668  1  -0.019278  0  0.080992  0.063583  0  0.999344  0
H  H53  1  0.42362620  0.66702833  0.30452141  1  0.058986  0  0.086052  0.085019  0  1.035635  0
H  H54  1  0.25788927  0.63459078  0.40525758  1  0.09361  0  0.102709  0.12056  0  1.040385  0
H  H55  1  0.16197301  0.71663117  0.38590375  1  0.021114  0  0.096984  0.101941  0  0.985101  0
H  H56  1  0.99078391  0.32002333  0.36770589  1  0.020835  0  0.088447  0.120683  0  1.003672  0
H  H57  1  0.60952625  0.27608586  0.18078328  1  0.018124  0  0.084915  0.072176  0  0.979  0
H  H58  1  0.94904473  0.21825523  0.32675964  1  0.023567  0  0.08367  0.108373  0  1.005044  0
H  H59  1  0.85899105  0.24943873  0.40545610  1  0.036201  0  0.086335  0.114404  0  1.005223  0
H  H60  1  0.07917212  0.17529236  0.45091671  1  -0.012064  0  0.082567  0.066463  0  1.003224  0
H  H61  1  0.11875527  0.27671830  0.49207397  1  0.04806  0  0.0899  0.084182  0  0.994821  0
H  H62  1  0.28331972  0.31392353  0.39338363  1  0.087131  0  0.104469  0.121502  0  1.031062  0
H  H63  1  0.24469574  0.21333397  0.35000591  1  0.051828  0  0.097347  0.104015  0  0.98577  0
H  H64  1  0.05460847  0.74805547  0.66935452  1  0.01235  0  0.08457  0.110218  0  0.999775  0
H  H65  1  0.00011532  0.64972300  0.62071436  1  0.030713  0  0.087772  0.119661  0  1.001905  0
H  H66  1  0.14564708  0.71846609  0.59036151  1  0.024824  0  0.08748  0.118467  0  1.002259  0
H  H67  1  0.89461836  0.71000660  0.49945162  1  0.048268  0  0.08834  0.083915  0  0.999826  0
H  H68  1  0.66919146  0.31863955  0.27736987  1  0.03472  0  0.089023  0.083513  0  0.983902  0
H  H69  1  0.94577207  0.80699631  0.55080512  1  0.01399  0  0.081971  0.068108  0  1.01658  0
H  H70  1  0.76538795  0.76504626  0.64314168  1  0.019838  0  0.097774  0.10186  0  0.986525  0
H  H71  1  0.71251380  0.66892452  0.59110252  1  0.11933  0  0.102719  0.118919  0  1.033514  0
H  H72  1  0.39099393  0.31774473  0.29309265  1  0.069343  0  0.094024  0.103119  0  1.041065  0
H  H73  1  0.33040148  0.27688227  0.19530395  1  0.019672  0  0.088141  0.088161  0  0.989705  0
C  C74  1  0.45463204  0.52313460  0.63783153  1  1.596749  0  0.217906  0.612182  0  4.160113  0
C  C75  1  0.62686978  0.76459614  0.53422984  1  0.541993  0  0.118105  0.167286  0  3.962369  0
C  C76  1  0.40806738  0.14938441  0.45872101  1  0.422504  0  0.105639  0.13729  0  4.030301  0
C  C77  1  0.63409624  0.84755529  0.53699774  1  0.443594  0  0.10628  0.138672  0  4.027689  0
C  C78  1  0.52233176  0.12291746  0.50989446  1  0.112685  0  0.004131  0.007404  0  4.154836  0
C  C79  1  0.52353682  0.88397377  0.49318592  1  0.147601  0  0.004651  0.006731  0  4.153874  0
C  C80  1  0.53385682  0.04051314  0.50558571  1  -0.307624  0  -0.020736  -0.059264  0  4.100563  0
C  C81  1  0.53266434  0.96814806  0.50024438  1  0.001821  0  -0.020858  -0.056911  0  4.097953  0
C  C82  1  0.77813441  0.51789971  0.50006510  1  1.573029  0  0.214627  0.628478  0  4.1784  0
C  C83  1  0.19017438  0.47929248  0.48032824  1  1.563771  0  0.215248  0.627966  0  4.171743  0
C  C84  1  0.94418900  0.52782957  0.49117576  1  -0.055642  0  -0.079675  -0.171472  0  3.903505  0
C  C85  1  0.49270433  0.47336051  0.34576938  1  1.590394  0  0.216234  0.610486  0  4.162653  0
C  C86  1  0.02254057  0.46581537  0.48716424  1  -0.045726  0  -0.077814  -0.171204  0  3.886982  0
C  C87  1  0.42537912  0.40741592  0.13183018  1  0.480636  0  0.094281  0.167904  0  4.026198  0
C  C88  1  0.46618118  0.57365375  0.85189493  1  0.456075  0  0.095842  0.164209  0  4.013227  0
C  C89  1  0.44854992  0.39857251  0.21035791  1  0.080422  0  -0.008965  0.017562  0  3.979362  0
C  C90  1  0.48197453  0.58784225  0.77657319  1  0.036476  0  -0.006693  0.020164  0  3.975862  0
C  C91  1  0.50281952  0.46971367  0.26068164  1  -0.014652  0  -0.018133  -0.168353  0  3.925852  0
C  C92  1  0.41220765  0.52540711  0.71787631  1  0.023781  0  -0.018295  -0.175679  0  3.922698  0
C  C93  1  0.54918611  0.54154741  0.22877329  1  0.47045  0  0.097653  0.200832  0  4.033267  0
C  C94  1  0.31392031  0.45981760  0.73852185  1  0.458904  0  0.099671  0.207394  0  4.022531  0
C  C95  1  0.52539302  0.55113335  0.15052779  1  0.055927  0  -0.008354  -0.016845  0  3.92678  0
C  C96  1  0.41903673  0.48474224  0.02059324  1  -0.533975  0  -0.034625  -0.069737  0  4.13751  0
C  C97  1  0.29508831  0.44641235  0.81371369  1  0.050263  0  -0.011992  -0.022959  0  3.954476  0
C  C98  1  0.45486190  0.48077608  0.10061696  1  0.123403  0  -0.012165  -0.013766  0  4.155028  0
C  C99  1  0.38280249  0.50356280  0.87300337  1  0.111353  0  -0.008702  -0.001468  0  4.151515  0
C  C100  1  0.42427955  0.31531619  0.23574240  1  0.007017  0  -0.167671  -0.193783  0  3.954258  0
C  C101  1  0.57528825  0.27831351  0.23850063  1  -0.002983  0  -0.162807  -0.081762  0  3.935859  0
C  C102  1  0.55815245  0.19435706  0.26565882  1  -0.043291  0  -0.246688  -0.34953  0  3.98151  0
C  C103  1  0.55839428  0.66982242  0.76218500  1  -0.00093  0  -0.166408  -0.194711  0  3.950124  0
C  C104  1  0.43170273  0.72382809  0.74801929  1  0.003403  0  -0.164587  -0.083745  0  3.939938  0
C  C105  1  0.49485847  0.80882526  0.73209303  1  -0.047797  0  -0.245918  -0.347127  0  3.97673  0
C  C106  1  0.55863216  0.62851735  0.11396246  1  0.018436  0  -0.154975  -0.167191  0  3.939043  0
C  C107  1  0.39237175  0.49209615  0.95178527  1  0.179816  0  -0.038875  -0.083347  0  4.133148  0
C  C108  1  0.66448880  0.70220872  0.15926017  1  -0.015047  0  -0.17055  -0.098511  0  3.977144  0
C  C109  1  0.68466413  0.77050930  0.10773254  1  -0.035241  0  -0.246263  -0.354172  0  3.990617  0
C  C110  1  0.18740462  0.37528902  0.83214489  1  -0.030591  0  -0.157213  -0.174073  0  3.955358  0
C  C111  1  0.24032501  0.29332279  0.81819777  1  -0.039696  0  -0.165371  -0.093452  0  3.955963  0
C  C112  1  0.13298711  0.22647100  0.84669494  1  -0.056393  0  -0.244231  -0.354994  0  3.99051  0
C  C113  1  0.74410268  0.15313618  0.61999722  1  0.045277  0  -0.15857  -0.196354  0  3.962432  0
C  C114  1  0.89222277  0.15076321  0.58321280  1  -0.028037  0  -0.162492  -0.088327  0  3.953208  0
C  C115  1  0.01537264  0.11268588  0.63165955  1  -0.04377  0  -0.244371  -0.354518  0  3.962973  0
C  C116  1  0.27573888  0.87082814  0.39833396  1  -0.028564  0  -0.159916  -0.199027  0  3.96184  0
C  C117  1  0.14762194  0.88514809  0.44651491  1  0.019515  0  -0.164391  -0.091252  0  3.95276  0
C  C118  1  0.61752392  0.18063091  0.56592934  1  0.056182  0  0.007802  0.009918  0  3.8758  0
C  C119  1  0.01857522  0.92378162  0.40323698  1  -0.042196  0  -0.245108  -0.350979  0  3.967786  0
C  C120  1  0.67993508  0.32200386  0.63042926  1  0.028984  0  -0.166463  -0.249741  0  3.939292  0
C  C121  1  0.59936439  0.31970255  0.70245910  1  -0.024087  0  -0.16662  -0.087228  0  3.952699  0
C  C122  1  0.68597136  0.38191279  0.76777795  1  -0.068942  0  -0.246129  -0.34819  0  3.959481  0
C  C123  1  0.27398538  0.69470020  0.38567302  1  -0.013281  0  -0.164172  -0.243368  0  3.941455  0
C  C124  1  0.31079621  0.68786825  0.30286697  1  0.003276  0  -0.169731  -0.092492  0  3.954505  0
C  C125  1  0.18524339  0.62923861  0.24885808  1  -0.088408  0  -0.244983  -0.346431  0  3.962067  0
C  C126  1  0.25778289  0.25115822  0.40496145  1  -0.030244  0  -0.164636  -0.239868  0  3.950582  0
C  C127  1  0.10367352  0.23799399  0.43749605  1  0.025884  0  -0.165015  -0.087003  0  3.955937  0
C  C128  1  0.96805223  0.25745065  0.38127065  1  -0.066825  0  -0.243204  -0.349344  0  3.959332  0
C  C129  1  0.40155917  0.83338616  0.44304377  1  0.015613  0  0.00963  0.016701  0  3.869909  0
C  C130  1  0.75073526  0.73231441  0.58530117  1  0.002003  0  -0.163589  -0.230999  0  3.9403  0
C  C131  1  0.90926660  0.74311006  0.55697466  1  -0.017677  0  -0.169285  -0.09582  0  3.959728  0
C  C132  1  0.03409607  0.71327895  0.61232116  1  -0.053835  0  -0.243738  -0.350985  0  3.959386  0
C  C133  1  0.59302108  0.26118611  0.56618534  1  0.462923  0  0.126423  0.218796  0  3.887325  0
C  C134  1  0.39865038  0.74972626  0.44078761  1  0.509173  0  0.125021  0.212637  0  3.896681  0
C  C135  1  0.38917174  0.22958927  0.45948447  1  0.563292  0  0.115258  0.159846  0  3.996862  0
N  N136  1  0.48436868  0.28468895  0.51253446  1  -1.189729  0  -0.298784  -0.282886  0  3.376408  0
N  N137  1  0.50817489  0.71684388  0.48578070  1  -1.218823  0  -0.297877  -0.280519  0  3.376195  0
O  O138  1  0.45624304  0.45297614  0.60652222  1  -1.163283  0  -0.311028  -0.554746  0  2.398505  0
O  O139  1  0.44754005  0.53603319  0.37326617  1  -1.16556  0  -0.311655  -0.555333  0  2.357279  0
O  O140  1  0.49124895  0.58865727  0.60912161  1  -1.17075  0  -0.309944  -0.543487  0  2.327685  0
O  O141  1  0.52184813  0.41362148  0.38221759  1  -1.16084  0  -0.310419  -0.539191  0  2.301442  0
O  O142  1  0.71701267  0.45171276  0.52039418  1  -1.173322  0  -0.313565  -0.548108  0  2.375779  0
O  O143  1  0.25777781  0.55203724  0.48871826  1  -1.171688  0  -0.31142  -0.542221  0  2.396854  0
O  O144  1  0.71041485  0.57831644  0.48610026  1  -1.156141  0  -0.307542  -0.541118  0  2.372699  0
O  O145  1  0.25285569  0.41702993  0.46847757  1  -1.16521  0  -0.307962  -0.54468  0  2.37236  0
F  F146  1  0.36893257  0.34050468  0.08107229  1  -0.638706  0  -0.104896  -0.142575  0  1.346059  0
F  F147  1  0.53735833  0.63120675  0.91028375  1  -0.641993  0  -0.096918  -0.138211  0  1.371584  0
F  F148  1  0.62449481  0.60595920  0.27878893  1  -0.641939  0  -0.088393  -0.128411  0  1.415253  0
F  F149  1  0.22649737  0.40500040  0.68173104  1  -0.637484  0  -0.098662  -0.134021  0  1.371213  0
F  F150  1  0.31155773  0.09418770  0.40610541  1  -0.639498  0  -0.079414  -0.116905  0  1.394621  0
F  F151  1  0.75170337  0.89562508  0.58585254  1  -0.639279  0  -0.084853  -0.122253  0  1.378793  0
