# generated using pymatgen
data_Cu2H9C14N5
_symmetry_space_group_name_H-M   'P 1'
_cell_length_a   8.24403599
_cell_length_b   9.15428950
_cell_length_c   9.32003733
_cell_angle_alpha   99.30817398
_cell_angle_beta   97.07445915
_cell_angle_gamma   111.01144566
_symmetry_Int_Tables_number   1
_chemical_formula_structural   Cu2H9C14N5
_chemical_formula_sum   'Cu4 H18 C28 N10'
_cell_volume   635.30235209
_cell_formula_units_Z   2
loop_
 _symmetry_equiv_pos_site_id
 _symmetry_equiv_pos_as_xyz
  1  'x, y, z'
loop_
 _atom_site_type_symbol
 _atom_site_label
 _atom_site_symmetry_multiplicity
 _atom_site_fract_x
 _atom_site_fract_y
 _atom_site_fract_z
 _atom_site_occupancy
 _atom_site_pbe_bader_spin_density
 _atom_site_pbe_cm5_charge
 _atom_site_pbe_ddec_charge
 _atom_site_pbe_ddec_spin_density
 _atom_site_pbe_ddec_sum_bond_order
 _atom_site_pbe_magmom
Cu  Cu0  1  0.73779623  0.20734753  0.56007340  1  0  0.422672  0.214969  0  2.842452  0
Cu  Cu1  1  0.26219454  0.79264767  0.43992276  1  0  0.422684  0.214923  0  2.842703  0
Cu  Cu2  1  0.31867924  0.28145402  0.26348675  1  0  0.602107  0.462002  0  2.5147  0
Cu  Cu3  1  0.68132378  0.71854736  0.73651821  1  0  0.602102  0.462026  0  2.514821  0
H  H4  1  0.95361170  0.07461951  0.35931855  1  0  0.118004  0.095033  0  0.998618  0
H  H5  1  0.04639012  0.92538184  0.64068198  1  0  0.118009  0.095047  0  0.998575  0
H  H6  1  0.94837144  0.02147891  0.08852858  1  0  0.106554  0.110233  0  1.024051  0
H  H7  1  0.05163410  0.97852250  0.91147024  1  0  0.106566  0.110274  0  1.02402  0
H  H8  1  0.74559387  0.09484470  0.91897510  1  0  0.105902  0.112931  0  1.025085  0
H  H9  1  0.25441412  0.90516271  0.08102600  1  0  0.105885  0.112905  0  1.025187  0
H  H10  1  0.61016144  0.30864950  0.31221011  1  0  0.102783  0.061479  0  1.085275  0
H  H11  1  0.38984387  0.69135428  0.68778583  1  0  0.10279  0.061456  0  1.085251  0
H  H12  1  0.11278385  0.39074602  0.05003625  1  0  0.09859  0.111089  0  1.032792  0
H  H13  1  0.88721647  0.60925174  0.94996677  1  0  0.098588  0.11105  0  1.032857  0
H  H14  1  0.98582444  0.43256407  0.80864267  1  0  0.088058  0.088527  0  1.058247  0
H  H15  1  0.01417046  0.56743241  0.19136060  1  0  0.08805  0.088543  0  1.058236  0
H  H16  1  0.10508648  0.38318913  0.58327878  1  0  0.095972  0.099689  0  1.022055  0
H  H17  1  0.89490917  0.61680617  0.41672332  1  0  0.095959  0.0997  0  1.022074  0
H  H18  1  0.35406166  0.29114687  0.58751118  1  0  0.099029  0.113502  0  1.050284  0
H  H19  1  0.64593576  0.70885559  0.41248686  1  0  0.099044  0.113538  0  1.050242  0
H  H20  1  0.59530347  0.22742460  0.79946889  1  0  0.305832  0.258605  0  0.990931  0
H  H21  1  0.40469838  0.77258270  0.20052934  1  0  0.305823  0.258606  0  0.990946  0
C  C22  1  0.87306030  0.11308683  0.28438097  1  0  0.047676  0.086682  0  3.926109  0
C  C23  1  0.12694054  0.88691212  0.71561908  1  0  0.04773  0.086732  0  3.926005  0
C  C24  1  0.86823140  0.08313335  0.13242209  1  0  -0.084404  -0.128474  0  4.004158  0
C  C25  1  0.13176868  0.91686678  0.86758020  1  0  -0.084416  -0.128476  0  4.0041  0
C  C26  1  0.75551338  0.12527203  0.03875288  1  0  -0.066052  -0.063485  0  3.900591  0
C  C27  1  0.24448943  0.87473172  0.96124706  1  0  -0.066038  -0.063489  0  3.900722  0
C  C28  1  0.65383815  0.20354609  0.10150083  1  0  -0.002978  -0.02887  0  4.001289  0
C  C29  1  0.34616246  0.79645524  0.89849741  1  0  -0.003008  -0.028882  0  4.001201  0
C  C30  1  0.67643938  0.23859082  0.25670628  1  0  0.052483  0.079249  0  3.878169  0
C  C31  1  0.32356294  0.76141174  0.74329449  1  0  0.052487  0.079279  0  3.878021  0
C  C32  1  0.52563871  0.24656568  0.01492238  1  0  0.225269  0.306139  0  4.008588  0
C  C33  1  0.47436241  0.75343684  0.98507395  1  0  0.225276  0.306161  0  4.008513  0
C  C34  1  0.30655599  0.31982580  0.95317818  1  0  0.08174  0.140321  0  4.0526  0
C  C35  1  0.69344781  0.68017440  0.04682240  1  0  0.081685  0.140306  0  4.052552  0
C  C36  1  0.16426604  0.36948283  0.95002963  1  0  -0.101853  -0.161232  0  3.980603  0
C  C37  1  0.83573429  0.63051493  0.04997339  1  0  -0.101811  -0.161084  0  3.980706  0
C  C38  1  0.09486323  0.39181770  0.81562016  1  0  -0.108722  -0.105895  0  4.056216  0
C  C39  1  0.90513341  0.60818000  0.18438135  1  0  -0.108707  -0.10595  0  4.056345  0
C  C40  1  0.16234985  0.36309177  0.68649143  1  0  -0.098349  -0.082898  0  4.01046  0
C  C41  1  0.83764902  0.63690835  0.31350964  1  0  -0.098348  -0.082928  0  4.010495  0
C  C42  1  0.30287738  0.31258124  0.68747890  1  0  -0.093602  -0.156768  0  3.958361  0
C  C43  1  0.69712543  0.68742251  0.31252212  1  0  -0.093602  -0.156784  0  3.958306  0
C  C44  1  0.37447110  0.29250339  0.82331909  1  0  0.098437  0.160018  0  3.991163  0
C  C45  1  0.62553321  0.70749800  0.17667958  1  0  0.098468  0.160025  0  3.991003  0
C  C46  1  0.72246937  0.40717486  0.61879653  1  0  -0.049262  -0.087579  0  3.85343  0
C  C47  1  0.27751596  0.59281311  0.38120218  1  0  -0.049237  -0.087604  0  3.853913  0
C  C48  1  0.72157017  0.02423473  0.62914245  1  0  -0.059759  -0.100782  0  3.898195  0
C  C49  1  0.27842339  0.97575215  0.37084416  1  0  -0.059786  -0.100817  0  3.898205  0
N  N50  1  0.77806093  0.19044161  0.34557140  1  0  -0.351048  -0.179013  0  3.598367  0
N  N51  1  0.22194045  0.80955853  0.65442460  1  0  -0.351101  -0.179063  0  3.598431  0
N  N52  1  0.51198530  0.24640207  0.86656852  1  0  -0.370307  -0.29106  0  3.579612  0
N  N53  1  0.48801629  0.75360165  0.13343020  1  0  -0.370323  -0.291088  0  3.579364  0
N  N54  1  0.40162390  0.28891541  0.06966336  1  0  -0.374535  -0.389935  0  3.572502  0
N  N55  1  0.59837965  0.71108717  0.93033756  1  0  -0.374535  -0.38998  0  3.57248  0
N  N56  1  0.71560203  0.53332420  0.65806397  1  0  -0.44187  -0.351839  0  3.675423  0
N  N57  1  0.28439190  0.46668179  0.34193850  1  0  -0.44187  -0.351733  0  3.675695  0
N  N58  1  0.71556705  0.90903281  0.67308434  1  0  -0.448378  -0.37269  0  3.727254  0
N  N59  1  0.28443918  0.09097339  0.32691960  1  0  -0.448358  -0.372642  0  3.72711  0
