# generated using pymatgen
data_YbH6C7O9
_symmetry_space_group_name_H-M   'P 1'
_cell_length_a   9.77644056
_cell_length_b   9.77519482
_cell_length_c   12.95292488
_cell_angle_alpha   95.55138604
_cell_angle_beta   108.87223784
_cell_angle_gamma   116.29247331
_symmetry_Int_Tables_number   1
_chemical_formula_structural   YbH6C7O9
_chemical_formula_sum   'Yb4 H24 C28 O36'
_cell_volume   1007.23705747
_cell_formula_units_Z   4
loop_
 _symmetry_equiv_pos_site_id
 _symmetry_equiv_pos_as_xyz
  1  'x, y, z'
loop_
 _atom_site_type_symbol
 _atom_site_label
 _atom_site_symmetry_multiplicity
 _atom_site_fract_x
 _atom_site_fract_y
 _atom_site_fract_z
 _atom_site_occupancy
 _atom_site_pbe_bader_spin_density
 _atom_site_pbe_cm5_charge
 _atom_site_pbe_ddec_charge
 _atom_site_pbe_ddec_spin_density
 _atom_site_pbe_ddec_sum_bond_order
 _atom_site_pbe_magmom
C  C0  1  0.73880860  0.08596246  0.96888095  1  0  0.231457  0.640923  0  4.1968  0
C  C1  1  0.61690769  0.76993992  0.53096849  1  0  0.23271  0.642109  0  4.195428  0
C  C2  1  0.26119263  0.91403177  0.03111782  1  0  0.231339  0.640882  0  4.196961  0
C  C3  1  0.38309758  0.23006183  0.46903200  1  0  0.232726  0.642095  0  4.195469  0
C  C4  1  0.07576264  0.19918027  0.88137488  1  0  0.069974  0.058771  0  3.922224  0
C  C5  1  0.81778333  0.19438031  0.61846457  1  0  0.06982  0.057542  0  3.922585  0
C  C6  1  0.92424318  0.80082020  0.11862816  1  0  0.070003  0.058805  0  3.922164  0
C  C7  1  0.18221382  0.80561457  0.38153593  1  0  0.069835  0.057405  0  3.922567  0
C  C8  1  0.86746305  0.96415697  0.86840986  1  0  -0.095431  -0.159115  0  3.968941  0
C  C9  1  0.59568551  0.99915375  0.63146930  1  0  -0.096186  -0.15998  0  3.970281  0
C  C10  1  0.13254629  0.03584708  0.13159062  1  0  -0.095346  -0.158996  0  3.968852  0
C  C11  1  0.40431628  0.00084347  0.36853715  1  0  -0.096182  -0.160004  0  3.970473  0
C  C12  1  0.23245877  0.33695147  0.89330565  1  0  0.229095  0.629387  0  4.210363  0
C  C13  1  0.94360245  0.33915972  0.60657103  1  0  0.229751  0.630196  0  4.21124  0
C  C14  1  0.76753878  0.66305448  0.10669404  1  0  0.229115  0.62944  0  4.210244  0
C  C15  1  0.05638504  0.66083007  0.39343119  1  0  0.229849  0.630449  0  4.211156  0
C  C16  1  0.00857189  0.03707896  0.84231820  1  0  -0.094279  -0.155467  0  3.958305  0
C  C17  1  0.69476194  0.16631477  0.65754174  1  0  -0.091207  -0.152832  0  3.956731  0
C  C18  1  0.99143697  0.96292528  0.15768570  1  0  -0.094313  -0.155534  0  3.958253  0
C  C19  1  0.30524092  0.83367789  0.34246469  1  0  -0.091311  -0.152899  0  3.956881  0
C  C20  1  0.33564222  0.67952768  0.73640793  1  0  0.221447  0.510338  0  4.188708  0
C  C21  1  0.44296425  0.59912030  0.76349682  1  0  0.221705  0.508573  0  4.192239  0
C  C22  1  0.66435492  0.32047734  0.26360113  1  0  0.221196  0.509843  0  4.188873  0
C  C23  1  0.55704002  0.40088851  0.23651307  1  0  0.221628  0.508383  0  4.192556  0
C  C24  1  0.85636119  0.08538145  0.92183533  1  0  0.073412  0.073202  0  3.91587  0
C  C25  1  0.66341511  0.93454425  0.57802517  1  0  0.071656  0.071862  0  3.917503  0
C  C26  1  0.14364817  0.91462179  0.07816601  1  0  0.073481  0.073215  0  3.91566  0
C  C27  1  0.33658566  0.06545149  0.42198043  1  0  0.071631  0.071742  0  3.917627  0
H  H28  1  0.68753968  0.92881030  0.23252607  1  0  0.328554  0.415621  0  0.874136  0
H  H29  1  0.19658993  0.45510414  0.26747848  1  0  0.329262  0.4159  0  0.873868  0
H  H30  1  0.31246141  0.07120055  0.76747448  1  0  0.328529  0.415563  0  0.874169  0
H  H31  1  0.80340505  0.54490147  0.73252037  1  0  0.329228  0.415872  0  0.873864  0
H  H32  1  0.63764853  0.04758879  0.18088131  1  0  0.307334  0.405053  0  0.921883  0
H  H33  1  0.36695660  0.45684977  0.31923565  1  0  0.30811  0.407262  0  0.919201  0
H  H34  1  0.36234640  0.95241564  0.81911158  1  0  0.307336  0.405033  0  0.921917  0
H  H35  1  0.63303688  0.54314881  0.68075977  1  0  0.308049  0.407206  0  0.919284  0
H  H36  1  0.78445898  0.83807444  0.85187007  1  0  0.113018  0.145219  0  1.009997  0
H  H37  1  0.48617018  0.93276784  0.64805367  1  0  0.112745  0.144471  0  1.0103  0
H  H38  1  0.21554783  0.16192618  0.14813041  1  0  0.112953  0.145162  0  1.010125  0
H  H39  1  0.51383574  0.06723138  0.35195788  1  0  0.112773  0.144507  0  1.010315  0
H  H40  1  0.05483637  0.97680349  0.80057343  1  0  0.118806  0.146669  0  1.000265  0
H  H41  1  0.67635726  0.25435495  0.69938502  1  0  0.118264  0.14593  0  1.000035  0
H  H42  1  0.94517507  0.02320028  0.19943215  1  0  0.118809  0.146654  0  1.000269  0
H  H43  1  0.32365122  0.74564101  0.30062395  1  0  0.118281  0.145942  0  1.000015  0
H  H44  1  0.23396366  0.53653501  0.08218534  1  0  0.32322  0.405922  0  0.885696  0
H  H45  1  0.95427467  0.15156823  0.41790102  1  0  0.322641  0.405293  0  0.887058  0
H  H46  1  0.76603845  0.46347519  0.91781350  1  0  0.32318  0.405894  0  0.885735  0
H  H47  1  0.04571629  0.84843052  0.58209782  1  0  0.322627  0.405304  0  0.887085  0
H  H48  1  0.39074323  0.51855119  0.13829691  1  0  0.300232  0.38897  0  0.946835  0
H  H49  1  0.88025630  0.25217909  0.36161223  1  0  0.299336  0.388571  0  0.947409  0
H  H50  1  0.60925483  0.48145296  0.86170107  1  0  0.300224  0.388956  0  0.94684  0
H  H51  1  0.11973767  0.74781997  0.63838149  1  0  0.299362  0.38862  0  0.94734  0
O  O52  1  0.64339794  0.95641140  0.98284128  1  0  -0.426786  -0.712376  0  2.42128  0
O  O53  1  0.47339612  0.66065593  0.51705178  1  0  -0.428134  -0.712789  0  2.419973  0
O  O54  1  0.35660779  0.04359459  0.01715838  1  0  -0.426751  -0.712393  0  2.420985  0
O  O55  1  0.52659443  0.33933322  0.48294873  1  0  -0.428037  -0.712636  0  2.420234  0
O  O56  1  0.73837985  0.21526216  0.99109551  1  0  -0.420483  -0.642799  0  2.280065  0
O  O57  1  0.72400534  0.74728749  0.50882260  1  0  -0.420039  -0.643105  0  2.280847  0
O  O58  1  0.26161767  0.78474246  0.00890077  1  0  -0.420384  -0.642753  0  2.280388  0
O  O59  1  0.27598615  0.25270784  0.49117622  1  0  -0.420132  -0.643198  0  2.280604  0
O  O60  1  0.33208578  0.75403860  0.82016848  1  0  -0.35817  -0.583588  0  2.351493  0
O  O61  1  0.43369273  0.51175056  0.67974251  1  0  -0.357733  -0.582446  0  2.353012  0
O  O62  1  0.66791377  0.24596177  0.17982267  1  0  -0.358063  -0.58341  0  2.350878  0
O  O63  1  0.56630440  0.48824153  0.32025372  1  0  -0.357658  -0.582248  0  2.353567  0
O  O64  1  0.34493340  0.30726917  0.88703474  1  0  -0.428067  -0.683444  0  2.324835  0
O  O65  1  0.92025672  0.45794472  0.61290634  1  0  -0.429983  -0.684114  0  2.324981  0
O  O66  1  0.65507130  0.69273321  0.11296151  1  0  -0.428077  -0.683441  0  2.325017  0
O  O67  1  0.07974299  0.54204690  0.38709158  1  0  -0.430044  -0.684227  0  2.324704  0
O  O68  1  0.98180353  0.22985451  0.92863515  1  0  -0.112057  -0.103887  0  2.615872  0
O  O69  1  0.80107246  0.05311046  0.57115821  1  0  -0.112364  -0.102626  0  2.615085  0
O  O70  1  0.01820430  0.77014972  0.07136875  1  0  -0.112157  -0.103939  0  2.615802  0
O  O71  1  0.19892367  0.94688147  0.42884058  1  0  -0.112409  -0.102508  0  2.615049  0
O  O72  1  0.24875394  0.47427042  0.91251429  1  0  -0.392898  -0.661035  0  2.301478  0
O  O73  1  0.06177108  0.33628468  0.58741830  1  0  -0.391871  -0.661283  0  2.30257  0
O  O74  1  0.75124727  0.52572610  0.08748450  1  0  -0.392924  -0.661089  0  2.301235  0
O  O75  1  0.93823223  0.66370795  0.41258216  1  0  -0.391814  -0.66127  0  2.302938  0
O  O76  1  0.26391145  0.67019174  0.63307894  1  0  -0.342896  -0.602103  0  2.357706  0
O  O77  1  0.53690625  0.63064760  0.86681419  1  0  -0.343224  -0.602834  0  2.360841  0
O  O78  1  0.73607697  0.32979571  0.36691135  1  0  -0.342767  -0.60175  0  2.358123  0
O  O79  1  0.46308873  0.36935440  0.13318124  1  0  -0.343195  -0.602792  0  2.360358  0
O  O80  1  0.59315706  0.93516668  0.18247973  1  0  -0.619141  -0.815106  0  2.063441  0
O  O81  1  0.25293840  0.41079954  0.31761573  1  0  -0.621126  -0.817674  0  2.062292  0
O  O82  1  0.40684300  0.06484056  0.81751740  1  0  -0.619117  -0.815004  0  2.063445  0
O  O83  1  0.74705455  0.58920165  0.68238056  1  0  -0.621038  -0.817606  0  2.062279  0
O  O84  1  0.35210285  0.59709627  0.13464905  1  0  -0.606952  -0.793976  0  2.043693  0
O  O85  1  0.96240192  0.21712190  0.36533580  1  0  -0.604697  -0.792296  0  2.044767  0
O  O86  1  0.64790185  0.40291118  0.86535147  1  0  -0.60691  -0.793936  0  2.043694  0
O  O87  1  0.03759313  0.78287540  0.63466216  1  0  -0.604704  -0.79234  0  2.044755  0
Yb  Yb88  1  0.46057411  0.73603609  0.00218853  1  0  1.580216  2.093461  0  2.142517  0
Yb  Yb89  1  0.23383562  0.45829339  0.49777381  1  0  1.580968  2.093615  0  2.142126  0
Yb  Yb90  1  0.53943161  0.26396923  0.99780942  1  0  1.580212  2.093481  0  2.142471  0
Yb  Yb91  1  0.76616200  0.54170130  0.50222328  1  0  1.580961  2.093539  0  2.141945  0
