# generated using pymatgen
data_TbH28C39NO8
_symmetry_space_group_name_H-M   'P 1'
_cell_length_a   9.32771878
_cell_length_b   16.48476837
_cell_length_c   23.74743059
_cell_angle_alpha   90.00010898
_cell_angle_beta   90.00010543
_cell_angle_gamma   102.47497176
_symmetry_Int_Tables_number   1
_chemical_formula_structural   TbH28C39NO8
_chemical_formula_sum   'Tb4 H112 C156 N4 O32'
_cell_volume   3565.31944287
_cell_formula_units_Z   4
loop_
 _symmetry_equiv_pos_site_id
 _symmetry_equiv_pos_as_xyz
  1  'x, y, z'
loop_
 _atom_site_type_symbol
 _atom_site_label
 _atom_site_symmetry_multiplicity
 _atom_site_fract_x
 _atom_site_fract_y
 _atom_site_fract_z
 _atom_site_occupancy
 _atom_site_pbe_bader_charge
 _atom_site_pbe_bader_spin_density
 _atom_site_pbe_cm5_charge
 _atom_site_pbe_ddec_charge
 _atom_site_pbe_ddec_spin_density
 _atom_site_pbe_ddec_sum_bond_order
 _atom_site_pbe_magmom
Tb  Tb0  1  0.75511848  0.51156501  0.48541354  1  2.186518  0  1.509664  2.09231  0  2.173089  0
Tb  Tb1  1  0.74488196  0.48843263  0.98540993  1  2.186509  0  1.509558  2.092313  0  2.172971  0
Tb  Tb2  1  0.24489018  0.48843212  0.51459040  1  2.186553  0  1.509585  2.092275  0  2.172996  0
Tb  Tb3  1  0.25511777  0.51156638  0.01458601  1  2.186583  0  1.509623  2.092243  0  2.173171  0
H  H4  1  0.30780387  0.74952130  0.90172300  1  0.063384  0  0.10549  0.119911  0  1.013902  0
H  H5  1  0.19219808  0.25047358  0.40172159  1  0.063016  0  0.105451  0.119881  0  1.013921  0
H  H6  1  0.69219575  0.25048019  0.09827547  1  0.063326  0  0.10547  0.119876  0  1.013969  0
H  H7  1  0.80780701  0.74952541  0.59827772  1  0.062978  0  0.105476  0.119913  0  1.013885  0
H  H8  1  0.07060271  0.72785822  0.95022373  1  0.081428  0  0.106304  0.115019  0  1.007821  0
H  H9  1  0.42940193  0.27214305  0.45022209  1  0.081443  0  0.106322  0.115037  0  1.007841  0
H  H10  1  0.92939811  0.27214638  0.04977516  1  0.081325  0  0.106272  0.114983  0  1.007849  0
H  H11  1  0.57060663  0.72786216  0.54977553  1  0.081337  0  0.106341  0.115073  0  1.007892  0
H  H12  1  0.99999446  0.95882765  0.88305147  1  0.074081  0  0.095111  0.089247  0  1.054974  0
H  H13  1  0.50001775  0.04117396  0.38304796  1  0.073996  0  0.095076  0.089277  0  1.055019  0
H  H14  1  0.00000529  0.04117694  0.11694784  1  0.074196  0  0.095075  0.089216  0  1.05496  0
H  H15  1  0.49999640  0.95883186  0.61694840  1  0.074315  0  0.095096  0.089238  0  1.054971  0
H  H16  1  0.24052257  0.98130715  0.83435626  1  0.067193  0  0.104043  0.111986  0  0.996644  0
H  H17  1  0.25948863  0.01869308  0.33435333  1  0.067165  0  0.10402  0.112041  0  0.996608  0
H  H18  1  0.75947622  0.01869497  0.16564136  1  0.067306  0  0.104091  0.112076  0  0.996563  0
H  H19  1  0.74052242  0.98131026  0.66564513  1  0.06711  0  0.104058  0.112033  0  0.996636  0
H  H20  1  0.82909895  0.69489808  0.94269895  1  0.127054  0  0.107838  0.109663  0  1.048771  0
H  H21  1  0.67090540  0.30510189  0.44270307  1  0.126944  0  0.107859  0.109697  0  1.048776  0
H  H22  1  0.17090257  0.30510278  0.05729614  1  0.126909  0  0.107871  0.109712  0  1.048827  0
H  H23  1  0.32911268  0.69490020  0.55730171  1  0.126934  0  0.107838  0.109663  0  1.048748  0
H  H24  1  0.48084696  0.79251080  0.01535183  1  0.094386  0  0.101306  0.102915  0  1.023127  0
H  H25  1  0.01914907  0.20747901  0.51535274  1  0.09436  0  0.101242  0.102774  0  1.023183  0
H  H26  1  0.51915276  0.20748261  0.98464832  1  0.094399  0  0.101252  0.102833  0  1.023113  0
H  H27  1  0.98084706  0.79250508  0.48465162  1  0.094429  0  0.101287  0.102914  0  1.023154  0
H  H28  1  0.63372319  0.93740472  0.00529489  1  0.070603  0  0.098378  0.096995  0  1.01621  0
H  H29  1  0.86626921  0.06258628  0.50529165  1  0.070497  0  0.098397  0.096995  0  1.016174  0
H  H30  1  0.36626986  0.06258808  0.99470694  1  0.070546  0  0.098406  0.097062  0  1.016081  0
H  H31  1  0.13371788  0.93740217  0.49470471  1  0.070734  0  0.09838  0.09703  0  1.016209  0
H  H32  1  0.88009249  0.95999560  0.96306219  1  0.081883  0  0.102215  0.101506  0  1.010451  0
H  H33  1  0.61990103  0.04000383  0.46305877  1  0.082033  0  0.102271  0.101496  0  1.010483  0
H  H34  1  0.11989939  0.04000527  0.03693754  1  0.082055  0  0.102291  0.10158  0  1.010422  0
H  H35  1  0.38009061  0.95999643  0.53693591  1  0.0819  0  0.102195  0.101497  0  1.010429  0
H  H36  1  0.35532678  0.81064917  0.73578300  1  0.073187  0  0.105121  0.116228  0  1.002524  0
H  H37  1  0.14467191  0.18934762  0.23578063  1  0.0731  0  0.105111  0.116189  0  1.002571  0
H  H38  1  0.64467712  0.18935232  0.26421673  1  0.073197  0  0.105133  0.116213  0  1.002507  0
H  H39  1  0.85532116  0.81065076  0.76421910  1  0.073092  0  0.10512  0.11622  0  1.002516  0
H  H40  1  0.44132835  0.69074483  0.69580136  1  0.08114  0  0.099875  0.09921  0  1.020037  0
H  H41  1  0.05867641  0.30925430  0.19579993  1  0.081081  0  0.099895  0.099269  0  1.019935  0
H  H42  1  0.55868377  0.30925851  0.30419921  1  0.081061  0  0.099872  0.099255  0  1.019957  0
H  H43  1  0.94131701  0.69074223  0.80419979  1  0.081073  0  0.099874  0.099251  0  1.01995  0
H  H44  1  0.68306210  0.67228822  0.84870472  1  0.08274  0  0.103043  0.105339  0  1.015567  0
H  H45  1  0.81694669  0.32771328  0.34870560  1  0.081632  0  0.102996  0.1053  0  1.015538  0
H  H46  1  0.31694193  0.32771637  0.15129543  1  0.082686  0  0.10304  0.105357  0  1.015521  0
H  H47  1  0.18305674  0.67228696  0.65129581  1  0.082554  0  0.103023  0.105329  0  1.015495  0
H  H48  1  0.60205896  0.79481941  0.88656149  1  0.111007  0  0.099771  0.105338  0  1.065022  0
H  H49  1  0.89794636  0.20518098  0.38656101  1  0.111072  0  0.099797  0.10539  0  1.064988  0
H  H50  1  0.39794745  0.20518580  0.11343823  1  0.110505  0  0.099803  0.105436  0  1.064951  0
H  H51  1  0.10205755  0.79482050  0.61344040  1  0.111063  0  0.099802  0.105403  0  1.064938  0
H  H52  1  0.63532892  0.64970868  0.66002743  1  0.09494  0  0.103585  0.103071  0  1.047134  0
H  H53  1  0.86467622  0.35028843  0.16002712  1  0.094857  0  0.103584  0.103072  0  1.047111  0
H  H54  1  0.36467153  0.35029218  0.33997483  1  0.094872  0  0.1036  0.103119  0  1.047073  0
H  H55  1  0.13532363  0.64970808  0.83997261  1  0.094947  0  0.10357  0.102989  0  1.047171  0
H  H56  1  0.80834345  0.43030862  0.68266643  1  0.075248  0  0.104127  0.104659  0  1.003824  0
H  H57  1  0.69164967  0.56968486  0.18266459  1  0.07516  0  0.104123  0.104616  0  1.00376  0
H  H58  1  0.19164354  0.56968792  0.31733541  1  0.075066  0  0.104142  0.10468  0  1.003793  0
H  H59  1  0.30834040  0.43030856  0.81733387  1  0.075281  0  0.104132  0.104642  0  1.003782  0
H  H60  1  0.74807663  0.43040795  0.78538784  1  0.070412  0  0.103755  0.103052  0  0.988926  0
H  H61  1  0.75192010  0.56959086  0.28538562  1  0.070478  0  0.103765  0.103101  0  0.988945  0
H  H62  1  0.25191632  0.56959293  0.21461358  1  0.070428  0  0.103722  0.103034  0  0.988882  0
H  H63  1  0.24807034  0.43040629  0.71461242  1  0.07013  0  0.103766  0.103074  0  0.988935  0
H  H64  1  0.63151218  0.53864057  0.82433397  1  0.112404  0  0.102616  0.109686  0  1.043303  0
H  H65  1  0.86849218  0.46136085  0.32433297  1  0.112446  0  0.102623  0.109696  0  1.043325  0
H  H66  1  0.36849138  0.46136277  0.17566912  1  0.112502  0  0.102645  0.109746  0  1.043354  0
H  H67  1  0.13150244  0.53863878  0.67566634  1  0.112928  0  0.10265  0.109681  0  1.043266  0
H  H68  1  0.43575856  0.99307873  0.92021994  1  0.031518  0  0.096955  0.10091  0  1.043649  0
H  H69  1  0.06424696  0.00691683  0.42021812  1  0.031647  0  0.096925  0.100844  0  1.043671  0
H  H70  1  0.56423892  0.00692276  0.07977852  1  0.031501  0  0.096945  0.100936  0  1.043678  0
H  H71  1  0.93575718  0.99307968  0.57978119  1  0.031503  0  0.096934  0.100883  0  1.04363  0
H  H72  1  0.64278386  0.10890625  0.94187020  1  0.047192  0  0.098084  0.096411  0  1.019939  0
H  H73  1  0.85721465  0.89109248  0.44186975  1  0.047198  0  0.098045  0.096371  0  1.019873  0
H  H74  1  0.35721635  0.89109399  0.05813037  1  0.047204  0  0.098055  0.096333  0  1.01992  0
H  H75  1  0.14278235  0.10890777  0.55813040  1  0.04719  0  0.098053  0.096368  0  1.019868  0
H  H76  1  0.88108644  0.04233788  0.79991425  1  0.058652  0  0.099866  0.099445  0  1.00519  0
H  H77  1  0.61890586  0.95766596  0.29991709  1  0.05858  0  0.099881  0.099482  0  1.005104  0
H  H78  1  0.11891234  0.95766424  0.20008463  1  0.05863  0  0.099868  0.099495  0  1.005097  0
H  H79  1  0.38108710  0.04234051  0.70008685  1  0.05862  0  0.099856  0.099422  0  1.00517  0
H  H80  1  0.67564180  0.92572148  0.77882111  1  0.081421  0  0.099637  0.107542  0  1.02412  0
H  H81  1  0.82435620  0.07427792  0.27882167  1  0.081417  0  0.099614  0.107516  0  1.024128  0
H  H82  1  0.32435722  0.07428125  0.22117778  1  0.081384  0  0.099621  0.107563  0  1.024099  0
H  H83  1  0.17564259  0.92572419  0.72117932  1  0.081457  0  0.099617  0.107557  0  1.024121  0
H  H84  1  0.07171035  0.09094887  0.85825883  1  0.030326  0  0.097288  0.093033  0  1.033557  0
H  H85  1  0.42828267  0.90905395  0.35826183  1  0.030308  0  0.097271  0.093086  0  1.033505  0
H  H86  1  0.92829201  0.90905137  0.14174258  1  0.030249  0  0.097265  0.093029  0  1.033471  0
H  H87  1  0.57170648  0.09094817  0.64174127  1  0.030246  0  0.097273  0.093061  0  1.033529  0
H  H88  1  0.27885231  0.20768912  0.87899723  1  0.055915  0  0.098386  0.09628  0  0.996651  0
H  H89  1  0.22114308  0.79231129  0.37899613  1  0.056139  0  0.098354  0.096247  0  0.996663  0
H  H90  1  0.72115111  0.79231112  0.12100629  1  0.056194  0  0.098394  0.096322  0  0.996661  0
H  H91  1  0.77884902  0.20768462  0.62100192  1  0.055932  0  0.098384  0.096289  0  0.996684  0
H  H92  1  0.23147411  0.33932235  0.92083888  1  0.062557  0  0.102803  0.098223  0  1.042769  0
H  H93  1  0.26852071  0.66067882  0.42083680  1  0.062664  0  0.102806  0.098281  0  1.042712  0
H  H94  1  0.76852492  0.66068038  0.07916170  1  0.062715  0  0.102822  0.098261  0  1.042727  0
H  H95  1  0.73147961  0.33931894  0.57916041  1  0.062841  0  0.102814  0.098269  0  1.042711  0
H  H96  1  0.76858018  0.23722421  0.91603680  1  0.057756  0  0.102561  0.105553  0  1.017897  0
H  H97  1  0.73141532  0.76277816  0.41603651  1  0.057638  0  0.102557  0.105572  0  1.017957  0
H  H98  1  0.23142110  0.76277603  0.08396209  1  0.057756  0  0.102567  0.105554  0  1.017898  0
H  H99  1  0.26858145  0.23722706  0.58396322  1  0.057758  0  0.102524  0.1055  0  1.017931  0
H  H100  1  0.50410587  0.42779404  0.41370880  1  0.647676  0  0.298968  0.394851  0  0.947596  0
H  H101  1  0.99589450  0.57220708  0.91370716  1  0.647709  0  0.298973  0.394854  0  0.947594  0
H  H102  1  0.49589886  0.57220682  0.58629430  1  0.64765  0  0.298979  0.394807  0  0.94765  0
H  H103  1  0.00410488  0.42779379  0.08629088  1  0.647703  0  0.29895  0.394834  0  0.947625  0
H  H104  1  0.63258573  0.46277802  0.37094003  1  0.631828  0  0.321518  0.402644  0  0.89546  0
H  H105  1  0.86741652  0.53722295  0.87093783  1  0.631766  0  0.321488  0.402548  0  0.895587  0
H  H106  1  0.36741829  0.53722098  0.62906222  1  0.631762  0  0.321489  0.40252  0  0.895598  0
H  H107  1  0.13258631  0.46277854  0.12905895  1  0.631871  0  0.321544  0.402677  0  0.895439  0
H  H108  1  0.00484565  0.53092830  0.40342926  1  0.673042  0  0.305543  0.409768  0  0.921606  0
H  H109  1  0.49515049  0.46907095  0.90342665  1  0.673016  0  0.30548  0.409688  0  0.921705  0
H  H110  1  0.99515682  0.46906946  0.59657257  1  0.67307  0  0.305519  0.409738  0  0.921652  0
H  H111  1  0.50484520  0.53092868  0.09657140  1  0.673034  0  0.305506  0.409757  0  0.921627  0
H  H112  1  0.92707529  0.60736194  0.39890073  1  0.640994  0  0.333298  0.415961  0  0.862534  0
H  H113  1  0.57291415  0.39263603  0.89889476  1  0.640953  0  0.333319  0.41597  0  0.862432  0
H  H114  1  0.07291872  0.39263334  0.60110153  1  0.640911  0  0.333273  0.415926  0  0.862444  0
H  H115  1  0.42708178  0.60736422  0.10109991  1  0.64095  0  0.333289  0.415957  0  0.862499  0
C  C116  1  0.29092833  0.86732512  0.86470938  1  0.321181  0  0.090465  0.182249  0  4.03528  0
C  C117  1  0.20907591  0.13267336  0.36470699  1  0.320591  0  0.09051  0.182339  0  4.035286  0
C  C118  1  0.70907297  0.13268072  0.13528866  1  0.320893  0  0.090466  0.182125  0  4.03537  0
C  C119  1  0.79092907  0.86732812  0.63529190  1  0.321006  0  0.090544  0.182418  0  4.035061  0
C  C120  1  0.24043214  0.79550759  0.89706440  1  0.021158  0  -0.096468  -0.17125  0  3.98054  0
C  C121  1  0.25956680  0.20448790  0.39706255  1  0.021751  0  -0.096418  -0.171195  0  3.98047  0
C  C122  1  0.75956736  0.20449638  0.10293365  1  0.021233  0  -0.096434  -0.171092  0  3.980584  0
C  C123  1  0.74043686  0.79551297  0.60293591  1  0.021741  0  -0.096481  -0.171318  0  3.980373  0
C  C124  1  0.10571916  0.78337381  0.92450731  1  -0.077348  0  -0.087215  -0.107966  0  3.965761  0
C  C125  1  0.39428080  0.21662674  0.42450431  1  -0.077513  0  -0.087247  -0.108077  0  3.965876  0
C  C126  1  0.89427928  0.21663016  0.07549200  1  -0.077564  0  -0.087205  -0.108042  0  3.965841  0
C  C127  1  0.60572561  0.78337847  0.57549205  1  -0.077429  0  -0.087254  -0.108079  0  3.965896  0
C  C128  1  0.01732476  0.84226833  0.92085976  1  -0.004163  0  -0.015953  0.051981  0  4.008087  0
C  C129  1  0.48267208  0.15772973  0.42085802  1  -0.004152  0  -0.015952  0.052047  0  4.00811  0
C  C130  1  0.98266950  0.15773317  0.07914039  1  -0.004225  0  -0.015887  0.052122  0  4.008258  0
C  C131  1  0.51733445  0.84227299  0.57914129  1  -0.004095  0  -0.015924  0.052083  0  4.0083  0
C  C132  1  0.06902053  0.91376861  0.88813545  1  -0.095643  0  -0.093904  -0.12143  0  4.000499  0
C  C133  1  0.43098515  0.08623057  0.38813062  1  -0.095859  0  -0.093868  -0.121455  0  4.000626  0
C  C134  1  0.93097849  0.08623412  0.11186428  1  -0.095677  0  -0.093898  -0.12145  0  4.000622  0
C  C135  1  0.56902400  0.91377339  0.61186489  1  -0.096032  0  -0.093891  -0.121395  0  4.000653  0
C  C136  1  0.20307743  0.92626682  0.86035481  1  -0.034449  0  -0.098519  -0.174624  0  4.019233  0
C  C137  1  0.29692726  0.07373288  0.36035240  1  -0.033689  0  -0.098537  -0.174806  0  4.019379  0
C  C138  1  0.79692232  0.07373777  0.13964365  1  -0.034109  0  -0.098548  -0.174669  0  4.019232  0
C  C139  1  0.70307796  0.92626922  0.63964564  1  -0.034128  0  -0.098562  -0.174809  0  4.01931  0
C  C140  1  0.87340769  0.82924022  0.94915365  1  0.030144  0  -0.004536  0.070518  0  3.99242  0
C  C141  1  0.62659527  0.17076164  0.44915124  1  0.03022  0  -0.004479  0.070518  0  3.99244  0
C  C142  1  0.12658598  0.17076252  0.05084482  1  0.030319  0  -0.004477  0.070529  0  3.9926  0
C  C143  1  0.37341447  0.82924108  0.55084764  1  0.030336  0  -0.004527  0.070396  0  3.992657  0
C  C144  1  0.78865041  0.74867571  0.95690219  1  -0.030108  0  -0.075998  -0.133368  0  3.912513  0
C  C145  1  0.71135319  0.25132493  0.45690459  1  -0.029813  0  -0.076001  -0.133377  0  3.912505  0
C  C146  1  0.21134945  0.25132640  0.04309459  1  -0.029833  0  -0.076012  -0.133383  0  3.912802  0
C  C147  1  0.28865666  0.74867530  0.54309851  1  -0.030243  0  -0.075948  -0.133197  0  3.912732  0
C  C148  1  0.64831496  0.73574514  0.98055775  1  -0.109173  0  -0.019559  -0.048256  0  3.987874  0
C  C149  1  0.85168520  0.26425185  0.48056279  1  -0.108716  0  -0.019646  -0.048481  0  3.987864  0
C  C150  1  0.35168287  0.26425448  0.01943861  1  -0.108817  0  -0.01961  -0.04838  0  3.987868  0
C  C151  1  0.14832451  0.73573968  0.51944368  1  -0.108793  0  -0.019521  -0.048276  0  3.988246  0
C  C152  1  0.59142742  0.80380090  0.99793523  1  -0.029446  0  -0.088891  -0.107754  0  3.982966  0
C  C153  1  0.90857094  0.19619119  0.49793517  1  -0.029957  0  -0.088792  -0.107478  0  3.982905  0
C  C154  1  0.40856981  0.19619437  0.00206492  1  -0.029945  0  -0.088777  -0.107577  0  3.982874  0
C  C155  1  0.09142829  0.80379539  0.50206793  1  -0.029795  0  -0.088926  -0.107843  0  3.983134  0
C  C156  1  0.67624862  0.88396940  0.99180749  1  -0.089185  0  -0.092137  -0.079977  0  4.033782  0
C  C157  1  0.82374911  0.11602392  0.49180516  1  -0.088681  0  -0.092127  -0.08001  0  4.033937  0
C  C158  1  0.32374670  0.11602650  0.00819308  1  -0.08861  0  -0.092123  -0.080061  0  4.033798  0
C  C159  1  0.17624596  0.88396577  0.50819247  1  -0.089331  0  -0.092092  -0.079993  0  4.033772  0
C  C160  1  0.81552637  0.89676203  0.96759651  1  -0.069643  0  -0.080659  -0.112935  0  3.941935  0
C  C161  1  0.68447122  0.10323679  0.46759490  1  -0.069865  0  -0.080752  -0.112929  0  3.942066  0
C  C162  1  0.18446599  0.10324009  0.03240322  1  -0.069983  0  -0.080843  -0.113115  0  3.942027  0
C  C163  1  0.31552731  0.89675910  0.53240356  1  -0.069521  0  -0.080698  -0.112904  0  3.941985  0
C  C164  1  0.55761498  0.64951974  0.98597424  1  1.572569  0  0.231478  0.646555  0  4.161745  0
C  C165  1  0.94238641  0.35047479  0.48598072  1  1.57231  0  0.231633  0.647072  0  4.161485  0
C  C166  1  0.44238594  0.35047678  0.01401959  1  1.572337  0  0.231613  0.647071  0  4.161486  0
C  C167  1  0.05762593  0.64951798  0.51402995  1  1.573018  0  0.231428  0.64659  0  4.161657  0
C  C168  1  0.47273346  0.80927572  0.81386728  1  0.342346  0  0.0868  0.17132  0  4.041672  0
C  C169  1  0.02726975  0.19072072  0.31386609  1  0.342  0  0.086767  0.171085  0  4.041668  0
C  C170  1  0.52726651  0.19072391  0.18613287  1  0.342098  0  0.086811  0.171313  0  4.041716  0
C  C171  1  0.97273153  0.80927952  0.68613448  1  0.341997  0  0.086809  0.171188  0  4.041665  0
C  C172  1  0.42728420  0.78004018  0.76020628  1  -0.065136  0  -0.087904  -0.152854  0  3.977206  0
C  C173  1  0.07271988  0.21995918  0.26020516  1  -0.065059  0  -0.087855  -0.152667  0  3.97703  0
C  C174  1  0.57272125  0.21996254  0.23979303  1  -0.065293  0  -0.087951  -0.152861  0  3.977302  0
C  C175  1  0.92727902  0.78004045  0.73979541  1  -0.065069  0  -0.087966  -0.152921  0  3.97723  0
C  C176  1  0.47607950  0.71249290  0.73801396  1  -0.057342  0  -0.086051  -0.107205  0  3.966894  0
C  C177  1  0.02392421  0.28750576  0.23801374  1  -0.057241  0  -0.086085  -0.107314  0  3.966773  0
C  C178  1  0.52392762  0.28750858  0.26198619  1  -0.057354  0  -0.086041  -0.107251  0  3.96691  0
C  C179  1  0.97606969  0.71249201  0.76198599  1  -0.05734  0  -0.086015  -0.107184  0  3.966887  0
C  C180  1  0.56803853  0.67218993  0.76927671  1  0.030179  0  -0.009198  0.054274  0  4.00661  0
C  C181  1  0.93197013  0.32780943  0.26927852  1  0.030268  0  -0.009218  0.054278  0  4.006745  0
C  C182  1  0.43196788  0.32780969  0.23072344  1  0.030285  0  -0.00925  0.054297  0  4.006733  0
C  C183  1  0.06802960  0.67218957  0.73072289  1  0.030309  0  -0.009236  0.054309  0  4.006731  0
C  C184  1  0.61041879  0.70169342  0.82368179  1  -0.096659  0  -0.087725  -0.110572  0  3.962348  0
C  C185  1  0.88958722  0.29830675  0.32368227  1  -0.096983  0  -0.087657  -0.110556  0  3.962399  0
C  C186  1  0.38958369  0.29830993  0.17631962  1  -0.096489  0  -0.087649  -0.11058  0  3.962572  0
C  C187  1  0.11041096  0.70169101  0.67631872  1  -0.09639  0  -0.087678  -0.110618  0  3.962334  0
C  C188  1  0.56514631  0.77022530  0.84531742  1  -0.068846  0  -0.092835  -0.162189  0  3.993939  0
C  C189  1  0.93486233  0.22977308  0.34531658  1  -0.067314  0  -0.092816  -0.162104  0  3.993733  0
C  C190  1  0.43485856  0.22977867  0.15468315  1  -0.068074  0  -0.092915  -0.162318  0  3.994112  0
C  C191  1  0.06514240  0.77022778  0.65468483  1  -0.068755  0  -0.09287  -0.162186  0  3.993788  0
C  C192  1  0.62650106  0.60337513  0.74532673  1  0.040948  0  -0.006438  0.068931  0  4.02054  0
C  C193  1  0.87350460  0.39662788  0.24532564  1  0.041127  0  -0.006477  0.068912  0  4.020632  0
C  C194  1  0.37350451  0.39662511  0.25467468  1  0.041059  0  -0.00638  0.069014  0  4.020534  0
C  C195  1  0.12648835  0.60337300  0.75467451  1  0.04097  0  -0.006472  0.068885  0  4.020542  0
C  C196  1  0.65676915  0.60104221  0.68775588  1  -0.094556  0  -0.081281  -0.141288  0  3.92799  0
C  C197  1  0.84323449  0.39895624  0.18775393  1  -0.09463  0  -0.081265  -0.141335  0  3.927917  0
C  C198  1  0.34323154  0.39895927  0.31224553  1  -0.094522  0  -0.081372  -0.141466  0  3.927883  0
C  C199  1  0.15676000  0.60104028  0.81224496  1  -0.09466  0  -0.081234  -0.141112  0  3.92788  0
C  C200  1  0.72159859  0.53904455  0.66535302  1  -0.01339  0  -0.021905  -0.039595  0  3.998547  0
C  C201  1  0.77839825  0.46095322  0.16535279  1  -0.013389  0  -0.021909  -0.039593  0  3.99844  0
C  C202  1  0.27839519  0.46095571  0.33464840  1  -0.013428  0  -0.021795  -0.039502  0  3.998344  0
C  C203  1  0.22159541  0.53904393  0.83464736  1  -0.013422  0  -0.021945  -0.039701  0  3.998611  0
C  C204  1  0.75782243  0.47821911  0.70053869  1  -0.055669  0  -0.082075  -0.087029  0  3.962715  0
C  C205  1  0.74217259  0.52177629  0.20053936  1  -0.055506  0  -0.082053  -0.086919  0  3.962827  0
C  C206  1  0.24216849  0.52177928  0.29946188  1  -0.055556  0  -0.082075  -0.086977  0  3.962714  0
C  C207  1  0.25782083  0.47822023  0.79946079  1  -0.056208  0  -0.082013  -0.086902  0  3.962639  0
C  C208  1  0.72454297  0.47882215  0.75775961  1  -0.00577  0  -0.091874  -0.083268  0  4.03171  0
C  C209  1  0.77545598  0.52117718  0.25775988  1  -0.005839  0  -0.09193  -0.083446  0  4.031818  0
C  C210  1  0.27545272  0.52117748  0.24224054  1  -0.00577  0  -0.09189  -0.083336  0  4.031642  0
C  C211  1  0.22453494  0.47882121  0.74223985  1  -0.004708  0  -0.091952  -0.083364  0  4.031636  0
C  C212  1  0.65935002  0.54048585  0.77981085  1  -0.13735  0  -0.087049  -0.130476  0  3.965283  0
C  C213  1  0.84065275  0.45951480  0.27980982  1  -0.137475  0  -0.087029  -0.130418  0  3.965425  0
C  C214  1  0.34065257  0.45951501  0.22019098  1  -0.13744  0  -0.08708  -0.130567  0  3.965363  0
C  C215  1  0.15933734  0.54048422  0.72018948  1  -0.138107  0  -0.087038  -0.130467  0  3.965077  0
C  C216  1  0.74632298  0.53710943  0.60377162  1  1.524978  0  0.207568  0.58842  0  4.175315  0
C  C217  1  0.75367348  0.46288812  0.10376843  1  1.524589  0  0.207574  0.588553  0  4.175159  0
C  C218  1  0.25367318  0.46289144  0.39623147  1  1.524574  0  0.2076  0.58852  0  4.175285  0
C  C219  1  0.24631827  0.53710965  0.89622919  1  1.525103  0  0.207587  0.588474  0  4.175312  0
C  C220  1  0.54022974  0.95043979  0.84810562  1  0.305359  0  0.095916  0.196234  0  4.033364  0
C  C221  1  0.95977380  0.04955923  0.34810498  1  0.305367  0  0.095943  0.196205  0  4.033476  0
C  C222  1  0.45977119  0.04956232  0.15189200  1  0.305391  0  0.096  0.196419  0  4.033309  0
C  C223  1  0.04022963  0.95044101  0.65189559  1  0.305349  0  0.096008  0.196312  0  4.03346  0
C  C224  1  0.53252669  0.00458075  0.89330484  1  0.026596  0  -0.108343  -0.194237  0  4.024806  0
C  C225  1  0.96747640  0.99541656  0.39330250  1  0.026483  0  -0.10834  -0.1942  0  4.024974  0
C  C226  1  0.46747400  0.99542074  0.10669405  1  0.026491  0  -0.108358  -0.194398  0  4.024955  0
C  C227  1  0.03252655  0.00458244  0.60669765  1  0.026656  0  -0.108386  -0.194318  0  4.024991  0
C  C228  1  0.64969556  0.07016809  0.90513357  1  -0.049095  0  -0.094484  -0.115946  0  4.011595  0
C  C229  1  0.85030487  0.92983051  0.40513232  1  -0.048861  0  -0.094462  -0.115914  0  4.011544  0
C  C230  1  0.35030704  0.92983277  0.09486658  1  -0.049023  0  -0.094447  -0.11576  0  4.011449  0
C  C231  1  0.14969617  0.07016912  0.59486698  1  -0.049129  0  -0.094427  -0.115821  0  4.011514  0
C  C232  1  0.77910525  0.08515090  0.87277939  1  -0.014417  0  -0.026103  0.031521  0  4.041994  0
C  C233  1  0.72089213  0.91485132  0.37278014  1  -0.014713  0  -0.026099  0.031519  0  4.042002  0
C  C234  1  0.22089710  0.91484934  0.12722034  1  -0.014494  0  -0.026117  0.031497  0  4.04202  0
C  C235  1  0.27910571  0.08515390  0.62722128  1  -0.014402  0  -0.026152  0.031427  0  4.042051  0
C  C236  1  0.78450513  0.03146988  0.82711715  1  -0.100078  0  -0.095732  -0.118698  0  4.027196  0
C  C237  1  0.71549270  0.96853405  0.32711839  1  -0.100051  0  -0.095746  -0.118766  0  4.027153  0
C  C238  1  0.21549533  0.96853099  0.17288173  1  -0.100035  0  -0.095748  -0.118768  0  4.027113  0
C  C239  1  0.28450693  0.03147304  0.67288302  1  -0.100052  0  -0.095719  -0.11866  0  4.02705  0
C  C240  1  0.66815105  0.96593350  0.81464943  1  -0.010048  0  -0.106278  -0.185902  0  4.005299  0
C  C241  1  0.83184907  0.03406540  0.31464826  1  -0.010056  0  -0.106256  -0.185854  0  4.005215  0
C  C242  1  0.33184940  0.03406736  0.18534946  1  -0.009962  0  -0.106274  -0.185994  0  4.005328  0
C  C243  1  0.16815400  0.96593670  0.68535147  1  -0.010132  0  -0.106278  -0.185966  0  4.005257  0
C  C244  1  0.04954530  0.14850183  0.87508510  1  -0.069113  0  -0.089083  -0.126336  0  3.968015  0
C  C245  1  0.45045282  0.85150290  0.37508804  1  -0.069248  0  -0.089157  -0.12651  0  3.967987  0
C  C246  1  0.95046122  0.85150089  0.12491420  1  -0.069051  0  -0.089079  -0.126268  0  3.967745  0
C  C247  1  0.54954299  0.14849983  0.62491422  1  -0.069083  0  -0.089078  -0.126367  0  3.967979  0
C  C248  1  0.16684847  0.21436810  0.88695889  1  -0.024518  0  -0.09548  -0.080793  0  4.047736  0
C  C249  1  0.33314721  0.78563295  0.38695913  1  -0.024773  0  -0.095418  -0.080698  0  4.047714  0
C  C250  1  0.83315305  0.78563276  0.11304126  1  -0.024788  0  -0.095491  -0.080887  0  4.047822  0
C  C251  1  0.66684848  0.21436668  0.61304228  1  -0.024616  0  -0.095492  -0.080851  0  4.047909  0
C  C252  1  0.14160937  0.28740477  0.91053580  1  -0.032752  0  -0.087056  -0.099474  0  3.983426  0
C  C253  1  0.35838324  0.71259637  0.41053512  1  -0.032903  0  -0.087068  -0.099595  0  3.983427  0
C  C254  1  0.85838537  0.71259797  0.08946519  1  -0.032979  0  -0.087062  -0.099474  0  3.983467  0
C  C255  1  0.64161387  0.28740139  0.58946335  1  -0.033055  0  -0.087034  -0.09945  0  3.983537  0
C  C256  1  0.99719058  0.29459298  0.92119663  1  -0.019588  0  -0.020311  -0.041629  0  3.98888  0
C  C257  1  0.50280316  0.70540755  0.42119653  1  -0.019439  0  -0.020387  -0.041647  0  3.988973  0
C  C258  1  0.00280558  0.70540789  0.07880394  1  -0.019412  0  -0.020336  -0.041652  0  3.988922  0
C  C259  1  0.49719383  0.29459270  0.57880320  1  -0.019461  0  -0.020344  -0.041673  0  3.988826  0
C  C260  1  0.87973004  0.22896373  0.90831010  1  -0.015094  0  -0.083557  -0.138645  0  3.929698  0
C  C261  1  0.62026125  0.77103614  0.40831143  1  -0.015089  0  -0.083609  -0.138777  0  3.930022  0
C  C262  1  0.12026755  0.77103528  0.09168836  1  -0.015082  0  -0.083526  -0.138605  0  3.929773  0
C  C263  1  0.37973099  0.22896287  0.59168956  1  -0.015269  0  -0.083496  -0.138536  0  3.929625  0
C  C264  1  0.90353643  0.15441839  0.88561708  1  -0.001713  0  -0.011118  0.066267  0  4.02523  0
C  C265  1  0.59645913  0.84558450  0.38561891  1  -0.001378  0  -0.010978  0.066464  0  4.025222  0
C  C266  1  0.09646593  0.84558185  0.11438307  1  -0.001745  0  -0.011149  0.066151  0  4.025247  0
C  C267  1  0.40353775  0.15441824  0.61438419  1  -0.001521  0  -0.011115  0.066277  0  4.025336  0
C  C268  1  0.96710675  0.37154040  0.94728455  1  1.587199  0  0.235029  0.655222  0  4.15189  0
C  C269  1  0.53290014  0.62846331  0.44728731  1  1.587104  0  0.235005  0.655251  0  4.151885  0
C  C270  1  0.03289967  0.62846481  0.05271139  1  1.587087  0  0.234993  0.655256  0  4.152008  0
C  C271  1  0.46711211  0.37154314  0.55271368  1  1.587531  0  0.234954  0.65515  0  4.151873  0
N  N272  1  0.42847180  0.88051086  0.83686516  1  -1.161289  0  -0.263237  -0.176251  0  3.657599  0
N  N273  1  0.07153369  0.11948566  0.33686434  1  -1.161244  0  -0.263268  -0.176114  0  3.657824  0
N  N274  1  0.57152973  0.11949001  0.16313288  1  -1.161231  0  -0.26325  -0.176213  0  3.657525  0
N  N275  1  0.92847056  0.88051396  0.66313581  1  -1.161262  0  -0.263241  -0.176095  0  3.657625  0
O  O276  1  0.61750095  0.58840897  0.97559500  1  -1.216762  0  -0.433713  -0.71611  0  2.389417  0
O  O277  1  0.88250014  0.41158491  0.47560867  1  -1.216844  0  -0.433799  -0.716336  0  2.389425  0
O  O278  1  0.38249735  0.41158631  0.02439294  1  -1.216897  0  -0.433814  -0.716331  0  2.389398  0
O  O279  1  0.11751662  0.58841097  0.52440874  1  -1.216914  0  -0.433755  -0.716212  0  2.389442  0
O  O280  1  0.42439857  0.64034045  0.00096657  1  -1.188394  0  -0.387131  -0.656829  0  2.287323  0
O  O281  1  0.07560667  0.35965116  0.50097362  1  -1.18855  0  -0.387185  -0.657126  0  2.287317  0
O  O282  1  0.57560675  0.35965357  0.99903021  1  -1.188492  0  -0.387178  -0.657129  0  2.287299  0
O  O283  1  0.92440875  0.64033291  0.49903579  1  -1.188687  0  -0.387103  -0.656831  0  2.287304  0
O  O284  1  0.83544111  0.49602544  0.58269356  1  -1.19915  0  -0.359979  -0.640261  0  2.315575  0
O  O285  1  0.66454701  0.50397019  0.08269373  1  -1.198741  0  -0.359931  -0.64034  0  2.315558  0
O  O286  1  0.16454802  0.50397109  0.41730870  1  -1.198867  0  -0.359982  -0.640331  0  2.315602  0
O  O287  1  0.33544212  0.49602634  0.91730474  1  -1.199116  0  -0.360002  -0.640342  0  2.315601  0
O  O288  1  0.67266725  0.57438821  0.57077521  1  -1.171815  0  -0.349842  -0.613313  0  2.276193  0
O  O289  1  0.82733878  0.42561232  0.07077371  1  -1.171829  0  -0.349837  -0.613359  0  2.276156  0
O  O290  1  0.32733475  0.42561389  0.42922620  1  -1.171751  0  -0.34989  -0.61335  0  2.276072  0
O  O291  1  0.17266477  0.57439103  0.92922476  1  -1.171946  0  -0.34982  -0.613327  0  2.276273  0
O  O292  1  0.84319353  0.38947163  0.93804478  1  -1.193428  0  -0.406216  -0.665197  0  2.275342  0
O  O293  1  0.65680888  0.61052894  0.43804887  1  -1.193539  0  -0.406223  -0.665205  0  2.27536  0
O  O294  1  0.15680572  0.61052613  0.06194948  1  -1.193498  0  -0.406238  -0.66521  0  2.275414  0
O  O295  1  0.34320241  0.38947502  0.56195886  1  -1.193585  0  -0.40621  -0.665214  0  2.275455  0
O  O296  1  0.06536572  0.41507188  0.97861564  1  -1.217758  0  -0.417735  -0.707197  0  2.384247  0
O  O297  1  0.43463482  0.58493509  0.47861695  1  -1.217654  0  -0.41766  -0.707227  0  2.384227  0
O  O298  1  0.93463474  0.58493458  0.02138282  1  -1.217655  0  -0.417667  -0.70726  0  2.384323  0
O  O299  1  0.56537088  0.41506826  0.52137899  1  -1.217924  0  -0.417653  -0.707111  0  2.384171  0
O  O300  1  0.61258435  0.43485762  0.40710855  1  -1.265818  0  -0.617612  -0.826444  0  2.081398  0
O  O301  1  0.88741658  0.56514223  0.90710683  1  -1.2658  0  -0.617599  -0.826363  0  2.081522  0
O  O302  1  0.38742015  0.56514262  0.59289413  1  -1.265764  0  -0.617617  -0.826293  0  2.081569  0
O  O303  1  0.11258447  0.43485739  0.09289080  1  -1.265897  0  -0.617613  -0.826454  0  2.081402  0
O  O304  1  0.90734564  0.54694916  0.40030210  1  -1.284375  0  -0.613182  -0.814825  0  2.055747  0
O  O305  1  0.59264785  0.45304819  0.90029791  1  -1.284349  0  -0.613136  -0.814739  0  2.055766  0
O  O306  1  0.09265587  0.45304611  0.59970353  1  -1.28438  0  -0.61312  -0.814727  0  2.055667  0
O  O307  1  0.40734700  0.54695206  0.09969803  1  -1.284318  0  -0.613142  -0.814786  0  2.055698  0
