# generated using pymatgen
data_CoH12C16(N2O3)2
_symmetry_space_group_name_H-M   'P 1'
_cell_length_a   9.25398212
_cell_length_b   10.21036233
_cell_length_c   10.71572232
_cell_angle_alpha   97.15232207
_cell_angle_beta   106.44745057
_cell_angle_gamma   93.06762059
_symmetry_Int_Tables_number   1
_chemical_formula_structural   CoH12C16(N2O3)2
_chemical_formula_sum   'Co2 H24 C32 N8 O12'
_cell_volume   959.30274958
_cell_formula_units_Z   2
loop_
 _symmetry_equiv_pos_site_id
 _symmetry_equiv_pos_as_xyz
  1  'x, y, z'
loop_
 _atom_site_type_symbol
 _atom_site_label
 _atom_site_symmetry_multiplicity
 _atom_site_fract_x
 _atom_site_fract_y
 _atom_site_fract_z
 _atom_site_occupancy
 _atom_site_hle17_ddec_charge
 _atom_site_hle17_ddec_spin_density
 _atom_site_hle17_ddec_sum_bond_order
 _atom_site_hle17_magmom
 _atom_site_hse06_10hf_ddec_charge
 _atom_site_hse06_10hf_ddec_spin_density
 _atom_site_hse06_10hf_ddec_sum_bond_order
 _atom_site_hse06_10hf_magmom
 _atom_site_hse06_ddec_charge
 _atom_site_hse06_ddec_spin_density
 _atom_site_hse06_ddec_sum_bond_order
 _atom_site_hse06_magmom
 _atom_site_pbe_cm5_charge
 _atom_site_pbe_ddec_charge
 _atom_site_pbe_ddec_spin_density
 _atom_site_pbe_ddec_sum_bond_order
 _atom_site_pbe_magmom
Co  Co0  1  0.41119950  0.51564933  0.78301586  1  0.912391  2.865988  2.025266  2.533  0.852443  2.839179  2.478917  2.59  0.947  2.887355  2.390637  2.68  0.683399  0.775524  2.788579  2.549295  2.506
Co  Co1  1  0.58879623  0.48435528  0.21698164  1  0.912493  -2.865986  2.025059  -2.533  0.852442  -2.839181  2.478906  -2.59  0.946988  -2.887353  2.390627  -2.68  0.683411  0.775519  -2.788621  2.549236  -2.506
H  H2  1  0.29691057  0.37704504  0.98706547  1  0.297749  -8.1e-05  0.934514  0.0  0.275494  5.2e-05  1.001292  0.0  0.284028  0.000112  0.994704  0.0  0.321559  0.269452  -2.8e-05  1.005957  0.0
H  H3  1  0.70308382  0.62295759  0.01293054  1  0.297745  8.1e-05  0.934459  0.0  0.275442  -5.2e-05  1.001308  0.0  0.283973  -0.000112  0.994729  0.0  0.321528  0.269402  2.9e-05  1.005973  0.0
H  H4  1  0.02312956  0.31583122  0.97257398  1  0.120829  6.8e-05  0.965039  0.0  0.129704  0.00029  1.030667  0.0  0.132712  0.000218  1.027718  0.0  0.123012  0.127311  0.000367  1.033095  0.0
H  H5  1  0.97686890  0.68416739  0.02742174  1  0.120819  -6.8e-05  0.96497  0.0  0.129689  -0.00029  1.030609  0.0  0.132697  -0.000217  1.027661  0.0  0.122981  0.127297  -0.000367  1.033037  0.0
H  H6  1  0.75051175  0.26717699  0.99090564  1  0.119728  0.000266  0.933777  0.0  0.126721  0.00012  0.999272  0.0  0.130529  8.2e-05  0.996249  0.0  0.115023  0.123877  0.000151  1.001385  0.0
H  H7  1  0.24949675  0.73283151  0.00909844  1  0.119746  -0.000264  0.933916  0.0  0.126718  -0.00012  0.999426  0.0  0.130524  -8.2e-05  0.996405  0.0  0.115017  0.123865  -0.00015  1.001552  0.0
H  H8  1  0.06621627  0.56242915  0.68045315  1  0.113007  -0.000184  0.934709  0.0  0.12308  -1.7e-05  0.993715  0.0  0.124917  -2.6e-05  0.992248  0.0  0.126082  0.121759  -7e-06  0.994857  0.0
H  H9  1  0.93377569  0.43756259  0.31954201  1  0.112976  0.000184  0.934713  0.0  0.12306  1.7e-05  0.993712  0.0  0.124898  2.6e-05  0.992248  0.0  0.126092  0.121735  7e-06  0.994854  0.0
H  H10  1  0.75384076  0.32846863  0.73908598  1  0.085461  7e-06  0.924845  0.0  0.104372  -1.7e-05  0.979027  0.0  0.104508  -4.5e-05  0.979656  0.0  0.097858  0.104335  1.2e-05  0.97858  0.0
H  H11  1  0.24615716  0.67152500  0.26090721  1  0.085443  -6e-06  0.924696  0.0  0.104436  1.7e-05  0.978831  0.0  0.104573  4.5e-05  0.979457  0.0  0.097895  0.104393  -1.2e-05  0.978386  0.0
H  H12  1  0.76070352  0.48438877  0.82930953  1  0.093714  -7.7e-05  0.949283  0.0  0.106473  3.4e-05  1.016522  0.0  0.107047  -2.6e-05  1.016847  0.0  0.098967  0.105984  9.2e-05  1.016638  0.0
H  H13  1  0.23928878  0.51559810  0.17069267  1  0.093667  7.7e-05  0.949284  0.0  0.106436  -3.4e-05  1.016564  0.0  0.107009  2.6e-05  1.0169  0.0  0.098972  0.105963  -9.2e-05  1.016654  0.0
H  H14  1  0.77283685  0.85063694  0.01835668  1  0.111236  0.000242  0.952995  0.0  0.117252  0.000149  1.0221  0.0  0.120841  9.7e-05  1.019182  0.0  0.110646  0.114726  0.000186  1.023775  0.0
H  H15  1  0.22716720  0.14936268  0.98164622  1  0.111287  -0.000242  0.953035  0.0  0.11724  -0.000149  1.022207  0.0  0.120829  -9.7e-05  1.019289  0.0  0.11066  0.114711  -0.000186  1.023883  0.0
H  H16  1  0.39043776  0.98327837  0.74556794  1  0.121123  5e-05  0.931609  0.0  0.127056  8.8e-05  0.994643  0.0  0.13224  3.8e-05  0.989352  0.0  0.111656  0.12317  0.000175  0.999083  0.0
H  H17  1  0.60956331  0.01672423  0.25443263  1  0.121123  -4.9e-05  0.931592  0.0  0.127067  -8.8e-05  0.994624  0.0  0.13225  -3.8e-05  0.989335  0.0  0.111655  0.123181  -0.000175  0.999063  0.0
H  H18  1  0.66991403  0.31331080  0.46602980  1  0.114926  4.1e-05  0.9388  0.0  0.127272  3.1e-05  0.993886  0.0  0.130028  4.8e-05  0.990909  0.0  0.122676  0.125155  1.4e-05  0.996268  0.0
H  H19  1  0.33007413  0.68668693  0.53396498  1  0.114959  -4.1e-05  0.938826  0.0  0.127296  -3.1e-05  0.993917  0.0  0.130048  -4.7e-05  0.990944  0.0  0.122702  0.125182  -1.4e-05  0.996297  0.0
H  H20  1  0.78419628  0.71013505  0.68474193  1  0.112841  -0.000209  0.959295  0.0  0.121147  -0.000225  1.024582  0.0  0.125127  -0.000175  1.019845  0.0  0.118335  0.118056  -0.00028  1.028232  0.0
H  H21  1  0.21579903  0.28985773  0.31525981  1  0.112846  0.000209  0.959253  0.0  0.121185  0.000225  1.024504  0.0  0.125169  0.000175  1.019759  0.0  0.11833  0.118066  0.00028  1.028177  0.0
H  H22  1  0.67365035  0.70637630  0.42696890  1  0.298412  6.8e-05  0.957756  0.0  0.275298  -0.000128  1.024638  0.0  0.284651  -9e-05  1.016781  0.0  0.312029  0.268689  -0.000155  1.030256  0.0
H  H23  1  0.32635142  0.29362336  0.57303434  1  0.298431  -6.8e-05  0.957669  0.0  0.275265  0.000128  1.024644  0.0  0.284617  9e-05  1.016793  0.0  0.312002  0.268657  0.000155  1.030261  0.0
H  H24  1  0.07725110  0.01811547  0.23600474  1  0.405258  1e-06  0.789257  0.0  0.392706  2e-06  0.837048  0.0  0.401818  0.0  0.827897  0.0  0.349121  0.386213  3e-06  0.843715  0.0
H  H25  1  0.92275985  0.98188402  0.76399437  1  0.405176  -1e-06  0.789181  0.0  0.392566  -2e-06  0.837067  0.0  0.401677  -0.0  0.827918  0.0  0.349073  0.386076  -4e-06  0.843732  0.0
C  C26  1  0.47615887  0.24191725  0.79399112  1  0.643105  -0.003344  3.899817  -0.007  0.597262  0.001041  4.20051  0.0  0.634099  0.000822  4.194259  0.0  0.208592  0.570843  0.000855  4.20449  -0.001
C  C27  1  0.52384423  0.75808439  0.20601362  1  0.643179  0.003344  3.89977  0.007  0.59737  -0.00104  4.20042  0.0  0.634209  -0.000824  4.194168  0.0  0.208662  0.570951  -0.000854  4.204389  0.001
C  C28  1  0.05713851  0.37527146  0.90642801  1  0.000672  0.009518  3.633492  0.012  -0.054674  0.008302  3.896475  0.01  -0.046695  0.006599  3.910516  0.008  0.023776  -0.059537  0.010114  3.887184  0.012
C  C29  1  0.94285854  0.62472520  0.09356901  1  0.000702  -0.009513  3.633535  -0.012  -0.054621  -0.008301  3.896489  -0.01  -0.046648  -0.006598  3.910529  -0.008  0.023798  -0.059486  -0.01011  3.887197  -0.012
C  C30  1  0.97275601  0.43567147  0.80282373  1  -0.011141  0.001131  3.783549  0.001  0.01459  0.000793  4.031083  0.001  0.005931  2.1e-05  4.057808  0.0  -0.028019  0.020308  0.001671  4.013375  0.002
C  C31  1  0.02723751  0.56432424  0.19717319  1  -0.011173  -0.001134  3.783695  -0.001  0.014545  -0.000792  4.031312  -0.001  0.005901  -2.3e-05  4.058026  0.0  -0.027989  0.020257  -0.00167  4.013598  -0.002
C  C32  1  0.56271776  0.13638338  0.85989314  1  -0.07959  0.005515  3.75363  0.008  -0.053436  0.002537  3.991131  0.004  -0.0654  0.001836  4.014539  0.003  -0.018299  -0.046236  0.002605  3.977286  0.004
C  C33  1  0.43729024  0.86362222  0.14011611  1  -0.079882  -0.005488  3.754006  -0.008  -0.05366  -0.002532  3.991411  -0.004  -0.065625  -0.001835  4.014818  -0.003  -0.018347  -0.046459  -0.002604  3.977559  -0.004
C  C34  1  0.70210024  0.16489175  0.95679208  1  -0.038009  -0.004423  3.656272  -0.006  -0.079514  -0.001493  3.908673  -0.002  -0.072247  -0.00098  3.924141  -0.001  -0.062759  -0.082545  -0.000367  3.897231  -0.001
C  C35  1  0.29790995  0.83511176  0.04321099  1  -0.037938  0.004392  3.656555  0.006  -0.079485  0.001489  3.908886  0.002  -0.07222  0.000979  3.924356  0.001  -0.062766  -0.082509  0.000368  3.89745  0.001
C  C36  1  0.08136363  0.50189012  0.75863942  1  0.008481  0.001594  3.69505  0.003  -0.039411  0.004422  3.972586  0.006  -0.029621  0.00381  3.989751  0.006  0.020974  -0.046325  0.004919  3.960583  0.007
C  C37  1  0.91862758  0.49810460  0.24135491  1  0.008512  -0.001586  3.695124  -0.003  -0.039384  -0.004422  3.972686  -0.006  -0.029602  -0.003812  3.989846  -0.006  0.020983  -0.046298  -0.004918  3.960668  -0.007
C  C38  1  0.80338782  0.43145621  0.75329947  1  -0.144942  7.2e-05  3.772132  0.0  -0.193112  0.00021  4.013552  0.0  -0.192167  0.000147  4.02893  0.0  -0.148765  -0.193761  0.000268  4.003164  0.0
C  C39  1  0.19660492  0.56853255  0.24669558  1  -0.144837  -7.4e-05  3.771897  0.0  -0.193175  -0.000209  4.01353  0.0  -0.192236  -0.000145  4.028899  0.0  -0.148832  -0.193827  -0.000267  4.003126  0.0
C  C40  1  0.77817058  0.06122438  0.01260066  1  -0.090651  0.001661  3.777662  0.003  -0.065685  0.000152  4.018876  0.0  -0.078337  0.00018  4.04306  0.0  -0.019589  -0.057969  0.000107  4.001969  0.0
C  C41  1  0.22183492  0.93877822  0.98740388  1  -0.090751  -0.001635  3.777682  -0.003  -0.065627  -0.00015  4.018697  0.0  -0.078275  -0.00018  4.042882  0.0  -0.019574  -0.057918  -0.000107  4.00179  0.0
C  C42  1  0.92806239  0.09312240  0.11224385  1  0.647823  4e-05  3.809741  0.0  0.598695  3.4e-05  4.11135  0.0  0.631927  1.7e-05  4.102885  0.0  0.234671  0.575951  1.1e-05  4.116874  0.0
C  C43  1  0.07194281  0.90687615  0.88775365  1  0.647797  -4.4e-05  3.809821  0.0  0.59868  -3.3e-05  4.111322  0.0  0.631906  -1.7e-05  4.102859  0.0  0.234651  0.575943  -1.1e-05  4.116848  0.0
C  C44  1  0.71366012  0.92985264  0.97343419  1  -0.04402  -0.004405  3.664257  -0.006  -0.08689  -0.001443  3.919356  -0.002  -0.080049  -0.000916  3.935529  -0.001  -0.069449  -0.089479  -0.000112  3.907184  0.0
C  C45  1  0.28633969  0.07015108  0.02657550  1  -0.044066  0.004377  3.664289  0.005  -0.086955  0.001441  3.919391  0.002  -0.080115  0.000916  3.935566  0.001  -0.069515  -0.089539  0.000112  3.907212  0.0
C  C46  1  0.57328808  0.90134957  0.87742475  1  -0.079945  0.003169  3.782334  0.004  -0.051495  0.001069  4.016742  0.001  -0.062781  0.000599  4.040248  0.001  -0.018867  -0.044734  0.001156  4.002697  0.001
C  C47  1  0.42671560  0.09865599  0.12257682  1  -0.07991  -0.003142  3.782092  -0.004  -0.051458  -0.001064  4.016502  -0.001  -0.062744  -0.000599  4.040005  -0.001  -0.018856  -0.044697  -0.001156  4.002443  -0.001
C  C48  1  0.49946895  0.00474672  0.82063385  1  -0.036211  0.000451  3.667965  0.0  -0.074513  0.002132  3.91233  0.003  -0.069655  0.001316  3.929971  0.002  -0.063574  -0.079794  0.000309  3.903618  0.001
C  C49  1  0.50053222  0.99525688  0.17936778  1  -0.036204  -0.000482  3.668018  -0.001  -0.07456  -0.002136  3.912424  -0.003  -0.069705  -0.001316  3.930067  -0.002  -0.063643  -0.079845  -0.000309  3.90371  -0.001
C  C50  1  0.49694225  0.76408424  0.83552711  1  0.622337  -0.004255  3.902092  -0.008  0.576137  0.000531  4.196705  -0.001  0.611761  0.000239  4.195378  -0.001  0.202058  0.55003  0.000399  4.197018  -0.002
C  C51  1  0.50306134  0.23591926  0.16446862  1  0.622274  0.004251  3.902183  0.008  0.576126  -0.000531  4.196719  0.001  0.61175  -0.000241  4.195395  0.001  0.202087  0.550018  -0.000398  4.197008  0.002
C  C52  1  0.74685675  0.48813032  0.62808384  1  -0.008737  -0.004735  3.788917  -0.007  0.013168  -0.002281  4.046207  -0.003  0.004889  -0.001489  4.072243  -0.002  -0.028584  0.018835  -0.003276  4.028502  -0.005
C  C53  1  0.25313667  0.51186544  0.37191680  1  -0.008691  0.004738  3.788837  0.007  0.013293  0.002284  4.046077  0.003  0.005016  0.001491  4.072112  0.002  -0.028562  0.018954  0.003279  4.028368  0.005
C  C54  1  0.68788007  0.41905167  0.50008318  1  0.002115  0.003305  3.692092  0.004  -0.044916  -0.001083  3.966832  -0.002  -0.034645  -0.000775  3.98246  -0.002  0.016234  -0.052214  -0.001265  3.955946  -0.002
C  C55  1  0.31211704  0.58094600  0.49991582  1  0.002074  -0.003308  3.692186  -0.004  -0.04497  0.001083  3.966936  0.002  -0.034696  0.000774  3.982561  0.002  0.016222  -0.052268  0.001266  3.956066  0.002
C  C56  1  0.74589013  0.62193526  0.61222202  1  0.008908  -0.001517  3.648282  -0.002  -0.045193  -0.00308  3.911835  -0.004  -0.036788  -0.002172  3.925102  -0.003  0.022621  -0.050391  -0.004124  3.902854  -0.005
C  C57  1  0.25410787  0.37806148  0.38778179  1  0.00888  0.001515  3.648288  0.002  -0.045246  0.00308  3.911797  0.004  -0.036843  0.002172  3.925062  0.003  0.022641  -0.050418  0.004127  3.902825  0.005
N  N58  1  0.22233474  0.48267821  0.82940635  1  -0.244475  0.042488  3.283375  0.063  -0.221866  0.02968  3.615112  0.037  -0.249026  0.022978  3.630979  0.027  -0.270843  -0.200524  0.03594  3.603808  0.046
N  N59  1  0.77765832  0.51732243  0.17058816  1  -0.244447  -0.042497  3.283472  -0.063  -0.221822  -0.02968  3.615205  -0.037  -0.248979  -0.022977  3.631071  -0.027  -0.270875  -0.200477  -0.035935  3.603869  -0.046
N  N60  1  0.20472518  0.40501507  0.91855875  1  -0.146105  -0.000718  3.491401  -0.002  -0.082412  0.001123  3.733658  0.001  -0.092934  0.000657  3.753443  0.001  -0.279394  -0.076101  0.001578  3.719988  0.002
N  N61  1  0.79527256  0.59498754  0.08143907  1  -0.146163  0.000719  3.491558  0.002  -0.082418  -0.001123  3.733817  -0.001  -0.092937  -0.000656  3.753602  -0.001  -0.279366  -0.07611  -0.001577  3.720138  -0.002
N  N62  1  0.65304705  0.50480270  0.41238146  1  -0.256418  -0.044119  3.309413  -0.067  -0.229805  -0.03015  3.638233  -0.039  -0.257426  -0.023714  3.657347  -0.029  -0.271023  -0.208212  -0.036128  3.624484  -0.047
N  N63  1  0.34694575  0.49519702  0.58761849  1  -0.25642  0.044125  3.309414  0.067  -0.229812  0.030152  3.638236  0.039  -0.257436  0.023715  3.657349  0.029  -0.270999  -0.208223  0.036136  3.624524  0.047
N  N64  1  0.68939512  0.62759662  0.48281570  1  -0.16188  -0.000559  3.497809  0.0  -0.099047  -0.001837  3.739441  -0.002  -0.111029  -0.001401  3.761134  -0.002  -0.279871  -0.091476  -0.002234  3.724207  -0.003
N  N65  1  0.31060087  0.37240106  0.51718301  1  -0.161872  0.000559  3.497792  0.0  -0.099055  0.001836  3.73952  0.002  -0.111038  0.001399  3.761217  0.002  -0.27991  -0.091482  0.002236  3.724284  0.003
O  O66  1  0.37015070  0.20446361  0.68987657  1  -0.601258  0.000132  1.943971  0.001  -0.559158  0.001432  2.153543  0.003  -0.582102  0.000944  2.143142  0.002  -0.320983  -0.542287  0.002196  2.160383  0.004
O  O67  1  0.62985722  0.79553994  0.31012683  1  -0.60125  -0.000131  1.943859  -0.001  -0.559191  -0.001432  2.153404  -0.003  -0.582136  -0.000944  2.143004  -0.002  -0.321023  -0.542323  -0.002196  2.160241  -0.004
O  O68  1  0.51794556  0.36306233  0.84905846  1  -0.617285  0.050471  2.074987  0.083  -0.584749  0.037675  2.369475  0.057  -0.624927  0.029374  2.354972  0.044  -0.323135  -0.553339  0.045206  2.380166  0.068
O  O69  1  0.48205644  0.63693931  0.15094505  1  -0.617244  -0.050472  2.07498  -0.083  -0.584741  -0.037679  2.369525  -0.057  -0.624918  -0.029375  2.355019  -0.044  -0.323138  -0.553325  -0.045203  2.38019  -0.068
O  O70  1  0.00516859  0.19980674  0.13520428  1  -0.54351  0.000295  1.948974  0.0  -0.504212  7.9e-05  2.167296  0.0  -0.525161  6.5e-05  2.159679  0.0  -0.274114  -0.489685  8.1e-05  2.172303  0.0
O  O71  1  0.99484474  0.80020472  0.86480232  1  -0.543302  -0.000289  1.949232  0.0  -0.504071  -7.9e-05  2.16762  0.0  -0.525013  -6.6e-05  2.160003  0.0  -0.274006  -0.489549  -8.1e-05  2.172636  0.0
O  O72  1  0.97604082  0.98915310  0.17621367  1  -0.532674  1.1e-05  2.037666  0.0  -0.487861  -4.9e-05  2.233238  0.0  -0.507507  -3.8e-05  2.219244  0.0  -0.32831  -0.474053  -7.3e-05  2.242744  0.0
O  O73  1  0.02396511  0.01085244  0.82378848  1  -0.532663  -1e-05  2.037469  0.0  -0.487803  4.9e-05  2.233075  0.0  -0.507454  3.9e-05  2.219094  0.0  -0.328317  -0.473993  7.2e-05  2.242578  0.0
O  O74  1  0.57196132  0.66425748  0.87348269  1  -0.623074  0.050061  2.06837  0.079  -0.578408  0.036911  2.341026  0.053  -0.620546  0.027898  2.331426  0.039  -0.320034  -0.544865  0.045445  2.34755  0.066
O  O75  1  0.42803955  0.33574313  0.12651668  1  -0.623071  -0.05006  2.068354  -0.079  -0.578428  -0.036909  2.341018  -0.053  -0.620565  -0.027897  2.331416  -0.039  -0.320065  -0.544888  -0.045438  2.347525  -0.066
O  O76  1  0.36231756  0.74351636  0.76403594  1  -0.58025  0.023966  1.939247  0.042  -0.542477  0.021999  2.169586  0.038  -0.574961  0.016404  2.164241  0.029  -0.293655  -0.516641  0.028029  2.171731  0.047
O  O77  1  0.63768956  0.25648704  0.23595510  1  -0.580185  -0.023964  1.939262  -0.042  -0.542413  -0.022001  2.169581  -0.038  -0.5749  -0.016403  2.164246  -0.029  -0.293606  -0.516584  -0.028025  2.171719  -0.047
