# generated using pymatgen
data_NiH22C27N4Cl2O5
_symmetry_space_group_name_H-M   'P 1'
_cell_length_a   9.50888740
_cell_length_b   11.85311426
_cell_length_c   12.52479504
_cell_angle_alpha   67.41662560
_cell_angle_beta   75.95028712
_cell_angle_gamma   74.28500391
_symmetry_Int_Tables_number   1
_chemical_formula_structural   NiH22C27N4Cl2O5
_chemical_formula_sum   'Ni2 H44 C54 N8 Cl4 O10'
_cell_volume   1239.32113529
_cell_formula_units_Z   2
loop_
 _symmetry_equiv_pos_site_id
 _symmetry_equiv_pos_as_xyz
  1  'x, y, z'
loop_
 _atom_site_type_symbol
 _atom_site_label
 _atom_site_symmetry_multiplicity
 _atom_site_fract_x
 _atom_site_fract_y
 _atom_site_fract_z
 _atom_site_occupancy
 _atom_site_pbe_bader_charge
 _atom_site_pbe_bader_spin_density
 _atom_site_pbe_cm5_charge
 _atom_site_pbe_ddec_charge
 _atom_site_pbe_ddec_spin_density
 _atom_site_pbe_ddec_sum_bond_order
 _atom_site_pbe_magmom
Ni  Ni0  1  0.50799368  0.61000570  0.78159994  1  1.072363  0.027803  0.603695  0.684178  0.029611  2.6039  0.03
Ni  Ni1  1  0.49190701  0.39014910  0.21828906  1  1.072485  0.027976  0.60368  0.683672  0.029893  2.60577  0.03
H  H2  1  0.77853429  0.03615370  0.87401726  1  0.146312  -1.3e-05  0.105467  0.122457  -1e-06  1.026883  0.0
H  H3  1  0.22146282  0.96384315  0.12598724  1  0.146101  -1.3e-05  0.105479  0.12243  -1e-06  1.026852  0.0
H  H4  1  0.18336108  0.78295485  0.81107182  1  0.115261  -0.000108  0.109321  0.124051  -7.4e-05  1.032364  0.0
H  H5  1  0.81663559  0.21705318  0.18892794  1  0.115373  -0.000108  0.109321  0.124052  -7.4e-05  1.032204  0.0
H  H6  1  0.03847355  0.63005527  0.82473118  1  0.078098  -3.5e-05  0.105496  0.108759  -9e-06  1.014898  0.0
H  H7  1  0.96153866  0.36994619  0.17527380  1  0.078016  -3.5e-05  0.105507  0.108802  -1e-05  1.01493  0.0
H  H8  1  0.31208264  0.06911547  0.77668853  1  0.119432  -1.9e-05  0.103444  0.113195  6e-06  1.0772  0.0
H  H9  1  0.68791718  0.93087954  0.22330816  1  0.119651  -1.9e-05  0.103454  0.113215  6e-06  1.077101  0.0
H  H10  1  0.93390758  0.28866196  0.92289599  1  0.099823  4.1e-05  0.11188  0.124991  7.3e-05  0.993242  0.0
H  H11  1  0.06609958  0.71133397  0.07710148  1  0.099777  4.1e-05  0.111885  0.125016  7.3e-05  0.993174  0.0
H  H12  1  0.09070930  0.43214482  0.91102636  1  0.10076  2.7e-05  0.106343  0.11361  2.7e-05  1.021098  0.0
H  H13  1  0.90929724  0.56783992  0.08897443  1  0.10046  2.7e-05  0.106278  0.113505  2.7e-05  1.021193  0.0
H  H14  1  0.94043452  0.29665029  0.69947044  1  0.09626  0.000539  0.102415  0.105093  0.000305  1.076037  0.0
H  H15  1  0.05958596  0.70334006  0.30052110  1  0.096654  0.000534  0.10243  0.105159  0.000302  1.076044  0.0
H  H16  1  0.75831046  0.41776491  0.81216464  1  0.147514  0.001737  0.119631  0.089579  0.000979  1.031181  0.002
H  H17  1  0.24169314  0.58225156  0.18781651  1  0.147314  0.001735  0.119678  0.089655  0.000978  1.031291  0.002
H  H18  1  0.56103406  0.64786712  0.52101320  1  0.108352  0.001632  0.111204  0.072263  0.000926  1.054318  0.001
H  H19  1  0.43897820  0.35213070  0.47897551  1  0.108344  0.001625  0.111242  0.072294  0.000922  1.054356  0.001
H  H20  1  0.73806199  0.53729410  0.39455479  1  0.11478  0.00046  0.103041  0.117244  0.000246  1.030215  0.0
H  H21  1  0.26195278  0.46270381  0.60541029  1  0.115305  0.00046  0.103129  0.11736  0.000246  1.030106  0.0
H  H22  1  0.04470232  0.40124938  0.40208666  1  0.046702  -0.000123  0.097751  0.108225  -8.3e-05  0.992984  0.0
H  H23  1  0.95530689  0.59875216  0.59790205  1  0.046883  -0.000123  0.097775  0.108283  -8.3e-05  0.992978  0.0
H  H24  1  0.91290920  0.32297883  0.40308615  1  0.039623  -2.5e-05  0.097454  0.100105  -1e-05  1.004162  0.0
H  H25  1  0.08709543  0.67702365  0.59690382  1  0.039281  -2.4e-05  0.097476  0.100168  -1e-05  1.004166  0.0
H  H26  1  0.12908261  0.23332911  0.57965922  1  0.00801  1.4e-05  0.087511  0.080948  8e-06  1.0066  0.0
H  H27  1  0.87092395  0.76667429  0.42033168  1  0.007873  1.4e-05  0.087517  0.08095  8e-06  1.006595  0.0
H  H28  1  0.98678111  0.15629574  0.59714349  1  0.000242  -2e-06  0.085715  0.077499  -4e-06  1.002467  0.0
H  H29  1  0.01322238  0.84371138  0.40284901  1  7.7e-05  -2e-06  0.085731  0.077514  -4e-06  1.002523  0.0
H  H30  1  0.09334012  0.12821031  0.40055235  1  0.031122  -1.6e-05  0.089314  0.090631  -1.3e-05  1.008883  0.0
H  H31  1  0.90664934  0.87179684  0.59943782  1  0.031195  -1.6e-05  0.089306  0.090628  -1.3e-05  1.008997  0.0
H  H32  1  0.23719383  0.20241655  0.38729341  1  0.098701  1.3e-05  0.098786  0.118544  3.4e-05  1.001932  0.0
H  H33  1  0.76280044  0.79759341  0.61269252  1  0.098671  1.3e-05  0.098791  0.118496  3.5e-05  1.00201  0.0
H  H34  1  0.16300265  0.90728471  0.46024734  1  0.062588  -0.000187  0.101823  0.112603  -0.000121  1.023701  0.0
H  H35  1  0.83701372  0.09271303  0.53975585  1  0.062525  -0.000185  0.101789  0.112558  -0.000119  1.023661  0.0
H  H36  1  0.30812299  0.70754351  0.57990491  1  0.060038  9e-06  0.108991  0.076341  2.9e-05  1.027745  0.0
H  H37  1  0.69186416  0.29245429  0.42009940  1  0.059957  1.3e-05  0.108975  0.076297  3.1e-05  1.027779  0.0
H  H38  1  0.50040460  0.89349646  0.70719551  1  0.120589  -3e-06  0.106013  0.07674  4.4e-05  1.049106  0.0
H  H39  1  0.49958939  0.10652274  0.29280551  1  0.120818  1e-06  0.105943  0.076757  4.5e-05  1.049141  0.0
H  H40  1  0.36644286  0.10047759  0.59167321  1  0.057284  -9.3e-05  0.103321  0.111699  -5.7e-05  1.011514  0.0
H  H41  1  0.63355227  0.89951932  0.40831803  1  0.057051  -9.1e-05  0.103278  0.111678  -5.5e-05  1.011417  0.0
H  H42  1  0.32737235  0.56796285  0.97697566  1  0.642505  0.000812  0.295936  0.385025  0.000614  0.952862  0.001
H  H43  1  0.67261985  0.43203850  0.02306641  1  0.6421  0.00081  0.296068  0.385404  0.000613  0.952307  0.001
H  H44  1  0.43899097  0.64309487  0.98061584  1  0.659927  0.000731  0.301486  0.400144  0.000585  0.92994  0.001
H  H45  1  0.56098319  0.35690096  0.01941940  1  0.660873  0.000727  0.301324  0.399795  0.000585  0.930368  0.001
C  C46  1  0.74467400  0.64978526  0.86394981  1  1.581372  -0.001701  0.215633  0.583295  -0.002595  4.185346  -0.001
C  C47  1  0.25532357  0.35019009  0.13607588  1  1.579922  -0.001692  0.215506  0.582988  -0.002579  4.185343  -0.001
C  C48  1  0.82652680  0.74623837  0.85539266  1  -0.037224  -0.0041  -0.009509  -0.077731  -0.00349  3.923652  -0.003
C  C49  1  0.17349118  0.25375088  0.14463724  1  -0.037679  -0.004095  -0.009363  -0.077507  -0.003487  3.924232  -0.003
C  C50  1  0.75457309  0.86251585  0.86841330  1  0.070953  -0.000449  0.02038  0.134497  -0.000316  4.008236  0.0
C  C51  1  0.24542573  0.13747719  0.13160903  1  0.071851  -0.000449  0.020416  0.134452  -0.000316  4.007997  0.0
C  C52  1  0.83467078  0.94837347  0.86061279  1  0.075974  -0.00197  -0.0928  -0.22255  -0.001658  3.953424  -0.001
C  C53  1  0.16532063  0.05162430  0.13939556  1  0.076449  -0.001977  -0.092829  -0.22256  -0.001664  3.95347  -0.001
C  C54  1  0.99004952  0.91942257  0.83895354  1  0.216358  -0.00103  0.085764  0.171472  -0.001059  4.063436  0.0
C  C55  1  0.00995044  0.08058547  0.16104325  1  0.216502  -0.001033  0.085886  0.171684  -0.001062  4.063366  0.0
C  C56  1  0.06314123  0.80506910  0.82445271  1  0.040765  -0.001503  -0.07986  -0.13796  -0.001271  3.932182  -0.001
C  C57  1  0.93687152  0.19493985  0.17554230  1  0.040848  -0.001509  -0.079891  -0.137965  -0.001275  3.931964  -0.001
C  C58  1  0.98154951  0.71986190  0.83353796  1  -0.01491  -0.001513  -0.081939  -0.082728  -0.001254  3.971096  -0.001
C  C59  1  0.01847195  0.28014139  0.16646952  1  -0.014886  -0.001516  -0.082077  -0.082999  -0.001256  3.971275  -0.001
C  C60  1  0.38726483  0.41377936  0.83621564  1  1.591907  -0.001271  0.204542  0.574372  -0.001867  4.217672  0.0
C  C61  1  0.61272763  0.58621374  0.16379740  1  1.59121  -0.001269  0.204515  0.574382  -0.00186  4.216988  0.0
C  C62  1  0.28973831  0.33447289  0.83398370  1  -0.003476  0.00138  -0.014155  -0.07983  0.000964  3.944897  0.002
C  C63  1  0.71026132  0.66549410  0.16603824  1  -0.004268  0.001373  -0.014077  -0.07954  0.000959  3.94451  0.002
C  C64  1  0.34986690  0.23306691  0.79346235  1  -0.017024  -0.0023  0.014383  0.127177  -0.001863  4.044435  -0.002
C  C65  1  0.65014137  0.76691504  0.20653913  1  -0.016247  -0.002296  0.014513  0.127247  -0.00186  4.04397  -0.002
C  C66  1  0.26521261  0.14988775  0.80395157  1  0.050197  0.000668  -0.097303  -0.230291  0.000464  3.971361  0.001
C  C67  1  0.73479091  0.85010074  0.19604680  1  0.050058  0.000661  -0.097303  -0.230263  0.000458  3.971168  0.001
C  C68  1  0.11411459  0.17036501  0.85069231  1  0.31897  -0.003846  0.083837  0.172303  -0.003488  4.050396  -0.003
C  C69  1  0.88588345  0.82962346  0.14931103  1  0.318864  -0.003846  0.083812  0.172286  -0.003488  4.050603  -0.003
C  C70  1  0.05079835  0.27424428  0.88623437  1  -0.013615  -0.000185  -0.078931  -0.137611  -0.000191  3.941933  0.0
C  C71  1  0.94920070  0.72574883  0.11377192  1  -0.014162  -0.000198  -0.078828  -0.137529  -0.000201  3.941825  0.0
C  C72  1  0.13848127  0.35468899  0.87856551  1  0.004201  -0.004076  -0.082558  -0.083733  -0.003455  3.963991  -0.002
C  C73  1  0.86152193  0.64529108  0.12144312  1  0.005067  -0.004074  -0.082629  -0.083884  -0.003455  3.963468  -0.002
C  C74  1  0.85996111  0.37430613  0.65461779  1  -0.051377  0.004736  -0.08963  -0.185691  0.003761  3.94368  0.004
C  C75  1  0.14005266  0.62568049  0.34537545  1  -0.052458  0.004719  -0.089709  -0.185897  0.003747  3.944221  0.004
C  C76  1  0.75749957  0.44102941  0.71947900  1  0.474777  0.000391  0.047225  0.09332  0.001054  3.938237  0.0
C  C77  1  0.24251559  0.55898894  0.28049465  1  0.475195  0.000381  0.047219  0.093107  0.001044  3.938342  0.0
C  C78  1  0.64769183  0.56987739  0.55708525  1  0.468232  -0.001017  0.044909  0.090301  -0.000716  3.935241  -0.001
C  C79  1  0.35234115  0.43012044  0.44289102  1  0.466979  -0.001007  0.044836  0.090218  -0.000705  3.935114  -0.001
C  C80  1  0.74755081  0.50748508  0.48688436  1  -0.051733  0.002677  -0.087999  -0.184629  0.002137  3.921156  0.002
C  C81  1  0.25246978  0.49250163  0.51308610  1  -0.051542  0.00267  -0.088017  -0.184719  0.00213  3.921326  0.002
C  C82  1  0.85817876  0.40675301  0.53514948  1  -0.032976  -0.001818  0.012333  0.166347  -0.001549  3.931109  -0.001
C  C83  1  0.14183752  0.59323737  0.46483400  1  -0.033289  -0.001811  0.012374  0.166632  -0.001544  3.930729  -0.001
C  C84  1  0.96994819  0.33849019  0.46148559  1  -0.014993  0.000182  -0.157  -0.200273  0.000143  3.927016  0.0
C  C85  1  0.03006493  0.66150855  0.53850263  1  -0.014547  0.000182  -0.157151  -0.200607  0.000143  3.926729  0.0
C  C86  1  0.06078999  0.21544400  0.53065434  1  0.021976  7.6e-05  -0.163661  -0.127743  5.7e-05  3.93342  0.0
C  C87  1  0.93921508  0.78456127  0.46933456  1  0.022161  7.5e-05  -0.163707  -0.127726  5.6e-05  3.93324  0.0
C  C88  1  0.16066427  0.14418707  0.45149473  1  -0.03429  2e-06  -0.163394  -0.209517  -1.3e-05  3.919615  0.0
C  C89  1  0.83933748  0.85581353  0.54850122  1  -0.034336  3e-06  -0.163449  -0.20952  -1.3e-05  3.920026  0.0
C  C90  1  0.24830565  0.02178150  0.51854197  1  -0.041215  3.7e-05  0.011217  0.171166  3e-05  3.936497  0.0
C  C91  1  0.75170430  0.97820695  0.48146007  1  -0.041057  3.4e-05  0.011269  0.171165  2.7e-05  3.936831  0.0
C  C92  1  0.23598375  0.90846787  0.51463874  1  0.045219  -0.000585  -0.093064  -0.195739  -0.000555  3.958174  0.0
C  C93  1  0.76403381  0.09152058  0.48536037  1  0.044987  -0.000578  -0.093018  -0.195743  -0.000548  3.95808  0.0
C  C94  1  0.31747165  0.79719730  0.58015404  1  0.428577  -0.000386  0.036904  0.077557  -0.000432  4.008189  0.0
C  C95  1  0.68251764  0.20279116  0.41985562  1  0.42919  -0.000385  0.036808  0.077421  -0.000428  4.008658  0.0
C  C96  1  0.42386040  0.90075711  0.65159655  1  0.501841  -0.000426  0.044139  0.097297  -0.000457  3.95848  0.0
C  C97  1  0.57613801  0.09924712  0.34841944  1  0.502056  -0.000427  0.044201  0.097022  -0.000457  3.958766  0.0
C  C98  1  0.34711929  0.01559211  0.58803571  1  -0.031875  -0.000784  -0.086245  -0.180403  -0.000698  3.949977  -0.001
C  C99  1  0.65288979  0.98440008  0.41196515  1  -0.032043  -0.000778  -0.086357  -0.180434  -0.000692  3.949932  -0.001
N  N100  1  0.08294050  0.99645819  0.83401560  1  -0.470455  -0.007511  -0.14522  -0.11832  -0.006073  3.278821  -0.005
N  N101  1  0.91705664  0.00354333  0.16598402  1  -0.470363  -0.007543  -0.145188  -0.118385  -0.006098  3.278915  -0.005
N  N102  1  0.01798571  0.09360455  0.85966131  1  -0.48918  -0.003613  -0.152571  -0.134762  -0.002763  3.265138  -0.002
N  N103  1  0.98200096  0.90639510  0.14034562  1  -0.488831  -0.003645  -0.152554  -0.13468  -0.002789  3.265374  -0.002
N  N104  1  0.65224979  0.53792322  0.67211314  1  -1.207466  0.049186  -0.334256  -0.206125  0.038967  3.647369  0.04
N  N105  1  0.34777349  0.46209327  0.32785336  1  -1.20651  0.048977  -0.334274  -0.205674  0.038801  3.647015  0.039
N  N106  1  0.40950349  0.79210979  0.64891048  1  -1.228788  -0.012166  -0.320302  -0.251289  -0.010607  3.492068  -0.011
N  N107  1  0.59047161  0.20788699  0.35111946  1  -1.229424  -0.012025  -0.32024  -0.251037  -0.010487  3.491597  -0.011
Cl  Cl108  1  0.56410201  0.89911148  0.90298348  1  -0.200333  3.7e-05  0.023262  -0.035609  5e-05  1.675027  0.0
Cl  Cl109  1  0.43590853  0.10086384  0.09704313  1  -0.199994  3.7e-05  0.023249  -0.035657  5e-05  1.674877  0.0
Cl  Cl110  1  0.53181585  0.21586365  0.72260848  1  -0.221539  -0.000234  0.006586  -0.067006  -0.000177  1.600737  0.0
Cl  Cl111  1  0.46818138  0.78413323  0.27738719  1  -0.221516  -0.000232  0.006487  -0.067117  -0.000176  1.600586  0.0
O  O112  1  0.64680750  0.69281904  0.79537937  1  -1.091287  -0.024613  -0.303806  -0.51877  -0.020577  2.49338  -0.019
O  O113  1  0.35323325  0.30720380  0.20461772  1  -1.090876  -0.024632  -0.303927  -0.518667  -0.020592  2.493722  -0.019
O  O114  1  0.77944844  0.53949175  0.93089095  1  -1.189637  -2.5e-05  -0.305344  -0.538496  0.000259  2.171407  0.001
O  O115  1  0.22054801  0.46051056  0.06914124  1  -1.189744  -2.2e-05  -0.305286  -0.538273  0.00026  2.170948  0.001
O  O116  1  0.48665688  0.36464196  0.89918306  1  -1.160786  0.003407  -0.304818  -0.564713  0.002832  2.268089  0.004
O  O117  1  0.51331967  0.63536325  0.10083323  1  -1.160718  0.003448  -0.304736  -0.564832  0.002865  2.268162  0.004
O  O118  1  0.36108800  0.52977093  0.77094848  1  -1.096179  -0.034275  -0.304242  -0.493803  -0.028807  2.323771  -0.029
O  O119  1  0.63885547  0.47019719  0.22905338  1  -1.095739  -0.034246  -0.304294  -0.493672  -0.028783  2.323413  -0.029
O  O120  1  0.38245332  0.63618314  0.92721003  1  -1.217367  0.015404  -0.558545  -0.707761  0.012  2.205589  0.011
O  O121  1  0.61747725  0.36384897  0.07284702  1  -1.217778  0.015387  -0.558247  -0.70735  0.011982  2.206385  0.011
