# generated using pymatgen
data_FeAg2H8(C3N)6
_symmetry_space_group_name_H-M   'P 1'
_cell_length_a   10.23102059
_cell_length_b   10.23104873
_cell_length_c   10.23102156
_cell_angle_alpha   67.93642011
_cell_angle_beta   75.59775134
_cell_angle_gamma   112.06369680
_symmetry_Int_Tables_number   1
_chemical_formula_structural   FeAg2H8(C3N)6
_chemical_formula_sum   'Fe2 Ag4 H16 C36 N12'
_cell_volume   819.61418524
_cell_formula_units_Z   2
loop_
 _symmetry_equiv_pos_site_id
 _symmetry_equiv_pos_as_xyz
  1  'x, y, z'
loop_
 _atom_site_type_symbol
 _atom_site_label
 _atom_site_symmetry_multiplicity
 _atom_site_fract_x
 _atom_site_fract_y
 _atom_site_fract_z
 _atom_site_occupancy
 _atom_site_pbe_bader_spin_density
 _atom_site_pbe_cm5_charge
 _atom_site_pbe_ddec_charge
 _atom_site_pbe_ddec_spin_density
 _atom_site_pbe_ddec_sum_bond_order
 _atom_site_pbe_magmom
Fe  Fe0  1  0.00000057  0.99999881  0.99999988  1  0  0.876603  0.550512  0  3.897262  0
Fe  Fe1  1  0.25000040  0.50000161  0.24999993  1  0  0.876577  0.550429  0  3.897377  0
Ag  Ag2  1  0.52546850  0.49999972  0.52547046  1  0  0.332823  0.194095  0  2.414326  0
Ag  Ag3  1  0.97452802  0.49999829  0.97453378  1  0  0.332833  0.194083  0  2.414316  0
Ag  Ag4  1  0.27545622  0.55091236  0.72454298  1  0  0.33285  0.194087  0  2.414353  0
Ag  Ag5  1  0.72454071  0.44908376  0.27546139  1  0  0.33285  0.194126  0  2.414279  0
H  H6  1  0.00572185  0.25637985  0.73680848  1  0  0.116614  0.091488  0  1.039267  0
H  H7  1  0.00680846  0.74361887  0.25065887  1  0  0.116633  0.091498  0  1.039235  0
H  H8  1  0.24320731  0.24253666  0.51317319  1  0  0.116648  0.0915  0  1.039168  0
H  H9  1  0.24429098  0.75746648  0.99932752  1  0  0.116641  0.091514  0  1.039167  0
H  H10  1  0.25065654  0.25637700  0.00681153  1  0  0.116641  0.091509  0  1.039248  0
H  H11  1  0.73681019  0.74361901  0.00572383  1  0  0.116635  0.091526  0  1.039173  0
H  H12  1  0.99932931  0.24253495  0.24429155  1  0  0.116657  0.09149  0  1.03919  0
H  H13  1  0.51317571  0.75746986  0.24320287  1  0  0.116662  0.091541  0  1.039127  0
H  H14  1  0.85823580  0.26769175  0.57889485  1  0  0.111392  0.130566  0  1.009257  0
H  H15  1  0.15341015  0.73230517  0.40945652  1  0  0.11142  0.130599  0  1.009259  0
H  H16  1  0.09660662  0.93713645  0.67108914  1  0  0.111393  0.130558  0  1.009202  0
H  H17  1  0.39177722  0.06286718  0.84052563  1  0  0.111375  0.130551  0  1.00926  0
H  H18  1  0.40945690  0.26769402  0.15340990  1  0  0.111409  0.130541  0  1.009265  0
H  H19  1  0.57889467  0.73230381  0.85823949  1  0  0.11143  0.13061  0  1.009256  0
H  H20  1  0.84052756  0.93713517  0.39177808  1  0  0.111368  0.130506  0  1.009298  0
H  H21  1  0.67108950  0.06286977  0.09660337  1  0  0.111362  0.130527  0  1.009252  0
C  C22  1  0.90986815  0.14314203  0.76078234  1  0  0.045858  0.086666  0  3.912512  0
C  C23  1  0.09607357  0.85685932  0.23327470  1  0  0.045838  0.08668  0  3.912527  0
C  C24  1  0.15393264  0.17064886  0.48920952  1  0  0.045821  0.086805  0  3.91246  0
C  C25  1  0.34014386  0.82935646  0.01671369  1  0  0.045827  0.086743  0  3.912595  0
C  C26  1  0.23327488  0.14314003  0.09607520  1  0  0.045843  0.086717  0  3.912512  0
C  C27  1  0.76078322  0.85685759  0.90986753  1  0  0.04583  0.08665  0  3.912476  0
C  C28  1  0.01671580  0.17064866  0.34014259  1  0  0.045836  0.086803  0  3.912469  0
C  C29  1  0.48921167  0.82935831  0.15392867  1  0  0.045827  0.086727  0  3.912614  0
C  C30  1  0.82684114  0.14878156  0.67290999  1  0  -0.073752  -0.155221  0  3.899025  0
C  C31  1  0.17830468  0.85121464  0.32194173  1  0  -0.07379  -0.155279  0  3.899127  0
C  C32  1  0.07170612  0.99976117  0.57707903  1  0  -0.07379  -0.155234  0  3.899075  0
C  C33  1  0.42316211  0.00024344  0.92805202  1  0  -0.073775  -0.155246  0  3.899224  0
C  C34  1  0.32194042  0.14878230  0.17830604  1  0  -0.073786  -0.155261  0  3.899088  0
C  C35  1  0.67290894  0.85121440  0.82684297  1  0  -0.07382  -0.15534  0  3.899153  0
C  C36  1  0.92805362  0.99975879  0.42316296  1  0  -0.073757  -0.15512  0  3.899018  0
C  C37  1  0.57708025  0.00024445  0.07170272  1  0  -0.073764  -0.155176  0  3.899178  0
C  C38  1  0.70452759  0.99999811  0.70452979  1  0  0.010038  0.141546  0  4.119801  0
C  C39  1  0.29547062  0.00000002  0.29547030  1  0  0.010026  0.141514  0  4.11984  0
C  C40  1  0.95452940  0.90905804  0.54547304  1  0  0.009958  0.141412  0  4.119855  0
C  C41  1  0.54547302  0.09094738  0.95452545  1  0  0.009989  0.141508  0  4.119853  0
C  C42  1  0.61750682  0.99999534  0.61751114  1  0  -0.008576  -0.056397  0  4.007871  0
C  C43  1  0.38249023  0.99999980  0.38249050  1  0  -0.008572  -0.056405  0  4.007692  0
C  C44  1  0.86751315  0.73502577  0.63248885  1  0  -0.008536  -0.056384  0  4.007491  0
C  C45  1  0.63248929  0.26497868  0.86750962  1  0  -0.008695  -0.056646  0  4.008037  0
C  C46  1  0.54156776  0.99999531  0.54157212  1  0  -0.03371  -0.035635  0  4.28197  0
C  C47  1  0.45842931  0.99999708  0.45843161  1  0  -0.033615  -0.035566  0  4.281787  0
C  C48  1  0.79157053  0.58313622  0.70843356  1  0  -0.033646  -0.035539  0  4.281542  0
C  C49  1  0.70843543  0.41686759  0.79156755  1  0  -0.0335  -0.035408  0  4.281992  0
C  C50  1  0.32393510  0.27977642  0.71460849  1  0  -0.022219  -0.064894  0  3.680305  0
C  C51  1  0.00560978  0.72021890  0.95584639  1  0  -0.022182  -0.06487  0  3.680365  0
C  C52  1  0.24437337  0.53852669  0.53540095  1  0  -0.022152  -0.064793  0  3.680565  0
C  C53  1  0.92607159  0.46147223  0.29415789  1  0  -0.022162  -0.064822  0  3.680438  0
C  C54  1  0.95584305  0.27977691  0.00561469  1  0  -0.022182  -0.064861  0  3.680287  0
C  C55  1  0.71460831  0.72022352  0.32393496  1  0  -0.022189  -0.064868  0  3.680295  0
C  C56  1  0.29415349  0.53852650  0.92607298  1  0  -0.022152  -0.064807  0  3.680562  0
C  C57  1  0.53540008  0.46147234  0.24437487  1  0  -0.022185  -0.064867  0  3.680567  0
N  N58  1  0.87835514  0.99999968  0.87835362  1  0  -0.337104  -0.165116  0  3.633916  0
N  N59  1  0.12164416  0.99999970  0.12164497  1  0  -0.337133  -0.165197  0  3.633991  0
N  N60  1  0.12835723  0.25671454  0.37164326  1  0  -0.337148  -0.165407  0  3.633954  0
N  N61  1  0.37164357  0.74328868  0.12835660  1  0  -0.337138  -0.165276  0  3.633921  0
N  N62  1  0.19702541  0.16861997  0.81532333  1  0  -0.378783  -0.265494  0  3.598471  0
N  N63  1  0.01605167  0.83137566  0.97159855  1  0  -0.378825  -0.265523  0  3.598555  0
N  N64  1  0.23394325  0.51234468  0.43468181  1  0  -0.37884  -0.265535  0  3.598766  0
N  N65  1  0.05297321  0.48765511  0.27840443  1  0  -0.378819  -0.265499  0  3.598674  0
N  N66  1  0.97159703  0.16862101  0.01605359  1  0  -0.3788  -0.265488  0  3.59848  0
N  N67  1  0.81532340  0.83137907  0.19702531  1  0  -0.378797  -0.2655  0  3.59849  0
N  N68  1  0.27840126  0.51234448  0.05297340  1  0  -0.378806  -0.265481  0  3.598716  0
N  N69  1  0.43468397  0.48765693  0.23394103  1  0  -0.378805  -0.265473  0  3.598717  0
