# generated using pymatgen
data_YH11C16(NO7)2
_symmetry_space_group_name_H-M   'P 1'
_cell_length_a   9.13339879
_cell_length_b   10.02172156
_cell_length_c   13.22864880
_cell_angle_alpha   113.81443242
_cell_angle_beta   96.57669424
_cell_angle_gamma   111.48720629
_symmetry_Int_Tables_number   1
_chemical_formula_structural   YH11C16(NO7)2
_chemical_formula_sum   'Y2 H22 C32 N4 O28'
_cell_volume   980.56208348
_cell_formula_units_Z   2
loop_
 _symmetry_equiv_pos_site_id
 _symmetry_equiv_pos_as_xyz
  1  'x, y, z'
loop_
 _atom_site_type_symbol
 _atom_site_label
 _atom_site_symmetry_multiplicity
 _atom_site_fract_x
 _atom_site_fract_y
 _atom_site_fract_z
 _atom_site_occupancy
 _atom_site_hle17_bader_spin_density
 _atom_site_hle17_ddec_charge
 _atom_site_hle17_ddec_spin_density
 _atom_site_hle17_ddec_sum_bond_order
 _atom_site_hle17_magmom
 _atom_site_hse06_10hf_bader_spin_density
 _atom_site_hse06_10hf_ddec_charge
 _atom_site_hse06_10hf_ddec_spin_density
 _atom_site_hse06_10hf_ddec_sum_bond_order
 _atom_site_hse06_10hf_magmom
 _atom_site_hse06_bader_spin_density
 _atom_site_hse06_ddec_charge
 _atom_site_hse06_ddec_spin_density
 _atom_site_hse06_ddec_sum_bond_order
 _atom_site_hse06_magmom
 _atom_site_pbe_bader_spin_density
 _atom_site_pbe_cm5_charge
 _atom_site_pbe_ddec_charge
 _atom_site_pbe_ddec_spin_density
 _atom_site_pbe_ddec_sum_bond_order
 _atom_site_pbe_magmom
Y  Y0  1  0.20123143  0.43753259  0.46667443  1  0  2.081125  0  1.83506  0  0  1.881703  0  2.33081  0  0  1.957072  0  2.259222  0  0  1.290363  1.82825  0  2.378127  0
Y  Y1  1  0.79878136  0.56245647  0.53332348  1  0  2.081097  0  1.835072  0  0  1.881737  0  2.330686  0  0  1.957027  0  2.259253  0  0  1.290333  1.82813  0  2.378286  0
H  H2  1  0.88387091  0.96084406  0.24983091  1  0  0.412526  0  0.836667  0  0  0.380874  0  0.918367  0  0  0.3935  0  0.903506  0  0  0.317697  0.371928  0  0.928909  0
H  H3  1  0.11611621  0.03915130  0.75016840  1  0  0.412441  0  0.83673  0  0  0.380743  0  0.918484  0  0  0.39337  0  0.903623  0  0  0.317646  0.371802  0  0.929014  0
H  H4  1  0.48747053  0.67576368  0.15646716  1  0  0.122361  0  0.954256  0  0  0.124667  0  1.02725  0  0  0.128094  0  1.025165  0  0  0.114152  0.122276  0  1.028487  0
H  H5  1  0.51249141  0.32423916  0.84353318  1  0  0.122316  0  0.95424  0  0  0.124603  0  1.027232  0  0  0.128036  0  1.025131  0  0  0.114114  0.122214  0  1.028468  0
H  H6  1  0.11581473  0.40516977  0.82208399  1  0  0.133493  0  0.956174  0  0  0.131693  0  1.033185  0  0  0.136638  0  1.027779  0  0  0.118672  0.128182  0  1.036936  0
H  H7  1  0.88417823  0.59484547  0.17790415  1  0  0.133432  0  0.956178  0  0  0.131679  0  1.033171  0  0  0.136625  0  1.027763  0  0  0.118612  0.128164  0  1.036928  0
H  H8  1  0.59327588  0.78408414  0.88170829  1  0  0.122446  0  0.931041  0  0  0.128743  0  0.996231  0  0  0.133279  0  0.991642  0  0  0.120445  0.125463  0  0.999418  0
H  H9  1  0.40673314  0.21591749  0.11829850  1  0  0.122527  0  0.930921  0  0  0.12881  0  0.996121  0  0  0.133347  0  0.991533  0  0  0.120453  0.125533  0  0.999302  0
H  H10  1  0.71566341  0.27985421  0.64111094  1  0  0.129236  0  0.963171  0  0  0.128375  0  1.040262  0  0  0.133477  0  1.034957  0  0  0.121084  0.124581  0  1.044145  0
H  H11  1  0.28434594  0.72013965  0.35888598  1  0  0.129281  0  0.963166  0  0  0.128385  0  1.040277  0  0  0.133487  0  1.034975  0  0  0.121094  0.124591  0  1.044156  0
H  H12  1  0.18473528  0.04542812  0.54859835  1  0  0.13163  0  0.911936  0  0  0.139574  0  0.971623  0  0  0.144163  0  0.967343  0  0  0.123529  0.136123  0  0.975085  0
H  H13  1  0.81527667  0.95458212  0.45141192  1  0  0.131688  0  0.911984  0  0  0.139583  0  0.971672  0  0  0.144192  0  0.967361  0  0  0.123536  0.136097  0  0.97517  0
H  H14  1  0.46685044  0.86389604  0.69243246  1  0  0.136738  0  0.952819  0  0  0.138728  0  1.022278  0  0  0.143353  0  1.018524  0  0  0.122032  0.13542  0  1.024992  0
H  H15  1  0.53316804  0.13610926  0.30757665  1  0  0.136743  0  0.952688  0  0  0.138712  0  1.022204  0  0  0.143342  0  1.018437  0  0  0.122001  0.135408  0  1.024913  0
H  H16  1  0.09875743  0.42194341  0.23637137  1  0  0.448805  0  0.830657  0  0  0.417755  0  0.892251  0  0  0.428825  0  0.875742  0  0  0.314481  0.409827  0  0.904092  0
H  H17  1  0.90122917  0.57803704  0.76361967  1  0  0.448781  0  0.830682  0  0  0.4177  0  0.892338  0  0  0.428774  0  0.875822  0  0  0.314441  0.409769  0  0.904183  0
H  H18  1  0.99031492  0.49332535  0.31256444  1  0  0.443768  0  0.855922  0  0  0.410438  0  0.922013  0  0  0.421616  0  0.905899  0  0  0.305852  0.402544  0  0.933369  0
H  H19  1  0.00969467  0.50667109  0.68743552  1  0  0.443798  0  0.855864  0  0  0.410493  0  0.921943  0  0  0.42167  0  0.90583  0  0  0.305884  0.402599  0  0.933299  0
H  H20  1  0.38240467  0.32768726  0.30531097  1  0  0.434859  0  0.863657  0  0  0.401397  0  0.93207  0  0  0.412612  0  0.915681  0  0  0.302876  0.393385  0  0.943776  0
H  H21  1  0.61761351  0.67231056  0.69469361  1  0  0.434961  0  0.86353  0  0  0.401477  0  0.931975  0  0  0.412692  0  0.915586  0  0  0.302922  0.393459  0  0.943694  0
H  H22  1  0.21215354  0.17117381  0.25954432  1  0  0.433879  0  0.851601  0  0  0.407804  0  0.906413  0  0  0.41734  0  0.892322  0  0  0.314446  0.401138  0  0.916286  0
H  H23  1  0.78786445  0.82881903  0.74045725  1  0  0.433668  0  0.851746  0  0  0.407608  0  0.906642  0  0  0.417142  0  0.892555  0  0  0.314399  0.400946  0  0.916503  0
C  C24  1  0.55784008  0.74422270  0.02670093  1  0  -0.062156  0  3.740899  0  0  -0.035757  0  3.978279  0  0  -0.047373  0  4.0032  0  0  -0.009502  -0.028374  0  3.961189  0
C  C25  1  0.44214012  0.25577891  0.97330143  1  0  -0.062407  0  3.740809  0  0  -0.036107  0  3.97835  0  0  -0.047722  0  4.00327  0  0  -0.009563  -0.028724  0  3.961265  0
C  C26  1  0.44959586  0.65479330  0.06825178  1  0  -0.076511  0  3.669373  0  0  -0.117427  0  3.927313  0  0  -0.113224  0  3.946618  0  0  -0.063772  -0.119459  0  3.913794  0
C  C27  1  0.55037154  0.34521679  0.93174948  1  0  -0.076444  0  3.669445  0  0  -0.117227  0  3.927364  0  0  -0.113023  0  3.946667  0  0  -0.0638  -0.119269  0  3.913852  0
C  C28  1  0.29025684  0.53819967  0.99407776  1  0  0.058795  0  3.695565  0  0  0.05486  0  3.956432  0  0  0.048764  0  3.979287  0  0  0.0773  0.058379  0  3.941057  0
C  C29  1  0.70971630  0.46180745  0.00591380  1  0  0.058616  0  3.695849  0  0  0.054605  0  3.956794  0  0  0.048511  0  3.979647  0  0  0.077238  0.058131  0  3.941409  0
C  C30  1  0.23842560  0.50217874  0.87902916  1  0  -0.045689  0  3.627897  0  0  -0.088131  0  3.886158  0  0  -0.081696  0  3.899672  0  0  -0.052752  -0.09193  0  3.87707  0
C  C31  1  0.76156441  0.49783672  0.12096268  1  0  -0.045403  0  3.627733  0  0  -0.087912  0  3.886054  0  0  -0.081479  0  3.899568  0  0  -0.052608  -0.091707  0  3.876956  0
C  C32  1  0.34959497  0.58923362  0.83753010  1  0  -0.055378  0  3.716341  0  0  -0.02765  0  3.951796  0  0  -0.038733  0  3.974236  0  0  -0.005668  -0.021019  0  3.936999  0
C  C33  1  0.65040728  0.41076727  0.16246176  1  0  -0.055444  0  3.716251  0  0  -0.027715  0  3.951668  0  0  -0.038792  0  3.974112  0  0  -0.005689  -0.021086  0  3.936875  0
C  C34  1  0.50727043  0.71232544  0.91204436  1  0  -0.01292  0  3.617828  0  0  -0.056944  0  3.86616  0  0  -0.050979  0  3.882072  0  0  -0.04699  -0.060102  0  3.854913  0
C  C35  1  0.49272918  0.28766855  0.08795363  1  0  -0.012931  0  3.617699  0  0  -0.056905  0  3.866047  0  0  -0.050945  0  3.88196  0  0  -0.047004  -0.060058  0  3.854796  0
C  C36  1  0.72598215  0.88030501  0.10416932  1  0  0.635806  0  3.831502  0  0  0.586734  0  4.133114  0  0  0.618115  0  4.127572  0  0  0.224229  0.565347  0  4.136417  0
C  C37  1  0.27398296  0.11968866  0.89584054  1  0  0.635978  0  3.83198  0  0  0.586849  0  4.133679  0  0  0.618224  0  4.128143  0  0  0.224337  0.565458  0  4.13699  0
C  C38  1  0.29972651  0.54778635  0.71309304  1  0  0.660335  0  3.880378  0  0  0.606685  0  4.167315  0  0  0.641188  0  4.162068  0  0  0.219845  0.583529  0  4.169969  0
C  C39  1  0.70028612  0.45221081  0.28689820  1  0  0.660213  0  3.880837  0  0  0.606678  0  4.167596  0  0  0.641173  0  4.162359  0  0  0.21982  0.583522  0  4.170233  0
C  C40  1  0.60166082  0.18610413  0.63570741  1  0  -0.077454  0  3.689656  0  0  -0.118209  0  3.950299  0  0  -0.113701  0  3.967398  0  0  -0.06204  -0.120209  0  3.938113  0
C  C41  1  0.39834877  0.81390514  0.36430700  1  0  -0.077294  0  3.689588  0  0  -0.118065  0  3.950172  0  0  -0.113556  0  3.967267  0  0  -0.06192  -0.120075  0  3.93801  0
C  C42  1  0.44874650  0.17394672  0.59029382  1  0  -0.074996  0  3.731912  0  0  -0.048451  0  3.96843  0  0  -0.05957  0  3.991199  0  0  -0.010998  -0.041556  0  3.953294  0
C  C43  1  0.55126366  0.82605735  0.40971376  1  0  -0.074824  0  3.731726  0  0  -0.048422  0  3.968248  0  0  -0.059536  0  3.991029  0  0  -0.01111  -0.041539  0  3.953096  0
C  C44  1  0.30304866  0.05315844  0.58388385  1  0  -0.019126  0  3.626047  0  0  -0.065943  0  3.8842  0  0  -0.059767  0  3.89831  0  0  -0.053258  -0.070238  0  3.875437  0
C  C45  1  0.69696123  0.94684702  0.41612716  1  0  -0.019264  0  3.626323  0  0  -0.066033  0  3.884264  0  0  -0.059868  0  3.898371  0  0  -0.053279  -0.070295  0  3.875505  0
C  C46  1  0.30877001  0.93979053  0.61835989  1  0  -0.056538  0  3.732325  0  0  -0.030695  0  3.971817  0  0  -0.040612  0  3.992958  0  0  -0.004231  -0.02451  0  3.958169  0
C  C47  1  0.69124244  0.06020474  0.38164138  1  0  -0.056561  0  3.732497  0  0  -0.03047  0  3.97146  0  0  -0.040395  0  3.99262  0  0  -0.004196  -0.024291  0  3.957806  0
C  C48  1  0.46050440  0.95175578  0.66580905  1  0  -0.079618  0  3.650194  0  0  -0.118891  0  3.906972  0  0  -0.114562  0  3.922714  0  0  -0.060729  -0.121973  0  3.896838  0
C  C49  1  0.53950823  0.04824844  0.33420173  1  0  -0.07949  0  3.650124  0  0  -0.118949  0  3.906815  0  0  -0.114619  0  3.922556  0  0  -0.060722  -0.122047  0  3.896712  0
C  C50  1  0.60416347  0.07696715  0.67490462  1  0  0.049183  0  3.722711  0  0  0.045129  0  3.98506  0  0  0.03878  0  4.009081  0  0  0.075714  0.049075  0  3.968808  0
C  C51  1  0.39584861  0.92304317  0.32510719  1  0  0.048719  0  3.723166  0  0  0.044885  0  3.98527  0  0  0.038534  0  4.009289  0  0  0.0756  0.048831  0  3.96902  0
C  C52  1  0.43981917  0.28665319  0.54448619  1  0  0.712629  0  3.862813  0  0  0.660542  0  4.152376  0  0  0.696952  0  4.14325  0  0  0.237645  0.635944  0  4.15761  0
C  C53  1  0.56018857  0.71333860  0.45551683  1  0  0.712048  0  3.863375  0  0  0.660155  0  4.152639  0  0  0.696545  0  4.143551  0  0  0.237574  0.635593  0  4.157805  0
C  C54  1  0.14933424  0.80276170  0.59851990  1  0  0.697568  0  3.838004  0  0  0.644587  0  4.125914  0  0  0.680624  0  4.117921  0  0  0.237348  0.620073  0  4.130768  0
C  C55  1  0.85068149  0.19723111  0.40148079  1  0  0.697358  0  3.838722  0  0  0.644533  0  4.126212  0  0  0.680572  0  4.118226  0  0  0.237363  0.620024  0  4.131068  0
N  N56  1  0.17280500  0.44850489  0.03833841  1  0  0.505269  0  3.887119  0  0  0.531554  0  4.186645  0  0  0.552801  0  4.195533  0  0  0.061323  0.517358  0  4.180715  0
N  N57  1  0.82715705  0.55149824  0.96164461  1  0  0.50529  0  3.886921  0  0  0.531693  0  4.186333  0  0  0.552943  0  4.195215  0  0  0.061437  0.5175  0  4.180399  0
N  N58  1  0.76419031  0.08786115  0.72106655  1  0  0.511992  0  3.876752  0  0  0.53419  0  4.181121  0  0  0.555497  0  4.189701  0  0  0.060628  0.519963  0  4.175413  0
N  N59  1  0.23582569  0.91214886  0.27894006  1  0  0.512187  0  3.87644  0  0  0.5343  0  4.180809  0  0  0.555605  0  4.18939  0  0  0.060709  0.520072  0  4.175097  0
O  O60  1  0.40606429  0.60990929  0.66988722  1  0  -0.671058  0  2.054129  0  0  -0.606743  0  2.286264  0  0  -0.635544  0  2.278196  0  0  -0.319134  -0.586676  0  2.290961  0
O  O61  1  0.59395457  0.39009160  0.33010696  1  0  -0.671025  0  2.05448  0  0  -0.60676  0  2.286512  0  0  -0.635551  0  2.278452  0  0  -0.319122  -0.586699  0  2.29124  0
O  O62  1  0.14997166  0.44752971  0.64955461  1  0  -0.659802  0  2.030611  0  0  -0.594079  0  2.254904  0  0  -0.62282  0  2.246852  0  0  -0.328876  -0.573999  0  2.259673  0
O  O63  1  0.85004008  0.55247244  0.35043959  1  0  -0.65969  0  2.030486  0  0  -0.594059  0  2.254791  0  0  -0.622795  0  2.246756  0  0  -0.328841  -0.573954  0  2.259551  0
O  O64  1  0.02769599  0.35689565  0.97645929  1  0  -0.326883  0  1.765618  0  0  -0.320249  0  1.976007  0  0  -0.331114  0  1.972697  0  0  -0.1157  -0.312955  0  1.978425  0
O  O65  1  0.97226346  0.64312429  0.02352182  1  0  -0.326788  0  1.765007  0  0  -0.320322  0  1.975471  0  0  -0.331189  0  1.972165  0  0  -0.115721  -0.313026  0  1.977893  0
O  O66  1  0.22764627  0.47197848  0.13827150  1  0  -0.380131  0  1.785989  0  0  -0.349573  0  1.991144  0  0  -0.364925  0  1.987528  0  0  -0.120534  -0.339484  0  1.993879  0
O  O67  1  0.77231640  0.52799759  0.86170193  1  0  -0.380125  0  1.786277  0  0  -0.349535  0  1.99135  0  0  -0.364911  0  1.987761  0  0  -0.120554  -0.339457  0  1.994097  0
O  O68  1  0.78751171  0.85636077  0.18931339  1  0  -0.556656  0  2.112137  0  0  -0.511856  0  2.341557  0  0  -0.534584  0  2.328804  0  0  -0.334693  -0.495758  0  2.349879  0
O  O69  1  0.21247214  0.14363706  0.81068650  1  0  -0.556579  0  2.111896  0  0  -0.511761  0  2.341456  0  0  -0.534496  0  2.328723  0  0  -0.334664  -0.495646  0  2.349734  0
O  O70  1  0.79557468  0.99951723  0.09116011  1  0  -0.505849  0  1.854476  0  0  -0.47228  0  2.039513  0  0  -0.490302  0  2.033028  0  0  -0.286772  -0.4599  0  2.043816  0
O  O71  1  0.20440387  0.00051304  0.90885909  1  0  -0.505808  0  1.855506  0  0  -0.472191  0  2.040559  0  0  -0.490204  0  2.034076  0  0  -0.286774  -0.459818  0  2.044866  0
O  O72  1  0.29860923  0.27457335  0.50911580  1  0  -0.678701  0  2.052991  0  0  -0.625534  0  2.306526  0  0  -0.654714  0  2.296968  0  0  -0.3576  -0.604815  0  2.312291  0
O  O73  1  0.70139402  0.72541110  0.49088481  1  0  -0.678417  0  2.053207  0  0  -0.625337  0  2.306677  0  0  -0.654501  0  2.297139  0  0  -0.357521  -0.604608  0  2.31242  0
O  O74  1  0.57384533  0.38462305  0.54271258  1  0  -0.70721  0  2.093134  0  0  -0.641744  0  2.35933  0  0  -0.67222  0  2.346982  0  0  -0.386168  -0.620144  0  2.366815  0
O  O75  1  0.42615851  0.61536352  0.45728264  1  0  -0.706978  0  2.093246  0  0  -0.641603  0  2.359439  0  0  -0.67208  0  2.347092  0  0  -0.386173  -0.620057  0  2.36694  0
O  O76  1  0.88353682  0.15962219  0.69504473  1  0  -0.331803  0  1.748638  0  0  -0.308864  0  1.953739  0  0  -0.320879  0  1.949847  0  0  -0.105664  -0.300957  0  1.956616  0
O  O77  1  0.11648101  0.84039157  0.30496461  1  0  -0.331841  0  1.748446  0  0  -0.308819  0  1.953461  0  0  -0.320831  0  1.949567  0  0  -0.105688  -0.300925  0  1.956381  0
O  O78  1  0.77014791  0.02208740  0.78270768  1  0  -0.366467  0  1.772912  0  0  -0.342938  0  1.975893  0  0  -0.354746  0  1.96888  0  0  -0.119954  -0.335265  0  1.98102  0
O  O79  1  0.22986301  0.97790519  0.21728817  1  0  -0.366486  0  1.772753  0  0  -0.342957  0  1.975745  0  0  -0.354767  0  1.968735  0  0  -0.11994  -0.335276  0  1.980872  0
O  O80  1  0.13215563  0.65711387  0.55402374  1  0  -0.709399  0  2.070095  0  0  -0.642112  0  2.321135  0  0  -0.674099  0  2.31321  0  0  -0.348048  -0.619784  0  2.325853  0
O  O81  1  0.86785314  0.34287787  0.44597856  1  0  -0.709394  0  2.070546  0  0  -0.642161  0  2.321423  0  0  -0.674144  0  2.3135  0  0  -0.348118  -0.619829  0  2.326158  0
O  O82  1  0.03037054  0.83428627  0.62241802  1  0  -0.65973  0  1.978239  0  0  -0.597262  0  2.208754  0  0  -0.62556  0  2.197651  0  0  -0.330866  -0.577727  0  2.215925  0
O  O83  1  0.96964691  0.16571266  0.37758459  1  0  -0.659491  0  1.978294  0  0  -0.597194  0  2.208802  0  0  -0.625499  0  2.197691  0  0  -0.33082  -0.577672  0  2.215967  0
O  O84  1  0.07584252  0.45376077  0.31098069  1  0  -0.893344  0  1.901071  0  0  -0.833768  0  2.100642  0  0  -0.856959  0  2.066345  0  0  -0.627064  -0.81735  0  2.124352  0
O  O85  1  0.92416025  0.54622826  0.68901522  1  0  -0.893331  0  1.901053  0  0  -0.833794  0  2.10054  0  0  -0.856973  0  2.066248  0  0  -0.627051  -0.817354  0  2.124259  0
O  O86  1  0.26225123  0.29081227  0.29551050  1  0  -0.855166  0  1.8698  0  0  -0.801022  0  2.055029  0  0  -0.824071  0  2.024336  0  0  -0.608674  -0.784621  0  2.076019  0
O  O87  1  0.73776408  0.70918030  0.70448555  1  0  -0.854987  0  1.869807  0  0  -0.800837  0  2.055132  0  0  -0.823871  0  2.02444  0  0  -0.608608  -0.784412  0  2.076128  0
