# generated using pymatgen
data_Al2H6C27(SO3)6
_symmetry_space_group_name_H-M   'P 1'
_cell_length_a   4.05721732
_cell_length_b   20.07944678
_cell_length_c   20.07970576
_cell_angle_alpha   119.99923121
_cell_angle_beta   89.99899807
_cell_angle_gamma   90.00028717
_symmetry_Int_Tables_number   1
_chemical_formula_structural   Al2H6C27(SO3)6
_chemical_formula_sum   'Al2 H6 C27 S6 O18'
_cell_volume   1416.67866903
_cell_formula_units_Z   1
loop_
 _symmetry_equiv_pos_site_id
 _symmetry_equiv_pos_as_xyz
  1  'x, y, z'
loop_
 _atom_site_type_symbol
 _atom_site_label
 _atom_site_symmetry_multiplicity
 _atom_site_fract_x
 _atom_site_fract_y
 _atom_site_fract_z
 _atom_site_occupancy
 _atom_site_pbe_bader_charge
 _atom_site_pbe_bader_spin_density
 _atom_site_pbe_cm5_charge
 _atom_site_pbe_ddec_charge
 _atom_site_pbe_ddec_spin_density
 _atom_site_pbe_ddec_sum_bond_order
 _atom_site_pbe_magmom
Al  Al0  1  0.94953918  0.50000030  0.50000083  1  2.509664  0  0.436998  1.612276  0  2.550027  0
Al  Al1  1  0.96379464  0.16666618  0.83333429  1  2.509093  0  0.429243  1.608682  0  2.551583  0
H  H2  1  0.17565994  0.19464091  0.63001722  1  0.142516  0  0.122672  0.151317  0  0.960069  0
H  H3  1  0.17564357  0.93537032  0.80535659  1  0.107328  0  0.122739  0.151418  0  0.960041  0
H  H4  1  0.17565875  0.36998812  0.06462906  1  0.099309  0  0.122709  0.151327  0  0.960164  0
H  H5  1  0.69762385  0.49469727  0.81992281  1  0.590927  0  0.309081  0.345317  0  0.945453  0
H  H6  1  0.69778138  0.82524478  0.50531006  1  0.601745  0  0.30918  0.34537  0  0.945443  0
H  H7  1  0.69767477  0.18007055  0.17476181  1  0.595288  0  0.309105  0.345274  0  0.945463  0
C  C8  1  0.44714236  0.43222577  0.38368785  1  1.705241  0  0.284803  0.679912  0  4.095436  0
C  C9  1  0.44713231  0.45146424  0.56777687  1  1.695032  0  0.28468  0.679708  0  4.095681  0
C  C10  1  0.44710539  0.61631338  0.54853806  1  1.706392  0  0.284771  0.679877  0  4.095602  0
C  C11  1  0.45987854  0.22429968  0.77373940  1  1.618456  0  0.264235  0.658651  0  4.11202  0
C  C12  1  0.45988143  0.04943816  0.77570058  1  1.559153  0  0.264281  0.658689  0  4.111981  0
C  C13  1  0.45986861  0.22625923  0.95055917  1  1.637153  0  0.264222  0.658634  0  4.112101  0
C  C14  1  0.55127244  0.43220103  0.68393442  1  0.025714  0  -0.035405  -0.152774  0  4.068822  0
C  C15  1  0.30212261  0.24913966  0.66453420  1  0.09443  0  -0.088534  -0.133522  0  3.977051  0
C  C16  1  0.42670713  0.40837396  0.61092386  1  -0.184391  0  0.013515  -0.082095  0  3.862285  0
C  C17  1  0.44477675  0.26941518  0.73469480  1  -0.25419  0  -0.021645  -0.120821  0  3.970526  0
C  C18  1  0.34964187  0.30717622  0.64520308  1  -0.151192  0  -0.029765  -0.032639  0  4.090793  0
C  C19  1  0.51436145  0.37250178  0.70235446  1  -0.170418  0  -0.0286  -0.059081  0  4.117662  0
C  C20  1  0.55131299  0.75173379  0.56779864  1  0.033728  0  -0.035276  -0.152519  0  4.06875  0
C  C21  1  0.30213629  0.91539068  0.75086055  1  0.069083  0  -0.088569  -0.133661  0  3.976993  0
C  C22  1  0.42670632  0.70255274  0.59162922  1  -0.16898  0  0.013584  -0.082001  0  3.861922  0
C  C23  1  0.44477981  0.96527870  0.73058691  1  -0.138517  0  -0.021691  -0.120764  0  3.970309  0
C  C24  1  0.34963595  0.83802630  0.69282288  1  -0.144443  0  -0.029814  -0.032658  0  4.090869  0
C  C25  1  0.51437715  0.82985161  0.62749719  1  -0.182372  0  -0.028668  -0.059227  0  4.117817  0
C  C26  1  0.55131425  0.31606461  0.24826295  1  0.02163  0  -0.035326  -0.152628  0  4.068696  0
C  C27  1  0.30214076  0.33546907  0.08460413  1  0.08729  0  -0.088505  -0.133456  0  3.97699  0
C  C28  1  0.42672759  0.38907796  0.29744759  1  -0.173335  0  0.013607  -0.081945  0  3.861771  0
C  C29  1  0.44478912  0.26530761  0.03471801  1  -0.213892  0  -0.021704  -0.120764  0  3.970474  0
C  C30  1  0.34964070  0.35479490  0.16196958  1  -0.14731  0  -0.029867  -0.032818  0  4.090913  0
C  C31  1  0.51439303  0.29764629  0.17014536  1  -0.176054  0  -0.028721  -0.059251  0  4.117682  0
C  C32  1  0.69732955  0.50966174  0.73101774  1  1.538893  0  0.224449  0.580914  0  4.123459  0
C  C33  1  0.69737170  0.72138229  0.49034558  1  1.535688  0  0.224221  0.58053  0  4.123585  0
C  C34  1  0.69737806  0.26897225  0.27862470  1  1.535221  0  0.224348  0.580606  0  4.123371  0
S  S35  1  0.25605160  0.31778130  0.56690651  1  0.325151  0  0.138477  0.201238  0  2.744193  0
S  S36  1  0.63483480  0.35919677  0.77708791  1  0.221336  0  0.083462  0.104412  0  2.904302  0
S  S37  1  0.25602444  0.74912542  0.68222104  1  0.319195  0  0.138488  0.201229  0  2.744116  0
S  S38  1  0.63484438  0.91789544  0.64080559  1  0.223448  0  0.08341  0.104325  0  2.904364  0
S  S39  1  0.25606136  0.43309540  0.25087196  1  0.31735  0  0.138466  0.201198  0  2.744258  0
S  S40  1  0.63485533  0.22291103  0.08210305  1  0.223243  0  0.083485  0.10441  0  2.904226  0
O  O41  1  0.69148120  0.58850062  0.56575192  1  -1.236762  0  -0.218596  -0.571297  0  2.383555  0
O  O42  1  0.69149635  0.47725986  0.41150266  1  -1.237327  0  -0.218707  -0.571396  0  2.383525  0
O  O43  1  0.69149855  0.43424402  0.52274526  1  -1.23415  0  -0.21858  -0.571272  0  2.383577  0
O  O44  1  0.21680624  0.57934964  0.50229752  1  -1.245789  0  -0.222065  -0.573468  0  2.404805  0
O  O45  1  0.21682926  0.49770473  0.57705291  1  -1.240457  0  -0.222003  -0.573335  0  2.404594  0
O  O46  1  0.21683998  0.42295100  0.42065310  1  -1.244962  0  -0.221992  -0.573384  0  2.404742  0
O  O47  1  0.70037912  0.17968776  0.91832632  1  -1.25231  0  -0.241195  -0.597429  0  2.355415  0
O  O48  1  0.70039133  0.23863820  0.82031080  1  -1.248677  0  -0.241278  -0.597505  0  2.355258  0
O  O49  1  0.70039453  0.08167425  0.76136406  1  -1.247835  0  -0.241253  -0.597484  0  2.355348  0
O  O50  1  0.23240399  0.24122016  0.91592296  1  -1.260918  0  -0.242553  -0.594355  0  2.3343  0
O  O51  1  0.23242579  0.08407712  0.82529985  1  -1.263305  0  -0.242562  -0.594378  0  2.33431  0
O  O52  1  0.23243209  0.17470015  0.75878067  1  -1.258607  0  -0.242543  -0.594367  0  2.334372  0
O  O53  1  0.78590214  0.53060315  0.80489903  1  -1.09531  0  -0.344438  -0.469745  0  2.192867  0
O  O54  1  0.74291895  0.55400510  0.70730781  1  -1.087694  0  -0.256526  -0.408066  0  2.098074  0
O  O55  1  0.78599550  0.77430914  0.46940283  1  -1.107084  0  -0.344479  -0.469658  0  2.193572  0
O  O56  1  0.74291634  0.65330966  0.44598844  1  -1.09423  0  -0.25643  -0.407976  0  2.097171  0
O  O57  1  0.78594757  0.19509439  0.22569110  1  -1.099246  0  -0.344394  -0.469552  0  2.193211  0
O  O58  1  0.74299291  0.29269274  0.34669025  1  -1.088936  0  -0.256547  -0.408025  0  2.097383  0
