# generated using pymatgen
data_CoH10C10(NCl)2
_symmetry_space_group_name_H-M   'P 1'
_cell_length_a   3.58392293
_cell_length_b   8.37730187
_cell_length_c   17.28001958
_cell_angle_alpha   89.96428020
_cell_angle_beta   91.22123816
_cell_angle_gamma   89.92898395
_symmetry_Int_Tables_number   1
_chemical_formula_structural   CoH10C10(NCl)2
_chemical_formula_sum   'Co2 H20 C20 N4 Cl4'
_cell_volume   518.69011556
_cell_formula_units_Z   2
loop_
 _symmetry_equiv_pos_site_id
 _symmetry_equiv_pos_as_xyz
  1  'x, y, z'
loop_
 _atom_site_type_symbol
 _atom_site_label
 _atom_site_symmetry_multiplicity
 _atom_site_fract_x
 _atom_site_fract_y
 _atom_site_fract_z
 _atom_site_occupancy
 _atom_site_pbe_cm5_charge
 _atom_site_pbe_ddec_charge
 _atom_site_pbe_ddec_spin_density
 _atom_site_pbe_ddec_sum_bond_order
 _atom_site_pbe_magmom
Co  Co0  1  0.99999777  0.99999687  0.99999937  1  0.488193  0.688921  2.777617  2.574379  2.529
Co  Co1  1  0.49999470  0.50000321  0.49999996  1  0.487959  0.689097  2.777514  2.573386  2.529
H  H2  1  0.17273709  0.64287331  0.00606696  1  0.10354  0.080233  0.0003  1.04272  0.001
H  H3  1  0.32679596  0.14227326  0.49386619  1  0.103709  0.080539  0.0003  1.042092  0.001
H  H4  1  0.82723833  0.35712237  0.99393177  1  0.103546  0.080242  0.0003  1.04273  0.001
H  H5  1  0.67317394  0.85773556  0.50613427  1  0.103709  0.080561  0.0003  1.04207  0.001
H  H6  1  0.21510187  0.42343646  0.10458525  1  0.093179  0.108459  0.001025  1.049391  0.001
H  H7  1  0.28499256  0.92357491  0.39509471  1  0.093323  0.10858  0.001024  1.049558  0.001
H  H8  1  0.78486513  0.57655684  0.89541231  1  0.093148  0.108441  0.001025  1.049405  0.001
H  H9  1  0.71499972  0.07642912  0.60490695  1  0.093329  0.108588  0.001024  1.049496  0.001
H  H10  1  0.07706857  0.48904369  0.24312531  1  0.101765  0.09288  -0.000277  1.043212  0.0
H  H11  1  0.42422065  0.98995132  0.25665939  1  0.101861  0.093025  -0.000276  1.043121  0.0
H  H12  1  0.92292637  0.51095318  0.75687347  1  0.101755  0.092878  -0.000277  1.043175  0.0
H  H13  1  0.57581076  0.01004673  0.74334353  1  0.101928  0.093082  -0.000276  1.043134  0.0
H  H14  1  0.90019949  0.76904360  0.27654228  1  0.099647  0.113574  0.00105  1.019315  0.001
H  H15  1  0.60213452  0.26998750  0.22368059  1  0.099722  0.113469  0.00104  1.019433  0.001
H  H16  1  0.09983463  0.23095683  0.72345891  1  0.099606  0.113516  0.00105  1.0194  0.001
H  H17  1  0.39789404  0.73001294  0.77632116  1  0.099743  0.113521  0.00104  1.019335  0.001
H  H18  1  0.87462019  0.97453029  0.16983604  1  0.101864  0.076841  0.00074  1.052113  0.001
H  H19  1  0.62751450  0.47461737  0.33057229  1  0.101731  0.07669  0.000743  1.05198  0.001
H  H20  1  0.12540551  0.02546777  0.83016398  1  0.101857  0.076819  0.00074  1.052177  0.001
H  H21  1  0.37249448  0.52538666  0.66942826  1  0.101748  0.076725  0.000744  1.051969  0.001
C  C22  1  0.11129332  0.66477672  0.06654667  1  0.041627  0.096274  -0.005538  3.91745  -0.003
C  C23  1  0.38890307  0.16452466  0.43344574  1  0.042324  0.096979  -0.005467  3.915379  -0.003
C  C24  1  0.88868762  0.33522016  0.93345092  1  0.041644  0.096245  -0.005537  3.917449  -0.003
C  C25  1  0.61106124  0.83548535  0.56655470  1  0.042322  0.097003  -0.005469  3.915157  -0.003
C  C26  1  0.13487672  0.54381022  0.12169262  1  -0.089576  -0.129002  0.002705  3.962841  0.004
C  C27  1  0.36577218  0.04395267  0.37816967  1  -0.0897  -0.129221  0.002707  3.962911  0.004
C  C28  1  0.86510702  0.45618546  0.87830497  1  -0.089566  -0.129024  0.002705  3.962821  0.004
C  C29  1  0.63422287  0.95604778  0.62183143  1  -0.089709  -0.129224  0.002707  3.962953  0.004
C  C30  1  0.05844085  0.58036944  0.19834926  1  -0.073147  -0.028992  -0.008012  3.959956  -0.005
C  C31  1  0.44268833  0.08094205  0.30154547  1  -0.073387  -0.029191  -0.007935  3.961244  -0.005
C  C32  1  0.94155965  0.41962863  0.80164895  1  -0.073176  -0.028983  -0.008011  3.95998  -0.005
C  C33  1  0.55732346  0.91906197  0.69845567  1  -0.073404  -0.02913  -0.007938  3.961302  -0.005
C  C34  1  0.96121717  0.73651812  0.21703482  1  -0.091416  -0.135697  0.002798  3.97984  0.004
C  C35  1  0.54058644  0.23701955  0.28309064  1  -0.091271  -0.136105  0.002776  3.98199  0.004
C  C36  1  0.03880297  0.26348591  0.78296576  1  -0.091372  -0.135674  0.002798  3.980134  0.004
C  C37  1  0.45944489  0.76297850  0.71691055  1  -0.091306  -0.136242  0.002777  3.981954  0.004
C  C38  1  0.94663923  0.85055483  0.15852151  1  0.036245  0.079637  -0.004674  3.950657  -0.003
C  C39  1  0.55492836  0.35066477  0.34172856  1  0.036564  0.080313  -0.00464  3.949513  -0.003
C  C40  1  0.05337243  0.14944562  0.84147673  1  0.036277  0.079639  -0.004674  3.950758  -0.003
C  C41  1  0.44506663  0.64934045  0.65827138  1  0.036544  0.080326  -0.004641  3.949682  -0.003
N  N42  1  0.01976619  0.81628511  0.08417818  1  -0.328429  -0.227387  0.028305  3.58983  0.045
N  N43  1  0.48108373  0.31601214  0.41600210  1  -0.32906  -0.228496  0.028307  3.589017  0.045
N  N44  1  0.98023439  0.18371534  0.91582177  1  -0.328411  -0.227289  0.028304  3.589682  0.045
N  N45  1  0.51890569  0.68398951  0.58399782  1  -0.32911  -0.228637  0.028309  3.589017  0.045
Cl  Cl46  1  0.50809700  0.85973943  0.92913932  1  -0.239718  -0.471382  0.092763  1.461178  0.128
Cl  Cl47  1  0.99254785  0.35965213  0.57089883  1  -0.239456  -0.471015  0.092667  1.461571  0.128
Cl  Cl48  1  0.49190359  0.14025624  0.07086064  1  -0.239728  -0.471363  0.092765  1.461084  0.128
Cl  Cl49  1  0.00743603  0.64035310  0.42910224  1  -0.239463  -0.471043  0.092669  1.461576  0.128
