# generated using pymatgen
data_CdH32C46S2N8(O7F3)2
_symmetry_space_group_name_H-M   'P 1'
_cell_length_a   9.59134750
_cell_length_b   11.83156836
_cell_length_c   13.12173774
_cell_angle_alpha   102.71427555
_cell_angle_beta   95.40934121
_cell_angle_gamma   107.10807160
_symmetry_Int_Tables_number   1
_chemical_formula_structural   CdH32C46S2N8(O7F3)2
_chemical_formula_sum   'Cd1 H32 C46 S2 N8 O14 F6'
_cell_volume   1367.93651662
_cell_formula_units_Z   1
loop_
 _symmetry_equiv_pos_site_id
 _symmetry_equiv_pos_as_xyz
  1  'x, y, z'
loop_
 _atom_site_type_symbol
 _atom_site_label
 _atom_site_symmetry_multiplicity
 _atom_site_fract_x
 _atom_site_fract_y
 _atom_site_fract_z
 _atom_site_occupancy
 _atom_site_hle17_bader_spin_density
 _atom_site_hle17_ddec_charge
 _atom_site_hle17_ddec_spin_density
 _atom_site_hle17_ddec_sum_bond_order
 _atom_site_hle17_magmom
 _atom_site_hse06_10hf_bader_spin_density
 _atom_site_hse06_10hf_ddec_charge
 _atom_site_hse06_10hf_ddec_spin_density
 _atom_site_hse06_10hf_ddec_sum_bond_order
 _atom_site_hse06_10hf_magmom
 _atom_site_hse06_bader_spin_density
 _atom_site_hse06_ddec_charge
 _atom_site_hse06_ddec_spin_density
 _atom_site_hse06_ddec_sum_bond_order
 _atom_site_hse06_magmom
 _atom_site_pbe_bader_spin_density
 _atom_site_pbe_cm5_charge
 _atom_site_pbe_ddec_charge
 _atom_site_pbe_ddec_spin_density
 _atom_site_pbe_ddec_sum_bond_order
 _atom_site_pbe_magmom
Cd  Cd0  1  0.00000028  0.49999924  0.49999993  1  0  1.06534  0  1.748789  0  0  0.851507  0  2.203464  0  0  0.903377  0  2.160719  0  0  0.796512  0.814775  0  2.232722  0
H  H1  1  0.19036348  0.76469059  0.68928204  1  0  0.107316  0  0.982374  0  0  0.112446  0  1.050666  0  0  0.1157  0  1.047248  0  0  0.118484  0.110065  0  1.053146  0
H  H2  1  0.80963623  0.23530895  0.31071852  1  0  0.107324  0  0.98241  0  0  0.112461  0  1.050691  0  0  0.115716  0  1.047274  0  0  0.118499  0.110081  0  1.053173  0
H  H3  1  0.98900259  0.03903866  0.65393729  1  0  0.119888  0  0.917213  0  0  0.133514  0  0.967401  0  0  0.136264  0  0.965846  0  0  0.122852  0.131462  0  0.968657  0
H  H4  1  0.01099748  0.96096180  0.34606271  1  0  0.119878  0  0.917233  0  0  0.133504  0  0.96742  0  0  0.136254  0  0.965864  0  0  0.122844  0.131452  0  0.968675  0
H  H5  1  0.82653411  0.88739086  0.48782821  1  0  0.115532  0  0.954308  0  0  0.123871  0  1.012743  0  0  0.127536  0  1.011262  0  0  0.112175  0.121137  0  1.01423  0
H  H6  1  0.17346701  0.11260959  0.51217186  1  0  0.115516  0  0.954311  0  0  0.123854  0  1.012747  0  0  0.127519  0  1.011268  0  0  0.112172  0.12112  0  1.014235  0
H  H7  1  0.85788603  0.68305248  0.43151399  1  0  0.086267  0  0.95508  0  0  0.092946  0  1.023357  0  0  0.095367  0  1.021056  0  0  0.116669  0.091084  0  1.025124  0
H  H8  1  0.14211508  0.31694797  0.56848608  1  0  0.086256  0  0.955081  0  0  0.092936  0  1.023352  0  0  0.095367  0  1.02104  0  0  0.116659  0.091069  0  1.025125  0
H  H9  1  0.45566542  0.06277932  0.95898275  1  0  0.096121  0  0.906047  0  0  0.109296  0  0.958511  0  0  0.110826  0  0.958417  0  0  0.113068  0.10818  0  0.958725  0
H  H10  1  0.54433392  0.93721930  0.04101684  1  0  0.0961  0  0.906107  0  0  0.109279  0  0.958566  0  0  0.110811  0  0.958472  0  0  0.113071  0.108164  0  0.958779  0
H  H11  1  0.48780024  0.22560720  0.87371103  1  0  0.120017  0  0.890714  0  0  0.132326  0  0.940238  0  0  0.134857  0  0.939229  0  0  0.122082  0.130504  0  0.941086  0
H  H12  1  0.51219946  0.77439234  0.12628877  1  0  0.120042  0  0.890741  0  0  0.132389  0  0.94024  0  0  0.134921  0  0.939231  0  0  0.122092  0.130563  0  0.941089  0
H  H13  1  0.27991536  0.04685049  0.08881002  1  0  0.07702  0  0.903132  0  0  0.089232  0  0.955092  0  0  0.091462  0  0.953781  0  0  0.106218  0.087582  0  0.956079  0
H  H14  1  0.72008507  0.95315088  0.91119019  1  0  0.076965  0  0.903122  0  0  0.089177  0  0.955091  0  0  0.091406  0  0.953782  0  0  0.106186  0.087526  0  0.956079  0
H  H15  1  0.05203101  0.10321751  0.04699201  1  0  0.1045  0  0.969051  0  0  0.113778  0  1.032699  0  0  0.116546  0  1.032227  0  0  0.09815  0.111844  0  1.033096  0
H  H16  1  0.94796906  0.89678295  0.95300799  1  0  0.104501  0  0.969077  0  0  0.113779  0  1.032717  0  0  0.116547  0  1.032243  0  0  0.098135  0.111845  0  1.033113  0
H  H17  1  0.07771547  0.26650709  0.94477915  1  0  0.110468  0  0.949138  0  0  0.119356  0  1.010169  0  0  0.12291  0  1.007778  0  0  0.10004  0.116725  0  1.012141  0
H  H18  1  0.92228564  0.73349336  0.05522092  1  0  0.110483  0  0.949128  0  0  0.119364  0  1.010159  0  0  0.12292  0  1.007769  0  0  0.100047  0.116734  0  1.012132  0
H  H19  1  0.32905302  0.35908339  0.90341344  1  0  0.096972  0  0.935981  0  0  0.105094  0  0.997259  0  0  0.107  0  0.996967  0  0  0.10627  0.103599  0  0.997697  0
H  H20  1  0.67094809  0.64091706  0.09658587  1  0  0.096984  0  0.935988  0  0  0.10509  0  0.997276  0  0  0.106997  0  0.996984  0  0  0.106274  0.103596  0  0.997714  0
H  H21  1  0.52190315  0.22141542  0.12730436  1  0  0.114352  0  0.915138  0  0  0.125273  0  0.970322  0  0  0.127417  0  0.969646  0  0  0.113212  0.123626  0  0.971191  0
H  H22  1  0.47809796  0.77858503  0.87269495  1  0  0.114346  0  0.91517  0  0  0.125258  0  0.970351  0  0  0.1274  0  0.969677  0  0  0.113202  0.123611  0  0.971222  0
H  H23  1  0.54268389  0.37642967  0.03690569  1  0  0.113796  0  0.927485  0  0  0.118781  0  0.996196  0  0  0.121427  0  0.994419  0  0  0.112978  0.116879  0  0.997597  0
H  H24  1  0.45731759  0.62357169  0.96309383  1  0  0.113818  0  0.927483  0  0  0.118759  0  0.99622  0  0  0.121389  0  0.994461  0  0  0.11298  0.116858  0  0.997619  0
H  H25  1  0.15370639  0.38544987  0.32655415  1  0  0.095355  0  0.941477  0  0  0.100386  0  1.009762  0  0  0.102735  0  1.007861  0  0  0.118997  0.098669  0  1.011197  0
H  H26  1  0.84629472  0.61455058  0.67344592  1  0  0.095371  0  0.94146  0  0  0.100404  0  1.009746  0  0  0.102751  0  1.007846  0  0  0.118998  0.098684  0  1.011181  0
H  H27  1  0.34697448  0.68589965  0.58607370  1  0  0.084216  0  0.951717  0  0  0.091435  0  1.018686  0  0  0.093617  0  1.016576  0  0  0.114962  0.089856  0  1.020085  0
H  H28  1  0.65302418  0.31409989  0.41392679  1  0  0.084231  0  0.951744  0  0  0.091446  0  1.018713  0  0  0.093627  0  1.016604  0  0  0.114988  0.08987  0  1.020107  0
H  H29  1  0.57792570  0.74822093  0.51110581  1  0  0.114311  0  0.947427  0  0  0.125408  0  1.002788  0  0  0.128407  0  1.002135  0  0  0.112002  0.123201  0  1.003538  0
H  H30  1  0.42207401  0.25177861  0.48889474  1  0  0.114329  0  0.94749  0  0  0.125438  0  1.002836  0  0  0.128438  0  1.002181  0  0  0.112025  0.123231  0  1.003588  0
H  H31  1  0.59527938  0.61929035  0.33346722  1  0  0.131834  0  0.956298  0  0  0.138295  0  1.023064  0  0  0.141734  0  1.019686  0  0  0.115462  0.135839  0  1.025384  0
H  H32  1  0.40472033  0.38070919  0.66653334  1  0  0.13183  0  0.956282  0  0  0.138295  0  1.023049  0  0  0.141734  0  1.019671  0  0  0.115463  0.135841  0  1.025367  0
C  C33  1  0.11303776  0.79601800  0.64571642  1  0  0.047187  0  3.658069  0  0  0.007268  0  3.912342  0  0  0.013323  0  3.928135  0  0  0.047364  0.003259  0  3.901619  0
C  C34  1  0.88696194  0.20398153  0.35428337  1  0  0.047184  0  3.658096  0  0  0.007261  0  3.912368  0  0  0.013316  0  3.928161  0  0  0.047345  0.003252  0  3.901645  0
C  C35  1  0.10509489  0.91417494  0.68098753  1  0  0.16421  0  3.773988  0  0  0.16063  0  4.023903  0  0  0.162474  0  4.046569  0  0  0.09905  0.158924  0  4.008906  0
C  C36  1  0.89490481  0.08582460  0.31901226  1  0  0.164255  0  3.773921  0  0  0.160688  0  4.023833  0  0  0.162527  0  4.046498  0  0  0.099086  0.158984  0  4.008835  0
C  C37  1  0.99902029  0.94847786  0.62625156  1  0  -0.069464  0  3.683655  0  0  -0.098811  0  3.935345  0  0  -0.096122  0  3.952091  0  0  -0.056099  -0.100388  0  3.924116  0
C  C38  1  0.00098010  0.05152076  0.37374887  1  0  -0.069518  0  3.683688  0  0  -0.098869  0  3.935381  0  0  -0.096178  0  3.952125  0  0  -0.056122  -0.100444  0  3.924149  0
C  C39  1  0.90834699  0.86465542  0.53541532  1  0  -0.100096  0  3.730788  0  0  -0.110364  0  3.983384  0  0  -0.117405  0  4.004753  0  0  -0.075934  -0.105947  0  3.96914  0
C  C40  1  0.09165272  0.13534412  0.46458524  1  0  -0.100028  0  3.730773  0  0  -0.110288  0  3.983358  0  0  -0.117331  0  4.004733  0  0  -0.075899  -0.105872  0  3.969114  0
C  C41  1  0.92478588  0.74982225  0.50351941  1  0  0.130155  0  3.682624  0  0  0.096754  0  3.932919  0  0  0.103583  0  3.952085  0  0  0.046631  0.092524  0  3.919785  0
C  C42  1  0.07521419  0.25017820  0.49648135  1  0  0.130146  0  3.682635  0  0  0.096745  0  3.932921  0  0  0.103566  0  3.952086  0  0  0.046625  0.09252  0  3.919791  0
C  C43  1  0.24018637  0.96939289  0.86665907  1  0  0.528034  0  3.759913  0  0  0.481617  0  4.057671  0  0  0.508418  0  4.059097  0  0  0.251301  0.463442  0  4.056648  0
C  C44  1  0.75981334  0.03060664  0.13334072  1  0  0.527966  0  3.759964  0  0  0.48155  0  4.05773  0  0  0.508347  0  4.059157  0  0  0.251263  0.463378  0  4.056711  0
C  C45  1  0.35203428  0.08269742  0.94182744  1  0  -0.144315  0  3.629556  0  0  -0.157428  0  3.875382  0  0  -0.161679  0  3.888372  0  0  -0.075535  -0.154512  0  3.866352  0
C  C46  1  0.64796542  0.91730212  0.05817236  1  0  -0.14431  0  3.629631  0  0  -0.157403  0  3.875476  0  0  -0.161654  0  3.888475  0  0  -0.07553  -0.154488  0  3.866443  0
C  C47  1  0.37270931  0.18428376  0.88327098  1  0  -0.146226  0  3.58585  0  0  -0.160431  0  3.829118  0  0  -0.164683  0  3.840739  0  0  -0.073648  -0.157369  0  3.820796  0
C  C48  1  0.62729003  0.81571486  0.11672861  1  0  -0.146226  0  3.585823  0  0  -0.160527  0  3.829213  0  0  -0.164783  0  3.840839  0  0  -0.073665  -0.157462  0  3.820888  0
C  C49  1  0.28165098  0.12140054  0.77361166  1  0  0.545955  0  3.719805  0  0  0.499221  0  4.016163  0  0  0.526865  0  4.016006  0  0  0.259391  0.480473  0  4.0157  0
C  C50  1  0.71834941  0.87859807  0.22638800  1  0  0.545942  0  3.719686  0  0  0.499216  0  4.016072  0  0  0.526856  0  4.015912  0  0  0.259368  0.480472  0  4.015608  0
C  C51  1  0.29461621  0.11906633  0.04699083  1  0  0.018213  0  3.626661  0  0  0.006019  0  3.867944  0  0  0.006822  0  3.882316  0  0  -0.075027  0.005752  0  3.857845  0
C  C52  1  0.70538349  0.88093321  0.95300896  1  0  0.018319  0  3.626622  0  0  0.006122  0  3.867888  0  0  0.006923  0  3.88226  0  0  -0.074991  0.005856  0  3.857786  0
C  C53  1  0.15422214  0.14776207  0.02156282  1  0  -0.128385  0  3.674498  0  0  -0.147768  0  3.936522  0  0  -0.150758  0  3.95686  0  0  -0.108326  -0.145688  0  3.922511  0
C  C54  1  0.84577792  0.85223838  0.97843566  1  0  -0.128454  0  3.67465  0  0  -0.147849  0  3.936674  0  0  -0.150837  0  3.95701  0  0  -0.108344  -0.145766  0  3.922659  0
C  C55  1  0.16779331  0.23414050  0.96834139  1  0  -0.104415  0  3.660236  0  0  -0.127522  0  3.923144  0  0  -0.128968  0  3.941999  0  0  -0.101751  -0.126467  0  3.910211  0
C  C56  1  0.83220779  0.76585994  0.03165716  1  0  -0.104409  0  3.660279  0  0  -0.127494  0  3.923166  0  0  -0.128943  0  3.942024  0  0  -0.101749  -0.126441  0  3.910234  0
C  C57  1  0.32099430  0.28862236  0.94621260  1  0  0.018592  0  3.573766  0  0  0.009818  0  3.807689  0  0  0.009878  0  3.823008  0  0  -0.07264  0.010013  0  3.797096  0
C  C58  1  0.67900681  0.71137809  0.05378671  1  0  0.01861  0  3.573705  0  0  0.009836  0  3.807639  0  0  0.009897  0  3.822955  0  0  -0.072617  0.01003  0  3.797048  0
C  C59  1  0.41616137  0.23833144  0.11192526  1  0  -0.156821  0  3.622712  0  0  -0.170345  0  3.865298  0  0  -0.174982  0  3.878171  0  0  -0.081812  -0.167206  0  3.856504  0
C  C60  1  0.58383869  0.76166902  0.88807398  1  0  -0.156859  0  3.622775  0  0  -0.170371  0  3.86527  0  0  -0.175001  0  3.87813  0  0  -0.081809  -0.167236  0  3.856477  0
C  C61  1  0.38111177  0.28883298  0.21929811  1  0  0.558396  0  3.737003  0  0  0.510796  0  4.035472  0  0  0.538626  0  4.034952  0  0  0.256103  0.491902  0  4.035336  0
C  C62  1  0.61888793  0.71116656  0.78070168  1  0  0.558357  0  3.737044  0  0  0.510782  0  4.035467  0  0  0.538612  0  4.034947  0  0  0.256083  0.491888  0  4.035328  0
C  C63  1  0.40258849  0.44332380  0.13028872  1  0  0.558669  0  3.712948  0  0  0.508937  0  4.015711  0  0  0.536675  0  4.015443  0  0  0.259003  0.490201  0  4.015195  0
C  C64  1  0.59740843  0.55667666  0.86970955  1  0  0.558798  0  3.712515  0  0  0.508957  0  4.015398  0  0  0.536695  0  4.015126  0  0  0.259044  0.49022  0  4.014879  0
C  C65  1  0.43027874  0.33936125  0.05333303  1  0  -0.154812  0  3.599115  0  0  -0.166978  0  3.836654  0  0  -0.172011  0  3.85042  0  0  -0.077964  -0.163527  0  3.827326  0
C  C66  1  0.56972133  0.66063920  0.94666697  1  0  -0.154858  0  3.599227  0  0  -0.166912  0  3.836678  0  0  -0.171938  0  3.850441  0  0  -0.077947  -0.16346  0  3.827347  0
C  C67  1  0.37707837  0.49105701  0.32093455  1  0  0.168389  0  3.771687  0  0  0.165256  0  4.020887  0  0  0.166563  0  4.042972  0  0  0.102181  0.163808  0  4.0062  0
C  C68  1  0.62292065  0.50894345  0.67906462  1  0  0.168391  0  3.771701  0  0  0.165276  0  4.020881  0  0  0.166582  0  4.042967  0  0  0.102193  0.163829  0  4.006191  0
C  C69  1  0.24994565  0.46445397  0.36635792  1  0  0.068141  0  3.675529  0  0  0.026562  0  3.930729  0  0  0.033547  0  3.947526  0  0  0.049877  0.021578  0  3.920232  0
C  C70  1  0.75005405  0.53554556  0.63364188  1  0  0.068088  0  3.675519  0  0  0.026497  0  3.930718  0  0  0.033482  0  3.947516  0  0  0.049847  0.021515  0  3.920216  0
C  C71  1  0.35725564  0.63380667  0.50925135  1  0  0.127901  0  3.696264  0  0  0.093582  0  3.948091  0  0  0.100801  0  3.967837  0  0  0.046591  0.089104  0  3.934377  0
C  C72  1  0.64274407  0.36619286  0.49074845  1  0  0.127877  0  3.696147  0  0  0.093557  0  3.947984  0  0  0.100776  0  3.967728  0  0  0.046562  0.089079  0  3.934273  0
C  C73  1  0.48634026  0.66775204  0.46688415  1  0  -0.099532  0  3.724638  0  0  -0.110857  0  3.97381  0  0  -0.118212  0  3.995858  0  0  -0.078578  -0.106165  0  3.959012  0
C  C74  1  0.51365944  0.33224750  0.53311565  1  0  -0.099519  0  3.724586  0  0  -0.110852  0  3.973755  0  0  -0.118207  0  3.995801  0  0  -0.07857  -0.106162  0  3.958965  0
C  C75  1  0.49701564  0.59610502  0.37024042  1  0  -0.063864  0  3.642556  0  0  -0.09414  0  3.89342  0  0  -0.091128  0  3.909878  0  0  -0.054774  -0.095644  0  3.882166  0
C  C76  1  0.50298443  0.40389544  0.62976034  1  0  -0.063886  0  3.642557  0  0  -0.09417  0  3.89342  0  0  -0.091159  0  3.909878  0  0  -0.054787  -0.095676  0  3.882168  0
C  C77  1  0.91102000  0.44764077  0.12539234  1  0  0.607184  0  3.689106  0  0  0.539109  0  4.053687  0  0  0.567106  0  4.02721  0  0  0.290639  0.518896  0  4.073189  0
C  C78  1  0.08898075  0.55235876  0.87460829  1  0  0.607297  0  3.688868  0  0  0.539139  0  4.053577  0  0  0.567172  0  4.027041  0  0  0.290671  0.518903  0  4.073117  0
S  S79  1  0.82183197  0.47478416  0.24471210  1  0  1.129052  0  5.787794  0  0  1.021339  0  6.329418  0  0  1.065484  0  6.308293  0  0  0.492197  0.990886  0  6.34337  0
S  S80  1  0.17816882  0.52521813  0.75528984  1  0  1.129005  0  5.787673  0  0  1.021304  0  6.329305  0  0  1.065443  0  6.308174  0  0  0.492204  0.990857  0  6.343257  0
N  N81  1  0.02353715  0.71525926  0.55862722  1  0  -0.326644  0  3.246738  0  0  -0.24793  0  3.51019  0  0  -0.267696  0  3.530751  0  0  -0.32297  -0.234338  0  3.495763  0
N  N82  1  0.97646324  0.28473936  0.44137244  1  0  -0.326636  0  3.246785  0  0  -0.247922  0  3.510247  0  0  -0.267689  0  3.53081  0  0  -0.322947  -0.234331  0  3.49582  0
N  N83  1  0.20482463  0.99840519  0.77102808  1  0  -0.313614  0  3.401207  0  0  -0.236547  0  3.627032  0  0  -0.260837  0  3.646123  0  0  -0.233644  -0.219913  0  3.613736  0
N  N84  1  0.79517472  0.00159343  0.22897151  1  0  -0.313626  0  3.401208  0  0  -0.236571  0  3.627054  0  0  -0.26085  0  3.64613  0  0  -0.233682  -0.219948  0  3.613773  0
N  N85  1  0.38483941  0.40974821  0.22603084  1  0  -0.31967  0  3.409026  0  0  -0.244099  0  3.638154  0  0  -0.268484  0  3.657244  0  0  -0.234367  -0.227236  0  3.624415  0
N  N86  1  0.61516066  0.59025224  0.77396840  1  0  -0.319588  0  3.408885  0  0  -0.24402  0  3.638051  0  0  -0.268399  0  3.657135  0  0  -0.234389  -0.227157  0  3.624309  0
N  N87  1  0.24004708  0.53497704  0.45896641  1  0  -0.331236  0  3.275834  0  0  -0.247692  0  3.539637  0  0  -0.269306  0  3.5613  0  0  -0.330603  -0.232809  0  3.524533  0
N  N88  1  0.75995263  0.46502250  0.54103338  1  0  -0.331212  0  3.275771  0  0  -0.247652  0  3.539561  0  0  -0.269266  0  3.561222  0  0  -0.330579  -0.23277  0  3.524454  0
O  O89  1  0.18652633  0.86992559  0.88423371  1  0  -0.472998  0  1.935646  0  0  -0.446239  0  2.155925  0  0  -0.4641  0  2.150258  0  0  -0.268891  -0.434307  0  2.160018  0
O  O90  1  0.81347337  0.13007394  0.11576685  1  0  -0.472942  0  1.93567  0  0  -0.44618  0  2.15595  0  0  -0.46404  0  2.150286  0  0  -0.26885  -0.434246  0  2.160041  0
O  O91  1  0.27435245  0.16443982  0.69757573  1  0  -0.477178  0  1.935631  0  0  -0.438774  0  2.146804  0  0  -0.457763  0  2.142156  0  0  -0.257964  -0.425757  0  2.149877  0
O  O92  1  0.72564794  0.83555879  0.30242393  1  0  -0.477145  0  1.935555  0  0  -0.438731  0  2.146716  0  0  -0.457722  0  2.142069  0  0  -0.257921  -0.425716  0  2.149791  0
O  O93  1  0.35471303  0.23661498  0.28949715  1  0  -0.506258  0  1.901704  0  0  -0.475179  0  2.112737  0  0  -0.493575  0  2.108032  0  0  -0.284488  -0.462412  0  2.115551  0
O  O94  1  0.64528635  0.76338639  0.71050223  1  0  -0.506254  0  1.901754  0  0  -0.475181  0  2.112766  0  0  -0.493575  0  2.108061  0  0  -0.284469  -0.462413  0  2.115579  0
O  O95  1  0.39656631  0.54047927  0.11634888  1  0  -0.474684  0  1.92658  0  0  -0.441744  0  2.143993  0  0  -0.460096  0  2.138125  0  0  -0.26338  -0.429176  0  2.147698  0
O  O96  1  0.60343130  0.45952027  0.88365002  1  0  -0.474854  0  1.926327  0  0  -0.441871  0  2.14379  0  0  -0.460225  0  2.137923  0  0  -0.263458  -0.429303  0  2.147496  0
O  O97  1  0.95218263  0.52896676  0.33021270  1  0  -0.65092  0  2.097805  0  0  -0.596299  0  2.379352  0  0  -0.617202  0  2.363153  0  0  -0.350825  -0.581353  0  2.389901  0
O  O98  1  0.04781748  0.47103644  0.66978785  1  0  -0.650918  0  2.097742  0  0  -0.596312  0  2.379312  0  0  -0.617211  0  2.363101  0  0  -0.35085  -0.581366  0  2.389857  0
O  O99  1  0.72688143  0.35465218  0.24785433  1  0  -0.599678  0  2.027915  0  0  -0.560184  0  2.280565  0  0  -0.57903  0  2.268816  0  0  -0.325196  -0.547  0  2.288518  0
O  O100  1  0.27312250  0.64535010  0.75214858  1  0  -0.599701  0  2.027913  0  0  -0.560162  0  2.280509  0  0  -0.579006  0  2.268758  0  0  -0.325191  -0.546974  0  2.288458  0
O  O101  1  0.74579318  0.55991419  0.22651145  1  0  -0.584721  0  2.006871  0  0  -0.550257  0  2.260444  0  0  -0.568774  0  2.248869  0  0  -0.322474  -0.537323  0  2.268043  0
O  O102  1  0.25420689  0.44008627  0.77348779  1  0  -0.584657  0  2.006858  0  0  -0.550206  0  2.260429  0  0  -0.568727  0  2.248856  0  0  -0.322444  -0.537276  0  2.268027  0
F  F103  1  0.98887014  0.55683827  0.10998910  1  0  -0.225055  0  1.190539  0  0  -0.192367  0  1.359919  0  0  -0.201214  0  1.342855  0  0  -0.096342  -0.185995  0  1.37212  0
F  F104  1  0.01113025  0.44316035  0.89001208  1  0  -0.225097  0  1.190469  0  0  -0.192392  0  1.359869  0  0  -0.201244  0  1.342789  0  0  -0.096345  -0.186012  0  1.37208  0
F  F105  1  0.80694592  0.38410588  0.03817896  1  0  -0.2149  0  1.18923  0  0  -0.180591  0  1.358796  0  0  -0.190049  0  1.342804  0  0  -0.090574  -0.173803  0  1.370291  0
F  F106  1  0.19305451  0.61589549  0.96182277  1  0  -0.214922  0  1.189224  0  0  -0.180594  0  1.35881  0  0  -0.190064  0  1.342803  0  0  -0.090598  -0.173802  0  1.370316  0
F  F107  1  0.00555768  0.38426361  0.13693165  1  0  -0.225218  0  1.218619  0  0  -0.181562  0  1.384907  0  0  -0.191593  0  1.370291  0  0  -0.088406  -0.174074  0  1.39492  0
F  F108  1  0.99444203  0.61573593  0.86306890  1  0  -0.225268  0  1.218502  0  0  -0.18158  0  1.384807  0  0  -0.191621  0  1.37018  0  0  -0.088425  -0.174087  0  1.394829  0
