# generated using pymatgen
data_ZnH30C32(NO)4
_symmetry_space_group_name_H-M   'P 1'
_cell_length_a   8.48803060
_cell_length_b   9.00061694
_cell_length_c   10.40758839
_cell_angle_alpha   80.12964814
_cell_angle_beta   74.85407726
_cell_angle_gamma   64.25078496
_symmetry_Int_Tables_number   1
_chemical_formula_structural   ZnH30C32(NO)4
_chemical_formula_sum   'Zn1 H30 C32 N4 O4'
_cell_volume   689.75016564
_cell_formula_units_Z   1
loop_
 _symmetry_equiv_pos_site_id
 _symmetry_equiv_pos_as_xyz
  1  'x, y, z'
loop_
 _atom_site_type_symbol
 _atom_site_label
 _atom_site_symmetry_multiplicity
 _atom_site_fract_x
 _atom_site_fract_y
 _atom_site_fract_z
 _atom_site_occupancy
 _atom_site_hle17_bader_spin_density
 _atom_site_hle17_ddec_charge
 _atom_site_hle17_ddec_spin_density
 _atom_site_hle17_ddec_sum_bond_order
 _atom_site_hle17_magmom
 _atom_site_hse06_10hf_bader_spin_density
 _atom_site_hse06_10hf_ddec_charge
 _atom_site_hse06_10hf_ddec_spin_density
 _atom_site_hse06_10hf_ddec_sum_bond_order
 _atom_site_hse06_10hf_magmom
 _atom_site_hse06_bader_spin_density
 _atom_site_hse06_ddec_charge
 _atom_site_hse06_ddec_spin_density
 _atom_site_hse06_ddec_sum_bond_order
 _atom_site_hse06_magmom
 _atom_site_pbe_bader_spin_density
 _atom_site_pbe_cm5_charge
 _atom_site_pbe_ddec_charge
 _atom_site_pbe_ddec_spin_density
 _atom_site_pbe_ddec_sum_bond_order
 _atom_site_pbe_magmom
Zn  Zn0  1  0.50000034  0.49999930  0.50000063  1  0  1.010078  0  1.898437  0  0  0.83165  0  2.345732  0  0  0.87992  0  2.292057  0  0  0.6679  0.798049  0  2.382239  0
H  H1  1  0.81509018  0.99862495  0.31115071  1  0  0.125727  0  0.94451  0  0  0.147534  0  1.004672  0  0  0.149613  0  1.004732  0  0  0.095677  0.146121  0  1.004581  0
H  H2  1  0.18490942  0.00137613  0.68884850  1  0  0.125735  0  0.944499  0  0  0.147551  0  1.004654  0  0  0.149631  0  1.004712  0  0  0.095693  0.14613  0  1.004572  0
H  H3  1  0.84615810  0.86804214  0.46039657  1  0  0.114904  0  0.954351  0  0  0.138123  0  1.01049  0  0  0.139954  0  1.010112  0  0  0.089777  0.136796  0  1.010639  0
H  H4  1  0.15384273  0.13195894  0.53960239  1  0  0.114889  0  0.954356  0  0  0.138104  0  1.010507  0  0  0.139936  0  1.01013  0  0  0.089775  0.136776  0  1.010654  0
H  H5  1  0.98008928  0.98337222  0.39201876  1  0  0.128345  0  0.944394  0  0  0.149401  0  1.004922  0  0  0.151417  0  1.004802  0  0  0.095577  0.147885  0  1.0051  0
H  H6  1  0.01991209  0.01662761  0.60798123  1  0  0.128355  0  0.944383  0  0  0.149417  0  1.004903  0  0  0.151434  0  1.004783  0  0  0.095597  0.147902  0  1.005081  0
H  H7  1  0.62582931  0.97329828  0.63863953  1  0  0.108118  0  1.014588  0  0  0.114392  0  1.08398  0  0  0.116867  0  1.087787  0  0  0.082918  0.112738  0  1.081244  0
H  H8  1  0.37417328  0.02670155  0.36136020  1  0  0.108146  0  1.014639  0  0  0.114418  0  1.084024  0  0  0.116893  0  1.087831  0  0  0.082922  0.112763  0  1.081287  0
H  H9  1  0.35439391  0.21887264  0.89823808  1  0  0.126562  0  0.943704  0  0  0.1446  0  1.008664  0  0  0.14772  0  1.006427  0  0  0.093648  0.142538  0  1.00992  0
H  H10  1  0.64560678  0.78112597  0.10176126  1  0  0.12657  0  0.943706  0  0  0.144617  0  1.008656  0  0  0.147737  0  1.006417  0  0  0.093657  0.142555  0  1.009912  0
H  H11  1  0.41338590  0.02740413  0.83183683  1  0  0.110865  0  0.968208  0  0  0.132771  0  1.02808  0  0  0.134547  0  1.027809  0  0  0.087138  0.131365  0  1.028663  0
H  H12  1  0.58661356  0.97259449  0.16816276  1  0  0.110862  0  0.968202  0  0  0.132777  0  1.028058  0  0  0.134554  0  1.027785  0  0  0.087147  0.131365  0  1.028648  0
H  H13  1  0.21321227  0.20223437  0.80999519  1  0  0.12083  0  0.95782  0  0  0.139956  0  1.022019  0  0  0.141976  0  1.022374  0  0  0.093095  0.138467  0  1.021814  0
H  H14  1  0.78678719  0.79776426  0.19000344  1  0  0.120838  0  0.957849  0  0  0.139959  0  1.022043  0  0  0.141978  0  1.022399  0  0  0.093113  0.138473  0  1.021835  0
H  H15  1  0.56871908  0.29735085  0.25862520  1  0  0.084633  0  0.95672  0  0  0.091337  0  1.021827  0  0  0.09374  0  1.020829  0  0  0.115145  0.089408  0  1.023033  0
H  H16  1  0.43128229  0.70264899  0.74137382  1  0  0.084644  0  0.956724  0  0  0.091348  0  1.021822  0  0  0.093754  0  1.020826  0  0  0.115157  0.089421  0  1.023029  0
H  H17  1  0.38644204  0.22401692  0.14440754  1  0  0.103653  0  0.970589  0  0  0.110206  0  1.038664  0  0  0.113895  0  1.036717  0  0  0.107004  0.107178  0  1.041145  0
H  H18  1  0.61356001  0.77598414  0.85559116  1  0  0.103582  0  0.97069  0  0  0.110196  0  1.038695  0  0  0.113885  0  1.036747  0  0  0.107007  0.107166  0  1.041179  0
H  H19  1  0.91407679  0.59783623  0.35860401  1  0  0.114134  0  0.964726  0  0  0.122959  0  1.026184  0  0  0.12597  0  1.026068  0  0  0.109946  0.120499  0  1.026986  0
H  H20  1  0.08592603  0.40215741  0.64140136  1  0  0.11415  0  0.964834  0  0  0.122965  0  1.026299  0  0  0.125977  0  1.026181  0  0  0.109932  0.120504  0  1.027099  0
H  H21  1  0.11738168  0.65841796  0.46128345  1  0  0.07968  0  0.961415  0  0  0.086097  0  1.028218  0  0  0.088348  0  1.026822  0  0  0.115584  0.084389  0  1.029418  0
H  H22  1  0.88262114  0.34157568  0.53872096  1  0  0.079651  0  0.961414  0  0  0.086083  0  1.028196  0  0  0.088335  0  1.026799  0  0  0.115583  0.084375  0  1.029395  0
H  H23  1  0.87420952  0.42412701  0.22820919  1  0  0.086129  0  0.955152  0  0  0.089848  0  1.029131  0  0  0.094306  0  1.02377  0  0  0.112544  0.086553  0  1.032878  0
H  H24  1  0.12579023  0.57587654  0.77178964  1  0  0.08615  0  0.955102  0  0  0.089867  0  1.029088  0  0  0.094324  0  1.023728  0  0  0.112536  0.086574  0  1.032834  0
H  H25  1  0.78710289  0.44013044  0.03493560  1  0  0.100434  0  0.952678  0  0  0.111757  0  1.013308  0  0  0.114297  0  1.012896  0  0  0.103112  0.109827  0  1.013802  0
H  H26  1  0.21289617  0.55987188  0.96506355  1  0  0.100404  0  0.952727  0  0  0.111756  0  1.013322  0  0  0.114297  0  1.012913  0  0  0.10312  0.109825  0  1.013817  0
H  H27  1  0.62032802  0.35804310  0.91684754  1  0  0.088834  0  0.950778  0  0  0.103054  0  1.005318  0  0  0.105076  0  1.005905  0  0  0.098931  0.101119  0  1.00518  0
H  H28  1  0.37966736  0.64195924  0.08315429  1  0  0.08887  0  0.950756  0  0  0.103084  0  1.005295  0  0  0.105109  0  1.005878  0  0  0.098944  0.101148  0  1.005159  0
H  H29  1  0.72587552  0.06386082  0.87113994  1  0  0.098103  0  0.969218  0  0  0.104955  0  1.038175  0  0  0.107794  0  1.03748  0  0  0.100634  0.102415  0  1.040027  0
H  H30  1  0.27411986  0.93614151  0.12886190  1  0  0.098102  0  0.969216  0  0  0.104957  0  1.038164  0  0  0.107796  0  1.037468  0  0  0.100629  0.102418  0  1.040015  0
C  C31  1  0.84573635  0.98543422  0.40991273  1  0  -0.403846  0  3.668827  0  0  -0.483933  0  3.900721  0  0  -0.489245  0  3.903889  0  0  -0.246613  -0.479903  0  3.897705  0
C  C32  1  0.15426394  0.01456809  0.59008616  1  0  -0.403857  0  3.668791  0  0  -0.483923  0  3.900689  0  0  -0.489235  0  3.903856  0  0  -0.246654  -0.479884  0  3.897679  0
C  C33  1  0.70919771  0.13186780  0.48759684  1  0  0.512108  0  3.788138  0  0  0.499244  0  4.05506  0  0  0.526437  0  4.059363  0  0  0.115574  0.481243  0  4.050975  0
C  C34  1  0.29080313  0.86813328  0.51240115  1  0  0.512144  0  3.788124  0  0  0.4992  0  4.055168  0  0  0.526392  0  4.05947  0  0  0.115551  0.481197  0  4.051079  0
C  C35  1  0.59761012  0.10225402  0.60619246  1  0  -0.480087  0  3.728076  0  0  -0.49954  0  3.986193  0  0  -0.525743  0  4.007461  0  0  -0.171004  -0.481591  0  3.970485  0
C  C36  1  0.40238948  0.89774706  0.39380676  1  0  -0.480211  0  3.728129  0  0  -0.499627  0  3.986279  0  0  -0.525829  0  4.007544  0  0  -0.171004  -0.481677  0  3.970572  0
C  C37  1  0.45053187  0.22105224  0.68557760  1  0  0.517105  0  3.778174  0  0  0.507425  0  4.038023  0  0  0.534658  0  4.042279  0  0  0.114257  0.489314  0  4.034244  0
C  C38  1  0.54946882  0.77894637  0.31442174  1  0  0.517202  0  3.778079  0  0  0.507499  0  4.037948  0  0  0.534732  0  4.042206  0  0  0.11428  0.489388  0  4.03417  0
C  C39  1  0.35447818  0.16187913  0.81285656  1  0  -0.409182  0  3.689579  0  0  -0.489475  0  3.925841  0  0  -0.494819  0  3.928047  0  0  -0.250387  -0.485254  0  3.923557  0
C  C40  1  0.64552182  0.83811826  0.18714310  1  0  -0.409215  0  3.689626  0  0  -0.489503  0  3.92588  0  0  -0.494849  0  3.928096  0  0  -0.250438  -0.485278  0  3.923602  0
C  C41  1  0.42315850  0.36033523  0.27742493  1  0  0.118161  0  3.710901  0  0  0.090356  0  3.9625  0  0  0.096096  0  3.980206  0  0  0.044019  0.086701  0  3.950209  0
C  C42  1  0.57684287  0.63966461  0.72257409  1  0  0.11817  0  3.710886  0  0  0.090364  0  3.962516  0  0  0.0961  0  3.980226  0  0  0.044014  0.086708  0  3.950228  0
C  C43  1  0.32249022  0.32012616  0.21509276  1  0  -0.156405  0  3.719863  0  0  -0.174402  0  3.967427  0  0  -0.180581  0  3.987083  0  0  -0.080433  -0.170603  0  3.953966  0
C  C44  1  0.67751047  0.67987246  0.78490658  1  0  -0.156347  0  3.719902  0  0  -0.174412  0  3.967459  0  0  -0.18059  0  3.987116  0  0  -0.080418  -0.170609  0  3.954003  0
C  C45  1  0.13484499  0.40205387  0.24653644  1  0  0.089761  0  3.791016  0  0  0.104443  0  4.022327  0  0  0.107003  0  4.043469  0  0  0.007246  0.103366  0  4.006092  0
C  C46  1  0.86515690  0.59794472  0.75346553  1  0  0.089717  0  3.791017  0  0  0.104431  0  4.022308  0  0  0.106991  0  4.043451  0  0  0.00722  0.103355  0  4.006074  0
C  C47  1  0.05885803  0.52969174  0.33342543  1  0  -0.160784  0  3.704987  0  0  -0.178038  0  3.949936  0  0  -0.185465  0  3.971582  0  0  -0.078575  -0.173112  0  3.934459  0
C  C48  1  0.94114617  0.47030436  0.66657738  1  0  -0.160777  0  3.705071  0  0  -0.178038  0  3.949999  0  0  -0.185465  0  3.971645  0  0  -0.078572  -0.173111  0  3.934519  0
C  C49  1  0.17009009  0.56293395  0.39074260  1  0  0.127269  0  3.715304  0  0  0.098733  0  3.968658  0  0  0.105351  0  3.986283  0  0  0.048812  0.094621  0  3.955746  0
C  C50  1  0.82991343  0.43706092  0.60926053  1  0  0.127226  0  3.715394  0  0  0.098697  0  3.968722  0  0  0.105316  0  3.986346  0  0  0.048798  0.094589  0  3.955808  0
C  C51  1  0.01962111  0.35526684  0.19440718  1  0  0.117806  0  3.647066  0  0  0.086119  0  3.903913  0  0  0.095467  0  3.912687  0  0  0.080745  0.080587  0  3.896591  0
C  C52  1  0.98037728  0.64473426  0.80559133  1  0  0.117858  0  3.64708  0  0  0.086152  0  3.903931  0  0  0.095501  0  3.912705  0  0  0.080788  0.080619  0  3.896609  0
C  C53  1  0.98475287  0.19336616  0.06018964  1  0  0.167894  0  3.815512  0  0  0.168303  0  4.063107  0  0  0.171993  0  4.087007  0  0  0.09581  0.16469  0  4.047946  0
C  C54  1  0.01524674  0.80663493  0.93980861  1  0  0.16794  0  3.815536  0  0  0.168314  0  4.06314  0  0  0.172006  0  4.087038  0  0  0.09579  0.164702  0  4.04798  0
C  C55  1  0.04863914  0.02280885  0.03399406  1  0  -0.00834  0  3.749851  0  0  0.005106  0  3.973097  0  0  0.003533  0  3.99771  0  0  -0.003069  0.007113  0  3.956303  0
C  C56  1  0.95135979  0.97719102  0.96600451  1  0  -0.008403  0  3.749873  0  0  0.005121  0  3.973059  0  0  0.003548  0  3.997671  0  0  -0.003054  0.007126  0  3.956265  0
C  C57  1  0.83124652  0.31032264  0.01850240  1  0  -0.15812  0  3.745877  0  0  -0.179662  0  4.000132  0  0  -0.184303  0  4.023169  0  0  -0.092936  -0.176841  0  3.984636  0
C  C58  1  0.16875309  0.68967845  0.98149682  1  0  -0.158064  0  3.745836  0  0  -0.179618  0  4.000081  0  0  -0.184264  0  4.023122  0  0  -0.092928  -0.176797  0  3.984586  0
C  C59  1  0.73807410  0.26357310  0.95083995  1  0  -0.064666  0  3.815136  0  0  -0.079891  0  4.072434  0  0  -0.082303  0  4.097191  0  0  -0.095794  -0.077304  0  4.054977  0
C  C60  1  0.26192305  0.73642799  0.04916170  1  0  -0.064779  0  3.815219  0  0  -0.080006  0  4.072524  0  0  -0.082421  0  4.09728  0  0  -0.095859  -0.077418  0  4.055068  0
C  C61  1  0.79636607  0.10038917  0.92474560  1  0  -0.099761  0  3.734057  0  0  -0.121977  0  3.986785  0  0  -0.125138  0  4.008985  0  0  -0.089885  -0.122252  0  3.973773  0
C  C62  1  0.20363108  0.89961192  0.07525605  1  0  -0.099721  0  3.734138  0  0  -0.121918  0  3.986876  0  0  -0.125077  0  4.009073  0  0  -0.089846  -0.122191  0  3.97386  0
N  N63  1  0.09018250  0.23519355  0.11706868  1  0  -0.319874  0  3.131414  0  0  -0.278437  0  3.398723  0  0  -0.292002  0  3.415403  0  0  -0.299429  -0.268461  0  3.386718  0
N  N64  1  0.90981764  0.76480630  0.88293060  1  0  -0.319974  0  3.131458  0  0  -0.278539  0  3.3988  0  0  -0.292104  0  3.415477  0  0  -0.29947  -0.268563  0  3.386796  0
N  N65  1  0.34819333  0.47717199  0.36685125  1  0  -0.307793  0  3.238611  0  0  -0.239192  0  3.50337  0  0  -0.254608  0  3.518701  0  0  -0.315125  -0.227556  0  3.492239  0
N  N66  1  0.65180911  0.52282536  0.63314983  1  0  -0.30774  0  3.238634  0  0  -0.239151  0  3.503403  0  0  -0.25457  0  3.518736  0  0  -0.315112  -0.227517  0  3.492274  0
O  O67  1  0.70585860  0.27326297  0.43738383  1  0  -0.588746  0  2.041416  0  0  -0.517724  0  2.289465  0  0  -0.54437  0  2.279908  0  0  -0.308491  -0.499613  0  2.295632  0
O  O68  1  0.29413979  0.72673813  0.56261467  1  0  -0.588735  0  2.041365  0  0  -0.517683  0  2.289446  0  0  -0.544336  0  2.279894  0  0  -0.308483  -0.499569  0  2.295609  0
O  O69  1  0.38647943  0.37789330  0.65947184  1  0  -0.58845  0  2.051949  0  0  -0.520274  0  2.302083  0  0  -0.54744  0  2.292661  0  0  -0.309387  -0.501474  0  2.307857  0
O  O70  1  0.61352071  0.62210654  0.34052840  1  0  -0.588462  0  2.051964  0  0  -0.520279  0  2.302094  0  0  -0.547447  0  2.292689  0  0  -0.309379  -0.501481  0  2.307876  0
