# generated using pymatgen
data_AlH7C14N2Cl2O5
_symmetry_space_group_name_H-M   'P 1'
_cell_length_a   6.67231658
_cell_length_b   16.97953933
_cell_length_c   16.97980923
_cell_angle_alpha   87.11888811
_cell_angle_beta   82.40757447
_cell_angle_gamma   82.40940155
_symmetry_Int_Tables_number   1
_chemical_formula_structural   AlH7C14N2Cl2O5
_chemical_formula_sum   'Al2 H14 C28 N4 Cl4 O10'
_cell_volume   1889.06296951
_cell_formula_units_Z   2
loop_
 _symmetry_equiv_pos_site_id
 _symmetry_equiv_pos_as_xyz
  1  'x, y, z'
loop_
 _atom_site_type_symbol
 _atom_site_label
 _atom_site_symmetry_multiplicity
 _atom_site_fract_x
 _atom_site_fract_y
 _atom_site_fract_z
 _atom_site_occupancy
 _atom_site_pbe_bader_charge
 _atom_site_pbe_bader_spin_density
 _atom_site_pbe_cm5_charge
 _atom_site_pbe_ddec_charge
 _atom_site_pbe_ddec_spin_density
 _atom_site_pbe_ddec_sum_bond_order
 _atom_site_pbe_magmom
Al  Al0  1  0.49999473  0.50000252  0.50000025  1  2.503737  0  0.395789  1.658727  0  2.55972  0
Al  Al1  1  0.99999789  0.49999804  0.49999810  1  2.503685  0  0.395789  1.658923  0  2.559399  0
H  H2  1  0.74998859  0.42403545  0.57597645  1  0.590508  0  0.35807  0.438822  0  0.83726  0
H  H3  1  0.24999760  0.57597491  0.42402928  1  0.590345  0  0.358083  0.438875  0  0.837197  0
H  H4  1  0.38130488  0.73829289  0.46659288  1  0.089377  0  0.106577  0.112027  0  1.004166  0
H  H5  1  0.31735121  0.88717542  0.46355329  1  0.104822  0  0.107942  0.113085  0  1.013322  0
H  H6  1  0.87101842  0.89222913  0.56650497  1  0.091051  0  0.113963  0.130411  0  0.992122  0
H  H7  1  0.12907898  0.10776493  0.43346505  1  0.090981  0  0.113929  0.130471  0  0.992204  0
H  H8  1  0.68265118  0.11283186  0.53647294  1  0.104623  0  0.108009  0.11313  0  1.013322  0
H  H9  1  0.61867434  0.26171137  0.53343646  1  0.089216  0  0.106493  0.111822  0  1.00423  0
H  H10  1  0.88128348  0.46657335  0.73829629  1  0.088928  0  0.106465  0.111842  0  1.004298  0
H  H11  1  0.81731239  0.46353180  0.88717283  1  0.104481  0  0.107989  0.113059  0  1.013327  0
H  H12  1  0.37097042  0.56650074  0.89222575  1  0.09102  0  0.113884  0.130303  0  0.992197  0
H  H13  1  0.62894637  0.43352265  0.10777479  1  0.092934  0  0.113949  0.130393  0  0.992115  0
H  H14  1  0.18268252  0.53643882  0.11281772  1  0.104702  0  0.107981  0.113121  0  1.013285  0
H  H15  1  0.11874149  0.53339788  0.26169738  1  0.089069  0  0.106496  0.111862  0  1.004208  0
C  C16  1  0.19421474  0.50783467  0.64290118  1  1.593422  0  0.264808  0.651176  0  4.095005  0
C  C17  1  0.30577717  0.35709097  0.49215737  1  1.593095  0  0.264704  0.650987  0  4.095086  0
C  C18  1  0.80578044  0.49216683  0.35709564  1  1.593505  0  0.264799  0.651093  0  4.095163  0
C  C19  1  0.69421357  0.64290574  0.50784402  1  1.593239  0  0.264741  0.651078  0  4.094939  0
C  C20  1  0.66445061  0.73123549  0.51449472  1  0.039596  0  -0.01006  -0.08987  0  3.913212  0
C  C21  1  0.48913783  0.77315476  0.48689725  1  -0.052833  0  -0.080227  -0.071088  0  3.990781  0
C  C22  1  0.45249767  0.85528151  0.48549935  1  0.035741  0  -0.08563  -0.149339  0  3.956005  0
C  C23  1  0.59392512  0.89828025  0.51323152  1  0.326992  0  0.091458  0.192894  0  4.039348  0
C  C24  1  0.76597748  0.85790903  0.54348908  1  -0.006552  0  -0.084342  -0.212064  0  3.930536  0
C  C25  1  0.80136971  0.77504331  0.54441036  1  0.114737  0  0.020547  0.138228  0  4.02768  0
C  C26  1  0.23410043  0.14208912  0.45648884  1  -0.006291  0  -0.084249  -0.212057  0  3.930334  0
C  C27  1  0.40613380  0.10171601  0.48676044  1  0.326662  0  0.091406  0.192662  0  4.039445  0
C  C28  1  0.54751762  0.14471874  0.51451179  1  0.035618  0  -0.085849  -0.149527  0  3.956109  0
C  C29  1  0.51086971  0.22684608  0.51311427  1  -0.052793  0  -0.079943  -0.070455  0  3.990318  0
C  C30  1  0.33556544  0.26876244  0.48550765  1  0.039816  0  -0.010235  -0.090264  0  3.9136  0
C  C31  1  0.19867993  0.22495356  0.45557793  1  0.115591  0  0.02054  0.13838  0  4.027542  0
C  C32  1  0.16442159  0.51448498  0.73123393  1  0.03984  0  -0.010334  -0.090394  0  3.913156  0
C  C33  1  0.98910165  0.48688742  0.77315812  1  -0.052717  0  -0.079912  -0.070489  0  3.990349  0
C  C34  1  0.95246071  0.48548635  0.85528455  1  0.035702  0  -0.085841  -0.149532  0  3.956091  0
C  C35  1  0.09387962  0.51322318  0.89827964  1  0.326422  0  0.091502  0.192779  0  4.039266  0
C  C36  1  0.26591933  0.54348608  0.85790531  1  -0.006247  0  -0.084328  -0.211952  0  3.930233  0
C  C37  1  0.30133157  0.54440487  0.77503953  1  0.115143  0  0.020822  0.138688  0  4.02722  0
C  C38  1  0.73401866  0.45652367  0.14209355  1  -0.008115  0  -0.084393  -0.212056  0  3.930358  0
C  C39  1  0.90607134  0.48677945  0.10171945  1  0.326643  0  0.091507  0.192962  0  4.0393  0
C  C40  1  0.04752533  0.51449730  0.14471237  1  0.035683  0  -0.085788  -0.149686  0  3.955917  0
C  C41  1  0.01089396  0.51309923  0.22683757  1  -0.05235  0  -0.080076  -0.07058  0  3.99027  0
C  C42  1  0.83556098  0.48551354  0.26876310  1  0.040087  0  -0.010295  -0.090289  0  3.913341  0
C  C43  1  0.69862034  0.45560846  0.22496021  1  0.114149  0  0.020785  0.13849  0  4.027474  0
N  N44  1  0.57721074  0.98208645  0.51437468  1  -0.517755  0  -0.145999  -0.131156  0  3.263837  0
N  N45  1  0.42285858  0.01791041  0.48561906  1  -0.464641  0  -0.145738  -0.130857  0  3.263775  0
N  N46  1  0.07716029  0.51436536  0.98208378  1  -0.51709  0  -0.145946  -0.131009  0  3.263974  0
N  N47  1  0.92278490  0.48563191  0.01791526  1  -0.465032  0  -0.145879  -0.13104  0  3.263908  0
Cl  Cl48  1  0.01108150  0.73021496  0.58671605  1  -0.183162  0  0.019437  -0.042599  0  1.542008  0
Cl  Cl49  1  0.98898124  0.26977428  0.41325776  1  -0.1836  0  0.01945  -0.042658  0  1.541644  0
Cl  Cl50  1  0.51105370  0.58671143  0.73021426  1  -0.182946  0  0.019364  -0.042784  0  1.541784  0
Cl  Cl51  1  0.48889513  0.41330661  0.26979132  1  -0.183144  0  0.019413  -0.042644  0  1.541968  0
O  O52  1  0.37579818  0.49392353  0.60845794  1  -1.255507  0  -0.237032  -0.602322  0  2.383199  0
O  O53  1  0.12417339  0.39153835  0.50607744  1  -1.255094  0  -0.237006  -0.602262  0  2.382707  0
O  O54  1  0.96711000  0.48669972  0.39057573  1  -1.257564  0  -0.233984  -0.590973  0  2.356876  0
O  O55  1  0.53290220  0.60941970  0.51330410  1  -1.257525  0  -0.233936  -0.590952  0  2.35717  0
O  O56  1  0.62420075  0.50608033  0.39154211  1  -1.255544  0  -0.236933  -0.60226  0  2.383301  0
O  O57  1  0.87581229  0.60845541  0.49392023  1  -1.255363  0  -0.237014  -0.602387  0  2.38288  0
O  O58  1  0.03288664  0.51329288  0.60941905  1  -1.25749  0  -0.233953  -0.59106  0  2.356898  0
O  O59  1  0.46707468  0.39058233  0.48670072  1  -1.257544  0  -0.233866  -0.590895  0  2.357166  0
O  O60  1  0.74999504  0.46535773  0.53463382  1  -1.392204  0  -0.448939  -0.99437  0  2.210381  0
O  O61  1  0.24999619  0.53464200  0.46536093  1  -1.392069  0  -0.448965  -0.99442  0  2.21032  0
