# generated using pymatgen
data_BiH12C18(NO2)3
_symmetry_space_group_name_H-M   'P 1'
_cell_length_a   7.74666755
_cell_length_b   10.95201972
_cell_length_c   11.15530150
_cell_angle_alpha   116.43402374
_cell_angle_beta   89.99974105
_cell_angle_gamma   90.00015408
_symmetry_Int_Tables_number   1
_chemical_formula_structural   BiH12C18(NO2)3
_chemical_formula_sum   'Bi2 H24 C36 N6 O12'
_cell_volume   847.48224500
_cell_formula_units_Z   2
loop_
 _symmetry_equiv_pos_site_id
 _symmetry_equiv_pos_as_xyz
  1  'x, y, z'
loop_
 _atom_site_type_symbol
 _atom_site_label
 _atom_site_symmetry_multiplicity
 _atom_site_fract_x
 _atom_site_fract_y
 _atom_site_fract_z
 _atom_site_occupancy
 _atom_site_pbe_bader_spin_density
 _atom_site_pbe_cm5_charge
 _atom_site_pbe_ddec_charge
 _atom_site_pbe_ddec_spin_density
 _atom_site_pbe_ddec_sum_bond_order
 _atom_site_pbe_magmom
Bi  Bi0  1  0.26000385  0.47833474  0.53971154  1  0  0.890738  1.346579  0  2.618336  0
Bi  Bi1  1  0.76000758  0.52166706  0.46028868  1  0  0.890709  1.346527  0  2.618344  0
H  H2  1  0.50208881  0.94547229  0.34459011  1  0  0.106828  0.114873  0  1.012608  0
H  H3  1  0.00208920  0.05452833  0.65541041  1  0  0.106821  0.11488  0  1.012618  0
H  H4  1  0.22022038  0.82071458  0.31505990  1  0  0.106559  0.112326  0  1.033096  0
H  H5  1  0.72022265  0.17928312  0.68493776  1  0  0.106553  0.112309  0  1.033057  0
H  H6  1  0.94243557  0.95886251  0.35587217  1  0  0.10793  0.116503  0  1.000385  0
H  H7  1  0.44243985  0.04113328  0.64412397  1  0  0.107941  0.116509  0  1.000452  0
H  H8  1  0.96264130  0.20694851  0.43228981  1  0  0.113616  0.094363  0  1.050737  0
H  H9  1  0.46264375  0.79304934  0.56770984  1  0  0.113604  0.094319  0  1.050795  0
H  H10  1  0.49807127  0.89858717  0.02123497  1  0  0.109891  0.118507  0  1.013523  0
H  H11  1  0.99807005  0.10141069  0.97876099  1  0  0.1099  0.118507  0  1.013505  0
H  H12  1  0.21191452  0.99909832  0.12914553  1  0  0.106317  0.108118  0  1.024143  0
H  H13  1  0.71191233  0.00090141  0.87085484  1  0  0.10631  0.108108  0  1.024118  0
H  H14  1  0.93943527  0.88491316  0.00537961  1  0  0.111175  0.118788  0  1.004462  0
H  H15  1  0.43943498  0.11508773  0.99461875  1  0  0.111147  0.118729  0  1.00443  0
H  H16  1  0.96352662  0.68830945  0.78197784  1  0  0.113714  0.088217  0  1.057762  0
H  H17  1  0.46352952  0.31169451  0.21802089  1  0  0.113737  0.088254  0  1.057719  0
H  H18  1  0.00406910  0.34198364  0.91512899  1  0  0.109307  0.116658  0  1.012408  0
H  H19  1  0.50407319  0.65801494  0.08487602  1  0  0.109321  0.116653  0  1.012429  0
H  H20  1  0.28235808  0.31378569  0.01594646  1  0  0.10915  0.115378  0  1.039149  0
H  H21  1  0.78236032  0.68621306  0.98405595  1  0  0.10917  0.115381  0  1.03914  0
H  H22  1  0.56354968  0.34197451  0.91306412  1  0  0.109373  0.113878  0  1.005756  0
H  H23  1  0.06355344  0.65802716  0.08693578  1  0  0.109374  0.113851  0  1.005786  0
H  H24  1  0.55077331  0.40086307  0.72210609  1  0  0.119166  0.1049  0  1.045738  0
H  H25  1  0.05077819  0.59913656  0.27789384  1  0  0.119135  0.104837  0  1.045757  0
C  C26  1  0.37890510  0.13882886  0.40595537  1  0  0.10804  0.09232  0  3.975686  0
C  C27  1  0.87890536  0.86117098  0.59404721  1  0  0.108057  0.092355  0  3.975684  0
C  C28  1  0.37858284  0.99812835  0.36333265  1  0  -0.076362  -0.128704  0  3.944052  0
C  C29  1  0.87858347  0.00187148  0.63666814  1  0  -0.076401  -0.128789  0  3.944126  0
C  C30  1  0.22153072  0.93026755  0.34654275  1  0  -0.066527  -0.031718  0  3.948866  0
C  C31  1  0.72153149  0.06973015  0.65345491  1  0  -0.066524  -0.031655  0  3.948813  0
C  C32  1  0.06954743  0.00564948  0.36975722  1  0  -0.078304  -0.112876  0  3.942342  0
C  C33  1  0.56954795  0.99435118  0.63023952  1  0  -0.078264  -0.11287  0  3.942281  0
C  C34  1  0.07993783  0.14617740  0.41283070  1  0  0.043755  0.091643  0  3.919375  0
C  C35  1  0.57994068  0.85381817  0.58716916  1  0  0.04376  0.091724  0  3.919161  0
C  C36  1  0.54760482  0.21457634  0.42369188  1  0  0.205476  0.534063  0  4.247176  0
C  C37  1  0.04760588  0.78542329  0.57630896  1  0  0.205484  0.53406  0  4.247073  0
C  C38  1  0.37787212  0.74707097  0.84487069  1  0  0.110301  0.098379  0  3.972997  0
C  C39  1  0.87787552  0.25292784  0.15512517  1  0  0.110343  0.098309  0  3.972999  0
C  C40  1  0.37565418  0.85635823  0.97273260  1  0  -0.07779  -0.133495  0  3.944217  0
C  C41  1  0.87565671  0.14364160  0.02726371  1  0  -0.077792  -0.133441  0  3.94426  0
C  C42  1  0.21742800  0.90983361  0.03238078  1  0  -0.066535  -0.029843  0  3.961043  0
C  C43  1  0.71742939  0.09016714  0.96762002  1  0  -0.066534  -0.029901  0  3.961046  0
C  C44  1  0.06678073  0.84822259  0.96385019  1  0  -0.077485  -0.115939  0  3.941654  0
C  C45  1  0.56678324  0.15177909  0.03614880  1  0  -0.077416  -0.115788  0  3.941455  0
C  C46  1  0.07959419  0.73731248  0.83768006  1  0  0.044457  0.093361  0  3.926993  0
C  C47  1  0.57959758  0.26269124  0.16231709  1  0  0.044379  0.093327  0  3.926947  0
C  C48  1  0.54733479  0.69440628  0.77324361  1  0  0.210723  0.53641  0  4.242933  0
C  C49  1  0.04733761  0.30559131  0.22675366  1  0  0.21075  0.536528  0  4.242888  0
C  C50  1  0.13184589  0.38674741  0.76928410  1  0  0.110299  0.085841  0  3.971821  0
C  C51  1  0.63185016  0.61325431  0.23072098  1  0  0.110236  0.085857  0  3.971686  0
C  C52  1  0.12870091  0.35326110  0.87610167  1  0  -0.072584  -0.12091  0  3.931625  0
C  C53  1  0.62870599  0.64673756  0.12390119  1  0  -0.072569  -0.120874  0  3.931622  0
C  C54  1  0.28418046  0.33736472  0.93073749  1  0  -0.061455  -0.023187  0  3.920982  0
C  C55  1  0.78418467  0.66263607  0.06926580  1  0  -0.061418  -0.023158  0  3.920985  0
C  C56  1  0.43840699  0.35345247  0.87481043  1  0  -0.074172  -0.10864  0  3.9394  0
C  C57  1  0.93841077  0.64654740  0.12519108  1  0  -0.074199  -0.108622  0  3.939467  0
C  C58  1  0.43273786  0.38623705  0.76750746  1  0  0.050182  0.091208  0  3.893867  0
C  C59  1  0.93274212  0.61376282  0.23249227  1  0  0.050195  0.091278  0  3.893971  0
C  C60  1  0.96550911  0.40911857  0.71018417  1  0  0.21568  0.538195  0  4.229217  0
C  C61  1  0.46551518  0.59088438  0.28982039  1  0  0.215623  0.538143  0  4.229181  0
N  N62  1  0.23157857  0.21153951  0.43196302  1  0  -0.296451  -0.268509  0  3.488472  0
N  N63  1  0.73158131  0.78845820  0.56803909  1  0  -0.296473  -0.268573  0  3.488401  0
N  N64  1  0.23194237  0.68859347  0.77895103  1  0  -0.294449  -0.261697  0  3.481655  0
N  N65  1  0.73194686  0.31140831  0.22104659  1  0  -0.294459  -0.261746  0  3.481613  0
N  N66  1  0.28212749  0.40282080  0.71715435  1  0  -0.294855  -0.252218  0  3.540518  0
N  N67  1  0.78213265  0.59718000  0.28284805  1  0  -0.294819  -0.252256  0  3.540508  0
O  O68  1  0.68522009  0.14958921  0.39467454  1  0  -0.308025  -0.512657  0  2.138592  0
O  O69  1  0.18522380  0.85041357  0.60532813  1  0  -0.308037  -0.512674  0  2.138463  0
O  O70  1  0.53330200  0.34582594  0.46834114  1  0  -0.293204  -0.578233  0  2.387874  0
O  O71  1  0.03330415  0.65417367  0.53165795  1  0  -0.293186  -0.578212  0  2.387974  0
O  O72  1  0.68491128  0.74610734  0.83171059  1  0  -0.304147  -0.52316  0  2.18621  0
O  O73  1  0.18491428  0.25389135  0.16828762  1  0  -0.304196  -0.52326  0  2.186149  0
O  O74  1  0.53441849  0.59870928  0.65220053  1  0  -0.287112  -0.567572  0  2.400878  0
O  O75  1  0.03442088  0.40128830  0.34779587  1  0  -0.287099  -0.567542  0  2.400867  0
O  O76  1  0.82605284  0.39238885  0.75556160  1  0  -0.296837  -0.498682  0  2.164902  0
O  O77  1  0.32605410  0.60761605  0.24444336  1  0  -0.296795  -0.498661  0  2.164842  0
O  O78  1  0.98298281  0.44599982  0.61494235  1  0  -0.286387  -0.562452  0  2.357124  0
O  O79  1  0.48298425  0.55399907  0.38505948  1  0  -0.286367  -0.56244  0  2.357149  0
