# generated using pymatgen
data_AgH6C10NO2
_symmetry_space_group_name_H-M   'P 1'
_cell_length_a   9.22221617
_cell_length_b   9.66402180
_cell_length_c   9.66397467
_cell_angle_alpha   95.68067913
_cell_angle_beta   99.84211486
_cell_angle_gamma   99.84095939
_symmetry_Int_Tables_number   1
_chemical_formula_structural   AgH6C10NO2
_chemical_formula_sum   'Ag4 H24 C40 N4 O8'
_cell_volume   828.80391873
_cell_formula_units_Z   4
loop_
 _symmetry_equiv_pos_site_id
 _symmetry_equiv_pos_as_xyz
  1  'x, y, z'
loop_
 _atom_site_type_symbol
 _atom_site_label
 _atom_site_symmetry_multiplicity
 _atom_site_fract_x
 _atom_site_fract_y
 _atom_site_fract_z
 _atom_site_occupancy
 _atom_site_pbe_bader_charge
 _atom_site_pbe_bader_spin_density
 _atom_site_pbe_cm5_charge
 _atom_site_pbe_ddec_charge
 _atom_site_pbe_ddec_spin_density
 _atom_site_pbe_ddec_sum_bond_order
 _atom_site_pbe_magmom
Ag  Ag0  1  0.94448592  0.11032367  0.93436785  1  0.593175  0  0.415779  0.398587  0  1.942948  0
Ag  Ag1  1  0.55552424  0.06563420  0.88968532  1  0.593255  0  0.415752  0.39854  0  1.942999  0
Ag  Ag2  1  0.05552386  0.88967636  0.06563384  1  0.594057  0  0.415794  0.398585  0  1.942998  0
Ag  Ag3  1  0.44447564  0.93436584  0.11031372  1  0.592357  0  0.415767  0.398555  0  1.943003  0
H  H4  1  0.41026169  0.28639068  0.76059682  1  0.143396  0  0.112353  0.089453  0  1.030887  0
H  H5  1  0.08973860  0.23940201  0.71360882  1  0.143352  0  0.112356  0.089495  0  1.030824  0
H  H6  1  0.58973818  0.71360936  0.23940429  1  0.143401  0  0.112353  0.089457  0  1.030897  0
H  H7  1  0.91025996  0.76059697  0.28639093  1  0.1433  0  0.11236  0.089481  0  1.030847  0
H  H8  1  0.34801514  0.40621158  0.54486064  1  0.070156  0  0.100095  0.100081  0  1.033776  0
H  H9  1  0.15198406  0.45514036  0.59378815  1  0.070406  0  0.100089  0.100075  0  1.03375  0
H  H10  1  0.65197531  0.59377998  0.45514016  1  0.070394  0  0.100112  0.100088  0  1.033688  0
H  H11  1  0.84801691  0.54485967  0.40621210  1  0.070166  0  0.100093  0.100073  0  1.03377  0
H  H12  1  0.47171369  0.35920440  0.33903078  1  0.088654  0  0.104988  0.103518  0  1.014369  0
H  H13  1  0.02828602  0.66096746  0.64080599  1  0.088767  0  0.104995  0.103506  0  1.014435  0
H  H14  1  0.52828420  0.64079670  0.66096597  1  0.088563  0  0.104963  0.103443  0  1.014428  0
H  H15  1  0.97171385  0.33903258  0.35919305  1  0.088763  0  0.104972  0.103454  0  1.014472  0
H  H16  1  0.74221239  0.99973750  0.67004831  1  0.117346  0  0.102662  0.120584  0  1.037798  0
H  H17  1  0.75779685  0.32995118  0.00026146  1  0.117354  0  0.102646  0.120553  0  1.037829  0
H  H18  1  0.25779628  0.00026254  0.32995216  1  0.11736  0  0.102645  0.120557  0  1.037807  0
H  H19  1  0.24220281  0.67004780  0.99973847  1  0.117358  0  0.10263  0.120538  0  1.037827  0
H  H20  1  0.87319385  0.95136659  0.47091213  1  0.070708  0  0.103797  0.106474  0  1.01797  0
H  H21  1  0.62680527  0.52909611  0.04862544  1  0.070784  0  0.103771  0.106486  0  1.017963  0
H  H22  1  0.12681415  0.04863556  0.52909672  1  0.07106  0  0.103786  0.106473  0  1.017918  0
H  H23  1  0.37319412  0.47091240  0.95137436  1  0.071135  0  0.103808  0.106463  0  1.017953  0
H  H24  1  0.65372098  0.23587359  0.23430830  1  0.110407  0  0.106933  0.1183  0  1.016001  0
H  H25  1  0.84628032  0.76568932  0.76412726  1  0.110437  0  0.106917  0.118241  0  1.015984  0
H  H26  1  0.34627999  0.76412644  0.76569091  1  0.110412  0  0.106935  0.118292  0  1.015952  0
H  H27  1  0.15371934  0.23430965  0.23587371  1  0.110419  0  0.106953  0.118297  0  1.015975  0
C  C28  1  0.46091684  0.26678515  0.66812431  1  0.469155  0  0.049806  0.106046  0  3.953465  0
C  C29  1  0.03908766  0.33187611  0.73321599  1  0.469016  0  0.049803  0.10602  0  3.953337  0
C  C30  1  0.53908304  0.73321489  0.33187576  1  0.469081  0  0.049803  0.106025  0  3.953444  0
C  C31  1  0.96091222  0.66812392  0.26678408  1  0.469093  0  0.049807  0.106039  0  3.95337  0
C  C32  1  0.42691678  0.33428702  0.54725963  1  -0.051424  0  -0.096367  -0.146122  0  4.009426  0
C  C33  1  0.07308521  0.45273847  0.66571420  1  -0.041896  0  -0.09636  -0.14611  0  4.009323  0
C  C34  1  0.57308178  0.66571195  0.45273909  1  -0.051322  0  -0.096364  -0.146079  0  4.00927  0
C  C35  1  0.92691576  0.54726157  0.33428708  1  -0.041911  0  -0.096378  -0.146153  0  4.009394  0
C  C36  1  0.49559683  0.30895465  0.43422929  1  0.000885  0  -0.063595  -0.058017  0  3.938032  0
C  C37  1  0.00440538  0.56576719  0.69105173  1  -0.008686  0  -0.063558  -0.058006  0  3.938033  0
C  C38  1  0.50439712  0.69104326  0.56576547  1  0.000983  0  -0.063603  -0.05801  0  3.938026  0
C  C39  1  0.99559318  0.43423179  0.30894802  1  -0.008707  0  -0.063508  -0.057848  0  3.937992  0
C  C40  1  0.59777490  0.21514250  0.44180214  1  -0.079032  0  -0.006912  0.036911  0  3.986738  0
C  C41  1  0.90223361  0.55819863  0.78486759  1  -0.079697  0  -0.006901  0.036945  0  3.986589  0
C  C42  1  0.40222388  0.78485754  0.55819465  1  -0.079043  0  -0.006884  0.03694  0  3.986724  0
C  C43  1  0.09776626  0.44180140  0.21513352  1  -0.079392  0  -0.006938  0.036822  0  3.986765  0
C  C44  1  0.62429236  0.14860170  0.56767639  1  0.442554  0  0.1127  0.200632  0  3.972417  0
C  C45  1  0.87571007  0.43232259  0.85140056  1  0.443122  0  0.112652  0.200624  0  3.972361  0
C  C46  1  0.37570663  0.85139940  0.43232157  1  0.442501  0  0.112667  0.200604  0  3.972373  0
C  C47  1  0.12428870  0.56767744  0.14860036  1  0.442811  0  0.112656  0.200637  0  3.972367  0
C  C48  1  0.72413015  0.05197554  0.57531532  1  -0.024661  0  -0.085612  -0.151985  0  3.937625  0
C  C49  1  0.77587562  0.42468596  0.94802616  1  -0.024695  0  -0.085586  -0.151999  0  3.937718  0
C  C50  1  0.27587083  0.94802449  0.42468493  1  -0.024707  0  -0.085583  -0.15193  0  3.937588  0
C  C51  1  0.22412425  0.57531408  0.05197391  1  -0.024684  0  -0.085567  -0.151938  0  3.937591  0
C  C52  1  0.79575100  0.02486951  0.46445383  1  -0.027453  0  -0.081363  -0.07473  0  3.958825  0
C  C53  1  0.70425115  0.53554592  0.97512827  1  -0.027439  0  -0.081318  -0.074652  0  3.958849  0
C  C54  1  0.20425086  0.97512947  0.53554646  1  -0.027432  0  -0.081358  -0.074708  0  3.958793  0
C  C55  1  0.29574763  0.46445411  0.02487162  1  -0.027433  0  -0.081344  -0.074658  0  3.958843  0
C  C56  1  0.77170682  0.09190081  0.34029094  1  0.013067  0  -0.021119  -0.045684  0  3.996607  0
C  C57  1  0.72829556  0.65970880  0.90809888  1  0.012882  0  -0.021192  -0.04583  0  3.996667  0
C  C58  1  0.22829394  0.90809816  0.65970813  1  0.012905  0  -0.021147  -0.045761  0  3.996697  0
C  C59  1  0.27170431  0.34029124  0.09190223  1  0.012902  0  -0.021167  -0.045791  0  3.996666  0
C  C60  1  0.67281782  0.18488545  0.32971766  1  -0.047106  0  -0.082272  -0.140578  0  3.96159  0
C  C61  1  0.82718955  0.67028449  0.81512175  1  -0.047017  0  -0.082231  -0.140458  0  3.961465  0
C  C62  1  0.32718294  0.81511352  0.67028141  1  -0.047016  0  -0.082259  -0.140533  0  3.961512  0
C  C63  1  0.17281274  0.32971661  0.18488295  1  -0.046999  0  -0.082284  -0.140524  0  3.961556  0
C  C64  1  0.85223901  0.06393753  0.22060074  1  1.545135  0  0.198381  0.551073  0  4.223491  0
C  C65  1  0.64776326  0.77939879  0.93606116  1  1.54543  0  0.198384  0.551022  0  4.223666  0
C  C66  1  0.14776396  0.93606145  0.77939870  1  1.54546  0  0.198415  0.551054  0  4.22361  0
C  C67  1  0.35223661  0.22060124  0.06393891  1  1.545433  0  0.198392  0.551025  0  4.223662  0
N  N68  1  0.55533940  0.17703842  0.67918037  1  -1.167419  0  -0.325073  -0.269463  0  3.469704  0
N  N69  1  0.94466303  0.32081956  0.82296080  1  -1.167242  0  -0.325101  -0.269498  0  3.469653  0
N  N70  1  0.44465937  0.82296162  0.32081848  1  -1.1674  0  -0.325088  -0.269476  0  3.46968  0
N  N71  1  0.05533684  0.67918048  0.17703927  1  -1.167267  0  -0.325105  -0.269507  0  3.469679  0
O  O72  1  0.82697647  0.13226243  0.11559628  1  -1.134149  0  -0.325066  -0.532013  0  2.453279  0
O  O73  1  0.67302368  0.88440268  0.86773728  1  -1.134168  0  -0.325025  -0.531935  0  2.453373  0
O  O74  1  0.17302429  0.86773654  0.88440383  1  -1.134201  0  -0.325053  -0.531965  0  2.45336  0
O  O75  1  0.32697619  0.11559736  0.13226383  1  -1.13417  0  -0.325039  -0.531946  0  2.453351  0
O  O76  1  0.94100711  0.97677847  0.23495456  1  -1.133691  0  -0.320105  -0.513049  0  2.358198  0
O  O77  1  0.55899880  0.76504524  0.02322193  1  -1.133966  0  -0.320107  -0.513021  0  2.35829  0
O  O78  1  0.05899958  0.02322262  0.76504570  1  -1.133964  0  -0.32014  -0.513078  0  2.358356  0
O  O79  1  0.44100107  0.23495480  0.97677814  1  -1.133968  0  -0.320102  -0.513013  0  2.358283  0
