# generated using pymatgen
data_CdH10C12(N3O4)2
_symmetry_space_group_name_H-M   'P 1'
_cell_length_a   7.21659365
_cell_length_b   15.47534923
_cell_length_c   15.43750000
_cell_angle_alpha   92.19721097
_cell_angle_beta   102.74862669
_cell_angle_gamma   103.10209109
_symmetry_Int_Tables_number   1
_chemical_formula_structural   CdH10C12(N3O4)2
_chemical_formula_sum   'Cd4 H40 C48 N24 O32'
_cell_volume   1630.67213368
_cell_formula_units_Z   4
loop_
 _symmetry_equiv_pos_site_id
 _symmetry_equiv_pos_as_xyz
  1  'x, y, z'
loop_
 _atom_site_type_symbol
 _atom_site_label
 _atom_site_symmetry_multiplicity
 _atom_site_fract_x
 _atom_site_fract_y
 _atom_site_fract_z
 _atom_site_occupancy
 _atom_site_hle17_bader_spin_density
 _atom_site_hle17_ddec_charge
 _atom_site_hle17_ddec_spin_density
 _atom_site_hle17_ddec_sum_bond_order
 _atom_site_hle17_magmom
 _atom_site_hse06_10hf_bader_spin_density
 _atom_site_hse06_10hf_ddec_charge
 _atom_site_hse06_10hf_ddec_spin_density
 _atom_site_hse06_10hf_ddec_sum_bond_order
 _atom_site_hse06_10hf_magmom
 _atom_site_hse06_bader_spin_density
 _atom_site_hse06_ddec_charge
 _atom_site_hse06_ddec_spin_density
 _atom_site_hse06_ddec_sum_bond_order
 _atom_site_hse06_magmom
 _atom_site_pbe_bader_charge
 _atom_site_pbe_bader_spin_density
 _atom_site_pbe_cm5_charge
 _atom_site_pbe_ddec_charge
 _atom_site_pbe_ddec_spin_density
 _atom_site_pbe_ddec_sum_bond_order
 _atom_site_pbe_magmom
Cd  Cd0  1  0.86268050  0.75938774  0.54750416  1  0  1.152799  0  1.63042  0  0  0.953195  0  2.084049  0  0  1.010284  0  2.030064  0  1.313182  0  0.791411  0.912224  0  2.121245  0
Cd  Cd1  1  0.36182415  0.54680697  0.75939547  1  0  1.153146  0  1.63252  0  0  0.953344  0  2.085855  0  0  1.010198  0  2.032026  0  1.312225  0  0.791566  0.912449  0  2.12303  0
Cd  Cd2  1  0.20901751  0.89107504  0.09649484  1  0  1.152021  0  1.639404  0  0  0.950989  0  2.094832  0  0  1.008669  0  2.040317  0  1.307137  0  0.794285  0.909661  0  2.132361  0
Cd  Cd3  1  0.70961603  0.09627416  0.89105586  1  0  1.151372  0  1.639525  0  0  0.950318  0  2.094707  0  0  1.007899  0  2.040341  0  1.306507  0  0.794717  0.90898  0  2.132197  0
H  H4  1  0.00425746  0.89477061  0.72177284  1  0  0.098633  0  0.955512  0  0  0.100151  0  1.027831  0  0  0.103561  0  1.02341  0  0.177669  0  0.120833  0.097482  0  1.031229  0
H  H5  1  0.50116948  0.72063020  0.89473026  1  0  0.099918  0  0.953238  0  0  0.100367  0  1.026748  0  0  0.103754  0  1.022366  0  0.175973  0  0.120704  0.097713  0  1.030121  0
H  H6  1  0.13587145  0.05611062  0.77141625  1  0  0.124788  0  0.952061  0  0  0.130857  0  1.014382  0  0  0.134157  0  1.012968  0  0.146347  0  0.112385  0.128404  0  1.015682  0
H  H7  1  0.63476750  0.77059441  0.05606411  1  0  0.125008  0  0.951231  0  0  0.131654  0  1.013136  0  0  0.134979  0  1.011709  0  0.121622  0  0.112944  0.129204  0  1.014429  0
H  H8  1  0.22216986  0.16248996  0.65894258  1  0  0.114209  0  0.918225  0  0  0.124364  0  0.977131  0  0  0.12803  0  0.973384  0  0.115579  0  0.115991  0.121645  0  0.979895  0
H  H9  1  0.72270084  0.65879631  0.16223765  1  0  0.114671  0  0.918527  0  0  0.125113  0  0.977053  0  0  0.128774  0  0.973315  0  0.093538  0  0.116056  0.122393  0  0.979828  0
H  H10  1  0.02054317  0.93679194  0.45907532  1  0  0.099293  0  0.934068  0  0  0.105554  0  1.000804  0  0  0.10834  0  0.997827  0  0.103476  0  0.121442  0.103514  0  1.002924  0
H  H11  1  0.51960133  0.45883352  0.93648870  1  0  0.098975  0  0.934468  0  0  0.10531  0  1.001019  0  0  0.108076  0  0.998095  0  0.143774  0  0.121034  0.103261  0  1.003165  0
H  H12  1  0.23470531  0.99981060  0.27178632  1  0  0.09771  0  0.942802  0  0  0.101169  0  1.013266  0  0  0.105103  0  1.008189  0  0.144206  0  0.120782  0.098309  0  1.01688  0
H  H13  1  0.73513235  0.27174661  0.99886250  1  0  0.098043  0  0.943398  0  0  0.102218  0  1.012869  0  0  0.106145  0  1.007833  0  0.152643  0  0.120831  0.099266  0  1.016588  0
H  H14  1  0.26561502  0.27934632  0.23755954  1  0  0.110327  0  0.974682  0  0  0.110169  0  1.051178  0  0  0.114816  0  1.046443  0  0.20067  0  0.108918  0.106793  0  1.054511  0
H  H15  1  0.76527464  0.23850643  0.27916697  1  0  0.111142  0  0.975776  0  0  0.110929  0  1.052175  0  0  0.115608  0  1.047409  0  0.168113  0  0.108951  0.107505  0  1.055575  0
H  H16  1  0.28160983  0.24596688  0.07966076  1  0  0.115313  0  0.932905  0  0  0.12412  0  0.99006  0  0  0.127073  0  0.9899  0  0.088869  0  0.110024  0.122003  0  0.990302  0
H  H17  1  0.78127984  0.08106873  0.24625742  1  0  0.116718  0  0.931931  0  0  0.125646  0  0.988394  0  0  0.128647  0  0.98819  0  0.091619  0  0.110617  0.123513  0  0.988662  0
H  H18  1  0.26725222  0.09017906  0.02517360  1  0  0.094763  0  0.943201  0  0  0.099988  0  1.011161  0  0  0.102378  0  1.008329  0  0.14878  0  0.119155  0.098116  0  1.013362  0
H  H19  1  0.76776096  0.02620486  0.09024120  1  0  0.095045  0  0.941837  0  0  0.100411  0  1.010172  0  0  0.102857  0  1.007194  0  0.159331  0  0.118829  0.098518  0  1.012381  0
H  H20  1  0.76772502  0.55848740  0.61741803  1  0  0.095982  0  0.955867  0  0  0.100692  0  1.025074  0  0  0.103656  0  1.021407  0  0.15305  0  0.117224  0.098432  0  1.027825  0
H  H21  1  0.26879041  0.61754595  0.55926609  1  0  0.09614  0  0.954664  0  0  0.100874  0  1.023501  0  0  0.1038  0  1.019897  0  0.149348  0  0.117612  0.098649  0  1.026189  0
H  H22  1  0.57174847  0.40360848  0.56177320  1  0  0.11345  0  0.93208  0  0  0.122743  0  0.988402  0  0  0.125502  0  0.988596  0  0.080513  0  0.109535  0.120726  0  0.988499  0
H  H23  1  0.07361590  0.56254880  0.40407329  1  0  0.113785  0  0.932244  0  0  0.122764  0  0.988902  0  0  0.125576  0  0.989007  0  0.085119  0  0.10945  0.120739  0  0.989027  0
H  H24  1  0.37662692  0.37237003  0.40374126  1  0  0.109803  0  0.978712  0  0  0.109873  0  1.055122  0  0  0.114545  0  1.050273  0  0.189243  0  0.108784  0.106491  0  1.058554  0
H  H25  1  0.87773919  0.40466265  0.37213824  1  0  0.1105  0  0.977784  0  0  0.110505  0  1.054121  0  0  0.115176  0  1.04928  0  0.18359  0  0.108649  0.107061  0  1.057621  0
H  H26  1  0.59167590  0.65200621  0.37235989  1  0  0.094916  0  0.941602  0  0  0.099558  0  1.010869  0  0  0.103263  0  1.006079  0  0.141101  0  0.120338  0.096794  0  1.014407  0
H  H27  1  0.09047612  0.37193956  0.65163535  1  0  0.094837  0  0.940501  0  0  0.09913  0  1.010197  0  0  0.102791  0  1.005465  0  0.142205  0  0.120095  0.096387  0  1.013729  0
H  H28  1  0.28000369  0.71471568  0.18151316  1  0  0.097661  0  0.935578  0  0  0.105468  0  0.999981  0  0  0.108157  0  0.997277  0  0.116702  0  0.121733  0.103486  0  1.001973  0
H  H29  1  0.78059834  0.18105446  0.71440754  1  0  0.098215  0  0.935753  0  0  0.105033  0  1.001241  0  0  0.107698  0  0.998568  0  0.118488  0  0.12188  0.103069  0  1.003223  0
H  H30  1  0.04134329  0.48831415  0.98334461  1  0  0.113525  0  0.922405  0  0  0.123784  0  0.98178  0  0  0.127452  0  0.97796  0  0.14232  0  0.115133  0.121069  0  0.98459  0
H  H31  1  0.53987511  0.98277071  0.48803620  1  0  0.114414  0  0.921818  0  0  0.124887  0  0.980767  0  0  0.128474  0  0.977039  0  0.116263  0  0.115714  0.122226  0  0.983505  0
H  H32  1  0.95370428  0.59607284  0.87156570  1  0  0.125017  0  0.94626  0  0  0.131521  0  1.009091  0  0  0.134556  0  1.008052  0  0.157139  0  0.11345  0.129275  0  1.010074  0
H  H33  1  0.45388753  0.87109189  0.59643155  1  0  0.124049  0  0.947081  0  0  0.130447  0  1.010188  0  0  0.133579  0  1.009036  0  0.153421  0  0.112819  0.12815  0  1.011266  0
H  H34  1  0.04134615  0.75798175  0.92146423  1  0  0.101454  0  0.968202  0  0  0.105209  0  1.03827  0  0  0.108201  0  1.034318  0  0.191384  0  0.121873  0.102935  0  1.041195  0
H  H35  1  0.54347513  0.92096348  0.75865270  1  0  0.102982  0  0.966317  0  0  0.105589  0  1.037377  0  0  0.108583  0  1.03343  0  0.184998  0  0.121873  0.103281  0  1.040361  0
H  H36  1  0.61455893  0.83995938  0.40770412  1  0  0.421984  0  0.876264  0  0  0.388542  0  0.944249  0  0  0.39988  0  0.927474  0  0.634102  0  0.289202  0.380508  0  0.95611  0
H  H37  1  0.11316511  0.40720411  0.84035214  1  0  0.421537  0  0.876671  0  0  0.388076  0  0.9448  0  0  0.399433  0  0.927967  0  0.666266  0  0.289088  0.37997  0  0.956798  0
H  H38  1  0.45932812  0.78166314  0.45708029  1  0  0.419719  0  0.882514  0  0  0.384782  0  0.952724  0  0  0.396404  0  0.935598  0  0.646941  0  0.288827  0.376503  0  0.964901  0
H  H39  1  0.95835199  0.45637536  0.78229201  1  0  0.419575  0  0.882778  0  0  0.384477  0  0.953506  0  0  0.396095  0  0.936354  0  0.644031  0  0.288671  0.376138  0  0.965777  0
H  H40  1  0.03860932  0.80798660  0.24600059  1  0  0.418203  0  0.882307  0  0  0.384883  0  0.950272  0  0  0.395987  0  0.933783  0  0.644503  0  0.286977  0.376946  0  0.962046  0
H  H41  1  0.53998654  0.24571034  0.80839965  1  0  0.419818  0  0.880266  0  0  0.386473  0  0.948165  0  0  0.397481  0  0.931823  0  0.641681  0  0.287423  0.378579  0  0.95987  0
H  H42  1  0.88684692  0.86421050  0.19853367  1  0  0.418998  0  0.884791  0  0  0.383236  0  0.956784  0  0  0.394966  0  0.939452  0  0.651754  0  0.286562  0.374957  0  0.968984  0
H  H43  1  0.38809650  0.19835622  0.86514440  1  0  0.419335  0  0.884627  0  0  0.384318  0  0.955378  0  0  0.395939  0  0.938178  0  0.65484  0  0.286676  0.376038  0  0.967601  0
C  C44  1  0.03874688  0.94242592  0.67427871  1  0  0.159325  0  3.635673  0  0  0.123306  0  3.889263  0  0  0.132297  0  3.906186  0  0.406071  0  0.060287  0.117539  0  3.877778  0
C  C45  1  0.53674212  0.67345866  0.94237674  1  0  0.157603  0  3.637016  0  0  0.122148  0  3.891026  0  0  0.13109  0  3.90805  0  0.46696  0  0.060589  0.116408  0  3.879492  0
C  C46  1  0.11243385  0.03305759  0.70160817  1  0  -0.097681  0  3.697897  0  0  -0.109423  0  3.954133  0  0  -0.117039  0  3.975254  0  0.092024  0  -0.075194  -0.104708  0  3.940054  0
C  C47  1  0.61132043  0.70091092  0.03297139  1  0  -0.096283  0  3.696367  0  0  -0.108597  0  3.952626  0  0  -0.116252  0  3.97381  0  0.046191  0  -0.075123  -0.103887  0  3.938564  0
C  C48  1  0.15997898  0.09151309  0.63966087  1  0  -0.016842  0  3.667484  0  0  -0.049025  0  3.921261  0  0  -0.044455  0  3.93848  0  -0.035864  0  -0.057546  -0.051508  0  3.909345  0
C  C49  1  0.65982711  0.63927627  0.09132080  1  0  -0.018876  0  3.667114  0  0  -0.051472  0  3.921783  0  0  -0.046911  0  3.938939  0  -0.055805  0  -0.058024  -0.053963  0  3.909933  0
C  C50  1  0.12888400  0.05731071  0.55066512  1  0  -0.079403  0  3.831238  0  0  -0.060545  0  4.074984  0  0  -0.069927  0  4.100602  0  -0.015798  0  -0.010183  -0.05473  0  4.057865  0
C  C51  1  0.62867329  0.55040325  0.05709555  1  0  -0.078491  0  3.829354  0  0  -0.059665  0  4.073732  0  0  -0.06895  0  4.099235  0  0.046719  0  -0.010536  -0.05391  0  4.056696  0
C  C52  1  0.05078999  0.96558823  0.52783021  1  0  0.111649  0  3.655626  0  0  0.069163  0  3.907391  0  0  0.077155  0  3.9264  0  0.572989  0  0.052388  0.06405  0  3.894489  0
C  C53  1  0.54984367  0.52744752  0.96539435  1  0  0.111993  0  3.656245  0  0  0.069474  0  3.90768  0  0  0.077401  0  3.926719  0  0.525957  0  0.053149  0.064443  0  3.89467  0
C  C54  1  0.17641252  0.11621999  0.48398603  1  0  0.352955  0  3.735587  0  0  0.318392  0  4.020602  0  0  0.335486  0  4.030732  0  1.041163  0  0.219548  0.307093  0  4.013661  0
C  C55  1  0.67684215  0.48397688  0.11590028  1  0  0.354277  0  3.731456  0  0  0.319124  0  4.017757  0  0  0.336143  0  4.027828  0  1.031419  0  0.220301  0.307812  0  4.010895  0
C  C56  1  0.23079108  0.15434784  0.35801682  1  0  0.35801  0  3.73083  0  0  0.319805  0  4.016249  0  0  0.337625  0  4.025245  0  1.062054  0  0.225027  0.30814  0  4.009901  0
C  C57  1  0.73122875  0.35837402  0.15377687  1  0  0.357567  0  3.729516  0  0  0.319654  0  4.01447  0  0  0.337371  0  4.023499  0  1.069895  0  0.225359  0.308004  0  4.008128  0
C  C58  1  0.24544783  0.05640647  0.23175877  1  0  0.115053  0  3.660567  0  0  0.071866  0  3.911872  0  0  0.080248  0  3.929435  0  0.530147  0  0.054983  0.066644  0  3.899826  0
C  C59  1  0.74604767  0.23214813  0.05580038  1  0  0.114164  0  3.659661  0  0  0.070238  0  3.910489  0  0  0.078576  0  3.928125  0  0.45299  0  0.054697  0.065073  0  3.898444  0
C  C60  1  0.24963368  0.14163456  0.26728608  1  0  -0.063599  0  3.807779  0  0  -0.042563  0  4.045114  0  0  -0.051767  0  4.069364  0  -0.002658  0  -0.001258  -0.03746  0  4.029911  0
C  C61  1  0.74995239  0.26785046  0.14108433  1  0  -0.062432  0  3.804961  0  0  -0.040996  0  4.041839  0  0  -0.050108  0  4.065943  0  0.078161  0  -0.001199  -0.035885  0  4.026589  0
C  C62  1  0.26440808  0.21212100  0.21263856  1  0  -0.005135  0  3.641328  0  0  -0.031959  0  3.887341  0  0  -0.026983  0  3.90378  0  -0.108724  0  -0.053126  -0.034567  0  3.875876  0
C  C63  1  0.76435364  0.21353632  0.21185673  1  0  -0.00569  0  3.642207  0  0  -0.032655  0  3.8879  0  0  -0.027673  0  3.904305  0  -0.036225  0  -0.053063  -0.035267  0  3.876453  0
C  C64  1  0.27211508  0.19364513  0.12485113  1  0  -0.116139  0  3.712054  0  0  -0.127967  0  3.969198  0  0  -0.136841  0  3.991782  0  0.059165  0  -0.081959  -0.12224  0  3.953828  0
C  C65  1  0.77209680  0.12592671  0.19365050  1  0  -0.11849  0  3.714102  0  0  -0.130197  0  3.971468  0  0  -0.139127  0  3.99402  0  -0.043592  0  -0.082125  -0.124447  0  3.956117  0
C  C66  1  0.26487862  0.10684579  0.09388347  1  0  0.150574  0  3.672943  0  0  0.112421  0  3.935407  0  0  0.12204  0  3.952893  0  0.45785  0  0.052596  0.106191  0  3.923511  0
C  C67  1  0.76527896  0.09476354  0.10679596  1  0  0.151184  0  3.672995  0  0  0.112432  0  3.935866  0  0  0.122063  0  3.953416  0  0.496995  0  0.052536  0.106232  0  3.923884  0
C  C68  1  0.68178201  0.54280354  0.54904356  1  0  0.151121  0  3.660314  0  0  0.112892  0  3.921384  0  0  0.122185  0  3.938964  0  0.461411  0  0.050824  0.106932  0  3.909383  0
C  C69  1  0.18238547  0.54922115  0.54320720  1  0  0.151486  0  3.660504  0  0  0.113375  0  3.92153  0  0  0.122693  0  3.939102  0  0.463857  0  0.051447  0.107391  0  3.909535  0
C  C70  1  0.57258016  0.45660392  0.51733060  1  0  -0.115763  0  3.713987  0  0  -0.127049  0  3.971094  0  0  -0.13609  0  3.994109  0  0.00532  0  -0.082456  -0.121258  0  3.955514  0
C  C71  1  0.07368202  0.51786475  0.45687806  1  0  -0.116927  0  3.717083  0  0  -0.128203  0  3.974596  0  0  -0.137236  0  3.997521  0  0.051721  0  -0.082703  -0.122431  0  3.959041  0
C  C72  1  0.46474159  0.43928883  0.42947195  1  0  -0.008548  0  3.651717  0  0  -0.036055  0  3.897042  0  0  -0.031097  0  3.913604  0  -0.029353  0  -0.054939  -0.038707  0  3.885535  0
C  C73  1  0.96534918  0.43003124  0.43920620  1  0  -0.008374  0  3.652521  0  0  -0.035669  0  3.897253  0  0  -0.030679  0  3.913732  0  -0.065567  0  -0.054425  -0.038284  0  3.885796  0
C  C74  1  0.46948399  0.51035899  0.37556680  1  0  -0.068141  0  3.810624  0  0  -0.045855  0  4.046973  0  0  -0.055289  0  4.071397  0  0.056427  0  -0.003074  -0.040261  0  4.030994  0
C  C75  1  0.96908636  0.37576774  0.51005163  1  0  -0.068279  0  3.809833  0  0  -0.045567  0  4.045506  0  0  -0.054977  0  4.069916  0  0.003502  0  -0.002615  -0.040084  0  4.029708  0
C  C76  1  0.58345596  0.59509664  0.41195597  1  0  0.115228  0  3.663608  0  0  0.071028  0  3.915918  0  0  0.079546  0  3.933425  0  0.511921  0  0.054555  0.065697  0  3.903966  0
C  C77  1  0.08269089  0.41181458  0.59491051  1  0  0.116476  0  3.664547  0  0  0.072373  0  3.916714  0  0  0.080928  0  3.934194  0  0.516398  0  0.055712  0.067012  0  3.904771  0
C  C78  1  0.35429163  0.49753576  0.28451165  1  0  0.362972  0  3.724803  0  0  0.324717  0  4.009997  0  0  0.342642  0  4.018906  0  1.045005  0  0.22572  0.312868  0  4.00383  0
C  C79  1  0.85360918  0.28464713  0.49705457  1  0  0.364633  0  3.722899  0  0  0.325548  0  4.008515  0  0  0.343429  0  4.017464  0  1.097609  0  0.226105  0.313782  0  4.002275  0
C  C80  1  0.21934024  0.53466808  0.15775078  1  0  0.35183  0  3.735657  0  0  0.317424  0  4.020545  0  0  0.334321  0  4.030911  0  0.988509  0  0.219214  0.306178  0  4.013469  0
C  C81  1  0.71886771  0.15752633  0.53413246  1  0  0.352921  0  3.732213  0  0  0.318037  0  4.017544  0  0  0.334925  0  4.027889  0  1.034227  0  0.219436  0.306868  0  4.010447  0
C  C82  1  0.20956921  0.68572149  0.11340689  1  0  0.111787  0  3.666603  0  0  0.068232  0  3.918097  0  0  0.076299  0  3.936956  0  0.526432  0  0.053482  0.063141  0  3.905162  0
C  C83  1  0.71011648  0.11296488  0.68547592  1  0  0.109849  0  3.668777  0  0  0.067035  0  3.92049  0  0  0.075126  0  3.939336  0  0.552066  0  0.052288  0.061765  0  3.907867  0
C  C84  1  0.16693571  0.59357803  0.09090556  1  0  -0.077368  0  3.829437  0  0  -0.057403  0  4.071847  0  0  -0.066817  0  4.097541  0  0.01506  0  -0.008559  -0.051565  0  4.054673  0
C  C85  1  0.66681443  0.09049091  0.59319199  1  0  -0.077687  0  3.830791  0  0  -0.057989  0  4.073344  0  0  -0.067433  0  4.099045  0  -0.038378  0  -0.008855  -0.052128  0  4.056139  0
C  C86  1  0.07324878  0.55962353  0.00248299  1  0  -0.017245  0  3.66713  0  0  -0.050247  0  3.921195  0  0  -0.045524  0  3.938368  0  0.020114  0  -0.056822  -0.052821  0  3.909293  0
C  C87  1  0.57279434  0.00202637  0.55945560  1  0  -0.018056  0  3.665255  0  0  -0.050733  0  3.918862  0  0  -0.045936  0  3.936106  0  -0.007851  0  -0.056639  -0.053321  0  3.906895  0
C  C88  1  0.02584675  0.61872139  0.94084445  1  0  -0.092936  0  3.68784  0  0  -0.103895  0  3.943972  0  0  -0.111955  0  3.966058  0  -0.080671  0  -0.073447  -0.098869  0  3.929245  0
C  C89  1  0.52626930  0.94036424  0.61893254  1  0  -0.090692  0  3.684394  0  0  -0.101946  0  3.94023  0  0  -0.110103  0  3.962305  0  -0.023974  0  -0.072987  -0.096869  0  3.925488  0
C  C90  1  0.07433450  0.70960678  0.96808855  1  0  0.157823  0  3.628767  0  0  0.120144  0  3.881168  0  0  0.129196  0  3.898662  0  0.488624  0  0.060337  0.114304  0  3.869292  0
C  C91  1  0.57564260  0.96758594  0.70996339  1  0  0.155094  0  3.628139  0  0  0.118705  0  3.880235  0  0  0.127803  0  3.897663  0  0.489191  0  0.06046  0.112856  0  3.868375  0
N  N92  1  0.00791904  0.90964953  0.58873893  1  0  -0.335922  0  3.269327  0  0  -0.251254  0  3.53521  0  0  -0.274719  0  3.556801  0  -1.243702  0  -0.323989  -0.23525  0  3.520077  0
N  N93  1  0.50618605  0.58807465  0.90956636  1  0  -0.33588  0  3.272453  0  0  -0.250325  0  3.537039  0  0  -0.273812  0  3.558715  0  -1.243224  0  -0.323875  -0.234338  0  3.521911  0
N  N94  1  0.21561948  0.20360638  0.48915170  1  0  -0.272404  0  2.878219  0  0  -0.262294  0  3.164352  0  0  -0.271457  0  3.17687  0  -0.701949  0  -0.226199  -0.256201  0  3.155936  0
N  N95  1  0.71646137  0.48914909  0.20339262  1  0  -0.27288  0  2.879529  0  0  -0.262467  0  3.165849  0  0  -0.271669  0  3.178417  0  -0.693533  0  -0.226305  -0.256348  0  3.157417  0
N  N96  1  0.24952591  0.22801476  0.40732098  1  0  -0.253873  0  2.911095  0  0  -0.228496  0  3.191489  0  0  -0.239084  0  3.20391  0  -0.697243  0  -0.209438  -0.221353  0  3.183042  0
N  N97  1  0.75029841  0.40758526  0.22764221  1  0  -0.254318  0  2.911238  0  0  -0.229044  0  3.191571  0  0  -0.239643  0  3.203996  0  -0.707788  0  -0.209752  -0.221884  0  3.183131  0
N  N98  1  0.25210489  0.03962180  0.14685596  1  0  -0.340463  0  3.277001  0  0  -0.255977  0  3.542165  0  0  -0.279268  0  3.563289  0  -1.23155  0  -0.327767  -0.240203  0  3.527483  0
N  N99  1  0.75273030  0.14740515  0.03929791  1  0  -0.340402  0  3.279767  0  0  -0.255347  0  3.545078  0  0  -0.278745  0  3.566301  0  -1.227248  0  -0.327777  -0.239508  0  3.530322  0
N  N100  1  0.68717807  0.61082648  0.49682540  1  0  -0.335899  0  3.241152  0  0  -0.253146  0  3.505381  0  0  -0.275992  0  3.526212  0  -1.25066  0  -0.323843  -0.237688  0  3.490887  0
N  N101  1  0.18688448  0.49665218  0.61096266  1  0  -0.336389  0  3.244166  0  0  -0.253194  0  3.507715  0  0  -0.276057  0  3.528553  0  -1.253069  0  -0.324837  -0.237715  0  3.493217  0
N  N102  1  0.25502506  0.42351834  0.23561715  1  0  -0.259541  0  2.904589  0  0  -0.234973  0  3.186346  0  0  -0.245837  0  3.198982  0  -0.708706  0  -0.211811  -0.227666  0  3.177777  0
N  N103  1  0.75417582  0.23591700  0.42298097  1  0  -0.260031  0  2.905581  0  0  -0.235237  0  3.187379  0  0  -0.246111  0  3.200012  0  -0.732465  0  -0.212079  -0.227883  0  3.178767  0
N  N104  1  0.16829914  0.44737098  0.15333632  1  0  -0.272964  0  2.882652  0  0  -0.2625  0  3.169528  0  0  -0.271678  0  3.18222  0  -0.678622  0  -0.227523  -0.256352  0  3.160974  0
N  N105  1  0.66760082  0.15340096  0.44677370  1  0  -0.273018  0  2.879007  0  0  -0.262692  0  3.165961  0  0  -0.271827  0  3.178596  0  -0.681284  0  -0.227343  -0.256572  0  3.157412  0
N  N106  1  0.16498783  0.74212396  0.05286067  1  0  -0.336984  0  3.274285  0  0  -0.250927  0  3.540682  0  0  -0.274281  0  3.561516  0  -1.231629  0  -0.326806  -0.235033  0  3.526107  0
N  N107  1  0.66612289  0.05243170  0.74218617  1  0  -0.335106  0  3.278394  0  0  -0.248821  0  3.543465  0  0  -0.272223  0  3.564344  0  -1.229426  0  -0.326402  -0.232874  0  3.52885  0
N  N108  1  0.09951991  0.75080583  0.39974212  1  0  0.683957  0  4.158767  0  0  0.716301  0  4.447246  0  0  0.744478  0  4.454544  0  0.830107  0  0.099733  0.697343  0  4.441909  0
N  N109  1  0.59813574  0.39932319  0.74998694  1  0  0.686878  0  4.158007  0  0  0.719307  0  4.447797  0  0  0.745995  0  4.45505  0  0.817538  0  0.100127  0.70014  0  4.442686  0
N  N110  1  0.67250281  0.71322239  0.71854149  1  0  0.708505  0  4.132373  0  0  0.735656  0  4.426363  0  0  0.765554  0  4.431345  0  0.842948  0  0.105804  0.715343  0  4.422588  0
N  N111  1  0.17128913  0.71761364  0.71321777  1  0  0.710848  0  4.129748  0  0  0.735745  0  4.426256  0  0  0.765648  0  4.431158  0  0.861062  0  0.105633  0.715396  0  4.422557  0
N  N112  1  0.60052445  0.89527904  0.25106423  1  0  0.685798  0  4.162087  0  0  0.71776  0  4.45175  0  0  0.745862  0  4.459204  0  0.847565  0  0.100537  0.700223  0  4.446256  0
N  N113  1  0.10124179  0.25109577  0.89457796  1  0  0.688258  0  4.15937  0  0  0.719823  0  4.449464  0  0  0.748  0  4.456721  0  0.846825  0  0.100814  0.700784  0  4.444355  0
N  N114  1  0.31664787  0.94959518  0.91863337  1  0  0.709652  0  4.12768  0  0  0.735299  0  4.423776  0  0  0.765542  0  4.428727  0  0.851636  0  0.105329  0.714777  0  4.419931  0
N  N115  1  0.81637655  0.91867123  0.95018951  1  0  0.710069  0  4.127389  0  0  0.73341  0  4.426464  0  0  0.763071  0  4.431759  0  0.850242  0  0.104886  0.712894  0  4.422611  0
O  O116  1  0.18276216  0.08040971  0.40245050  1  0  -0.26326  0  2.300894  0  0  -0.190025  0  2.519758  0  0  -0.208304  0  2.52043  0  -1.039692  0  -0.095287  -0.177804  0  2.519092  0
O  O117  1  0.68300503  0.40264095  0.07984631  1  0  -0.263257  0  2.300396  0  0  -0.190167  0  2.519578  0  0  -0.208225  0  2.520074  0  -1.041409  0  -0.09553  -0.177991  0  2.518971  0
O  O118  1  0.33752324  0.57101344  0.23924081  1  0  -0.263786  0  2.302768  0  0  -0.19103  0  2.522256  0  0  -0.209173  0  2.522983  0  -1.040701  0  -0.095437  -0.178731  0  2.52142  0
O  O119  1  0.83703214  0.23905284  0.57053339  1  0  -0.264764  0  2.302913  0  0  -0.190933  0  2.521936  0  0  -0.209061  0  2.522699  0  -1.038863  0  -0.095548  -0.178758  0  2.521175  0
O  O120  1  0.59977811  0.80730360  0.46049804  1  0  -0.847436  0  1.894581  0  0  -0.782941  0  2.094889  0  0  -0.805382  0  2.059732  0  -1.261828  0  -0.595275  -0.766856  0  2.119372  0
O  O121  1  0.09859923  0.46014090  0.80815727  1  0  -0.846551  0  1.897006  0  0  -0.781986  0  2.096731  0  0  -0.804437  0  2.061745  0  -1.290669  0  -0.594645  -0.7659  0  2.121306  0
O  O122  1  0.00446151  0.84272140  0.19517679  1  0  -0.849372  0  1.890164  0  0  -0.78551  0  2.087911  0  0  -0.807613  0  2.053094  0  -1.279222  0  -0.600728  -0.769626  0  2.112123  0
O  O123  1  0.50683907  0.19550491  0.84415121  1  0  -0.851729  0  1.887129  0  0  -0.788358  0  2.084518  0  0  -0.81035  0  2.049928  0  -1.280094  0  -0.601552  -0.772578  0  2.108724  0
O  O124  1  0.21926215  0.74944914  0.47342481  1  0  -0.470004  0  1.773588  0  0  -0.449347  0  1.98157  0  0  -0.465381  0  1.973414  0  -0.552968  0  -0.177331  -0.438195  0  1.98713  0
O  O125  1  0.71937535  0.47303276  0.74960467  1  0  -0.469567  0  1.77307  0  0  -0.449378  0  1.981927  0  0  -0.4649  0  1.973891  0  -0.550649  0  -0.176909  -0.438089  0  1.987419  0
O  O126  1  0.93091008  0.76350911  0.40034963  1  0  -0.484286  0  1.817638  0  0  -0.463096  0  2.053057  0  0  -0.482915  0  2.044714  0  -0.562506  0  -0.196331  -0.449131  0  2.058408  0
O  O127  1  0.42842883  0.39974832  0.76156209  1  0  -0.486146  0  1.81824  0  0  -0.465447  0  2.054628  0  0  -0.484509  0  2.046075  0  -0.551299  0  -0.197477  -0.45147  0  2.0601  0
O  O128  1  0.14539521  0.74014691  0.32669941  1  0  -0.436301  0  1.764041  0  0  -0.432967  0  1.973463  0  0  -0.445333  0  1.964038  0  -0.52854  0  -0.179096  -0.424332  0  1.979906  0
O  O129  1  0.64370141  0.32644190  0.73945756  1  0  -0.438922  0  1.761402  0  0  -0.435288  0  1.970909  0  0  -0.447014  0  1.961415  0  -0.529352  0  -0.179791  -0.426588  0  1.97742  0
O  O130  1  0.72480846  0.77779098  0.67352557  1  0  -0.488289  0  1.842634  0  0  -0.463798  0  2.086283  0  0  -0.483071  0  2.077547  0  -0.567342  0  -0.197744  -0.450043  0  2.091911  0
O  O131  1  0.22337523  0.67245580  0.77747398  1  0  -0.489668  0  1.841604  0  0  -0.463355  0  2.084597  0  0  -0.482554  0  2.075885  0  -0.570317  0  -0.197187  -0.449656  0  2.090273  0
O  O132  1  0.52932128  0.64826865  0.67815693  1  0  -0.519984  0  1.876116  0  0  -0.496569  0  2.134239  0  0  -0.518319  0  2.125823  0  -0.579124  0  -0.208542  -0.480949  0  2.139362  0
O  O133  1  0.02719442  0.67751739  0.64860286  1  0  -0.520158  0  1.873351  0  0  -0.49637  0  2.132138  0  0  -0.518284  0  2.124072  0  -0.582243  0  -0.208533  -0.480697  0  2.137189  0
O  O134  1  0.75460800  0.71260935  0.79792675  1  0  -0.395189  0  1.775836  0  0  -0.390435  0  1.990731  0  0  -0.4025  0  1.985012  0  -0.48392  0  -0.149299  -0.381973  0  1.994589  0
O  O135  1  0.25439460  0.79693187  0.71254196  1  0  -0.397161  0  1.775464  0  0  -0.391457  0  1.990848  0  0  -0.403626  0  1.985217  0  -0.497791  0  -0.150042  -0.38292  0  1.994676  0
O  O136  1  0.41639126  0.88163753  0.24370691  1  0  -0.485693  0  1.825621  0  0  -0.464961  0  2.06357  0  0  -0.484574  0  2.054976  0  -0.566217  0  -0.196784  -0.451729  0  2.06911  0
O  O137  1  0.91694697  0.24347140  0.87954178  1  0  -0.486142  0  1.824313  0  0  -0.465206  0  2.061854  0  0  -0.484824  0  2.053335  0  -0.564481  0  -0.196766  -0.451378  0  2.067378  0
O  O138  1  0.66631984  0.89740802  0.18117424  1  0  -0.466477  0  1.777584  0  0  -0.446318  0  1.985119  0  0  -0.462042  0  1.977286  0  -0.558629  0  -0.178668  -0.435978  0  1.990371  0
O  O139  1  0.16665291  0.18141095  0.89755275  1  0  -0.466949  0  1.77808  0  0  -0.446763  0  1.985705  0  0  -0.462453  0  1.977806  0  -0.556715  0  -0.178238  -0.435792  0  1.991024  0
O  O140  1  0.71465971  0.90632778  0.32745273  1  0  -0.446161  0  1.763543  0  0  -0.441727  0  1.97495  0  0  -0.454532  0  1.965203  0  -0.544632  0  -0.183205  -0.433344  0  1.981549  0
O  O141  1  0.21581091  0.32752005  0.90615149  1  0  -0.447112  0  1.764691  0  0  -0.442488  0  1.976218  0  0  -0.455339  0  1.966501  0  -0.548181  0  -0.183089  -0.433491  0  1.98286  0
O  O142  1  0.40795312  0.95384315  0.00112570  1  0  -0.520262  0  1.832328  0  0  -0.500512  0  2.089857  0  0  -0.521451  0  2.080676  0  -0.58555  0  -0.209757  -0.485494  0  2.095669  0
O  O143  1  0.90780938  0.00113279  0.95364872  1  0  -0.520886  0  1.829506  0  0  -0.500551  0  2.087868  0  0  -0.521161  0  2.078639  0  -0.585145  0  -0.210099  -0.485578  0  2.093705  0
O  O144  1  0.16162324  0.89280022  0.88731961  1  0  -0.395892  0  1.78224  0  0  -0.387736  0  1.993212  0  0  -0.400992  0  1.987059  0  -0.483485  0  -0.149532  -0.378483  0  1.9974  0
O  O145  1  0.66141503  0.88676642  0.89371482  1  0  -0.396763  0  1.782918  0  0  -0.387677  0  1.99441  0  0  -0.400588  0  1.988236  0  -0.48056  0  -0.150211  -0.37843  0  1.998599  0
O  O146  1  0.38797034  0.00639029  0.86998154  1  0  -0.478223  0  1.873897  0  0  -0.44812  0  2.120504  0  0  -0.469236  0  2.112828  0  -0.555122  0  -0.186931  -0.433041  0  2.125387  0
O  O147  1  0.88746561  0.87070607  0.00741135  1  0  -0.477796  0  1.870814  0  0  -0.446679  0  2.117704  0  0  -0.467564  0  2.110017  0  -0.558533  0  -0.186799  -0.431618  0  2.122628  0
