# generated using pymatgen
data_CuHg3H38C34N8(ClO5)2
_symmetry_space_group_name_H-M   'P 1'
_cell_length_a   8.14845001
_cell_length_b   10.33232700
_cell_length_c   12.45049681
_cell_angle_alpha   83.15159352
_cell_angle_beta   81.73873402
_cell_angle_gamma   85.03910299
_symmetry_Int_Tables_number   1
_chemical_formula_structural   CuHg3H38C34N8(ClO5)2
_chemical_formula_sum   'Cu1 Hg3 H38 C34 N8 Cl2 O10'
_cell_volume   1027.39091674
_cell_formula_units_Z   1
loop_
 _symmetry_equiv_pos_site_id
 _symmetry_equiv_pos_as_xyz
  1  'x, y, z'
loop_
 _atom_site_type_symbol
 _atom_site_label
 _atom_site_symmetry_multiplicity
 _atom_site_fract_x
 _atom_site_fract_y
 _atom_site_fract_z
 _atom_site_occupancy
 _atom_site_hle17_ddec_charge
 _atom_site_hle17_ddec_spin_density
 _atom_site_hle17_ddec_sum_bond_order
 _atom_site_hle17_magmom
 _atom_site_hse06_10hf_ddec_charge
 _atom_site_hse06_10hf_ddec_spin_density
 _atom_site_hse06_10hf_ddec_sum_bond_order
 _atom_site_hse06_10hf_magmom
 _atom_site_hse06_ddec_charge
 _atom_site_hse06_ddec_spin_density
 _atom_site_hse06_ddec_sum_bond_order
 _atom_site_hse06_magmom
 _atom_site_pbe_cm5_charge
 _atom_site_pbe_ddec_charge
 _atom_site_pbe_ddec_spin_density
 _atom_site_pbe_ddec_sum_bond_order
 _atom_site_pbe_magmom
Cu  Cu0  1  0.00000125  0.50000051  0.99999777  1  0.743401  0.671049  1.807463  0.487  0.693798  0.752156  2.185707  0.591  0.77275  0.814601  2.133684  0.669  0.7336  0.647973  0.711345  2.220452  0.544
Hg  Hg1  1  0.77406498  0.12368026  0.41004203  1  0.56933  0.00012  1.899262  0.0  0.465745  5e-05  2.28388  0.0  0.491216  6.3e-05  2.267375  0.0  0.469383  0.447889  5.1e-05  2.295561  0.0
Hg  Hg2  1  0.22593843  0.87632022  0.58995913  1  0.569321  0.000121  1.899285  0.0  0.465738  5e-05  2.283887  0.0  0.491208  6.3e-05  2.26738  0.0  0.469405  0.447885  5.2e-05  2.295568  0.0
Hg  Hg3  1  0.50000480  0.49999390  0.49999931  1  0.576296  -0.001269  1.929032  0.001  0.472887  -0.000895  2.325206  0.0  0.494414  -0.001048  2.314078  0.0  0.483029  0.458556  -0.000709  2.33227  0.0
H  H4  1  0.91043401  0.36081823  0.50112136  1  0.104764  -1.6e-05  0.954143  0.0  0.115983  -9e-06  1.012262  0.0  0.11832  -1e-05  1.0124  0.0  0.096892  0.114247  -9e-06  1.012311  0.0
H  H5  1  0.08956860  0.63917832  0.49889071  1  0.104756  -1.3e-05  0.954074  0.0  0.115914  -9e-06  1.012268  0.0  0.118251  -1e-05  1.012405  0.0  0.096867  0.114182  -9e-06  1.012318  0.0
H  H6  1  0.55155011  0.08215959  0.64503188  1  0.095298  -9e-06  0.96732  0.0  0.105935  -3e-06  1.029749  0.0  0.107999  -3e-06  1.030073  0.0  0.095318  0.104378  -4e-06  1.0298  0.0
H  H7  1  0.44844508  0.91783596  0.35496575  1  0.095343  0.0  0.967272  0.0  0.105978  -3e-06  1.029702  0.0  0.108045  -3e-06  1.030027  0.0  0.095336  0.104417  -4e-06  1.029751  0.0
H  H8  1  0.53059408  0.18549112  0.81681553  1  0.057287  5e-06  0.953612  0.0  0.065034  6e-06  1.022976  0.0  0.067112  7e-06  1.021464  0.0  0.104712  0.063529  4e-06  1.024075  0.0
H  H9  1  0.46939588  0.81449463  0.18318678  1  0.057306  1e-05  0.953649  0.0  0.065037  6e-06  1.023019  0.0  0.067114  7e-06  1.021507  0.0  0.104683  0.063526  4e-06  1.024119  0.0
H  H10  1  0.86882034  0.45485446  0.67814549  1  0.074061  -4.5e-05  0.957299  0.0  0.082925  -2.6e-05  1.022782  0.0  0.084866  -2.3e-05  1.021683  0.0  0.109054  0.0813  -2.8e-05  1.023913  0.0
H  H11  1  0.13116873  0.54514105  0.32186799  1  0.074098  -4.4e-05  0.957245  0.0  0.082989  -2.5e-05  1.022709  0.0  0.084919  -2.3e-05  1.021621  0.0  0.109073  0.081355  -2.8e-05  1.023856  0.0
H  H12  1  0.57981493  0.08335773  0.20874042  1  0.10475  4.3e-05  0.980825  0.0  0.117837  5.8e-05  1.040128  0.0  0.120145  3.8e-05  1.039619  0.0  0.09716  0.116138  7.9e-05  1.0406  0.0
H  H13  1  0.42018866  0.91664079  0.79125771  1  0.104764  4.4e-05  0.98078  0.0  0.117825  5.8e-05  1.040124  0.0  0.120135  3.8e-05  1.039614  0.0  0.097138  0.116125  7.9e-05  1.040593  0.0
H  H14  1  0.64982418  0.96028721  0.04635642  1  0.051058  3.4e-05  0.942155  0.0  0.062339  3.3e-05  1.004982  0.0  0.064803  2e-05  1.002596  0.0  0.103638  0.060499  4.7e-05  1.006864  0.0
H  H15  1  0.35018618  0.03971819  0.95363958  1  0.050953  3.7e-05  0.942125  0.0  0.062265  3.3e-05  1.004943  0.0  0.06473  2e-05  1.002556  0.0  0.103558  0.060423  4.7e-05  1.006826  0.0
H  H16  1  0.12439004  0.85122817  0.11989400  1  0.060783  4.6e-05  0.949683  0.0  0.070539  3.5e-05  1.013187  0.0  0.07233  2.1e-05  1.011964  0.0  0.106432  0.069259  6e-05  1.014022  0.0
H  H17  1  0.87561661  0.14877721  0.88010477  1  0.060862  4.9e-05  0.949612  0.0  0.070623  3.5e-05  1.013103  0.0  0.072414  2.1e-05  1.011878  0.0  0.106476  0.069343  6e-05  1.013934  0.0
H  H18  1  0.07566731  0.96581303  0.28711537  1  0.100404  7e-06  0.966815  0.0  0.109658  6e-06  1.030548  0.0  0.111408  1e-06  1.031998  0.0  0.094254  0.108396  1.9e-05  1.029641  0.0
H  H19  1  0.92433828  0.03419040  0.71288208  1  0.100401  2e-06  0.966749  0.0  0.109669  5e-06  1.030471  0.0  0.111391  1e-06  1.031954  0.0  0.094266  0.108408  1.9e-05  1.029562  0.0
H  H20  1  0.74773543  0.33229847  0.12561836  1  0.081677  0.00117  0.938352  0.002  0.090048  0.000981  1.001318  0.001  0.09163  0.000683  0.999703  0.001  0.117156  0.089026  0.001247  1.002102  0.002
H  H21  1  0.25226688  0.66770006  0.87437347  1  0.081647  0.001174  0.938337  0.002  0.090032  0.000981  1.001296  0.001  0.091614  0.000683  0.999682  0.001  0.117155  0.089011  0.001247  1.002091  0.002
H  H22  1  0.55588523  0.33108887  0.30012896  1  0.095456  0.000697  0.991667  0.001  0.102638  0.000551  1.061079  0.001  0.10486  0.000393  1.060495  0.0  0.09306  0.100845  0.000692  1.061902  0.001
H  H23  1  0.44411746  0.66890574  0.69986322  1  0.095435  0.000696  0.991772  0.001  0.102615  0.000551  1.061135  0.001  0.104838  0.000393  1.06055  0.0  0.093027  0.100816  0.000692  1.061961  0.001
H  H24  1  0.95969931  0.66216863  0.18370211  1  0.069298  0.001037  0.976585  0.002  0.073293  0.000823  1.05159  0.001  0.074422  0.000541  1.05049  0.001  0.113676  0.07214  0.001082  1.052896  0.002
H  H25  1  0.04029921  0.33783085  0.81629400  1  0.069264  0.001033  0.976642  0.002  0.073256  0.000823  1.051659  0.001  0.074383  0.000541  1.050556  0.001  0.113684  0.072103  0.001082  1.052963  0.002
H  H26  1  0.78309090  0.67331732  0.36325345  1  0.112436  0.000691  0.950249  0.001  0.123209  0.000558  1.007762  0.001  0.125461  0.000397  1.008267  0.0  0.102499  0.121657  0.000702  1.007249  0.001
H  H27  1  0.21690533  0.32668020  0.63674308  1  0.112394  0.00069  0.950216  0.001  0.123198  0.000558  1.007701  0.001  0.12545  0.000397  1.008205  0.0  0.102507  0.121646  0.000702  1.007198  0.001
H  H28  1  0.31612740  0.41067103  0.18841627  1  0.041613  -6.9e-05  0.959162  0.0  0.053975  -4.6e-05  1.030294  0.0  0.054171  -3e-05  1.030299  0.0  0.089421  0.05377  -5.9e-05  1.030383  0.0
H  H29  1  0.68386542  0.58933624  0.81158364  1  0.041533  -6e-05  0.959149  0.0  0.053956  -4.6e-05  1.030273  0.0  0.054156  -3e-05  1.030269  0.0  0.089369  0.053751  -5.9e-05  1.030367  0.0
H  H30  1  0.48521068  0.43978040  0.08331274  1  0.041594  -0.00027  0.970934  0.0  0.05631  -8.6e-05  1.038334  0.0  0.05665  -7.2e-05  1.038253  0.0  0.091231  0.056049  -9.2e-05  1.038386  0.0
H  H31  1  0.51478759  0.56022201  0.91668874  1  0.041601  -0.000264  0.970896  0.0  0.056315  -8.6e-05  1.038325  0.0  0.056653  -7.4e-05  1.038245  0.0  0.091259  0.05605  -9.2e-05  1.038377  0.0
H  H32  1  0.34703800  0.34715849  0.95186972  1  0.062917  0.000161  0.93227  0.001  0.079556  0.000156  0.992555  0.0  0.079254  9.7e-05  0.99422  0.0  0.103144  0.079706  0.000206  0.99149  0.0
H  H33  1  0.65296161  0.65284295  0.04813253  1  0.062919  0.00016  0.9323  0.001  0.079582  0.000156  0.992571  0.0  0.07928  9.7e-05  0.994233  0.0  0.103143  0.079735  0.000206  0.991504  0.0
H  H34  1  0.36091635  0.23650653  0.07176474  1  0.059242  0.004906  0.917947  0.006  0.078664  0.003237  0.975018  0.004  0.07809  0.002317  0.97518  0.003  0.10127  0.078976  0.003929  0.974995  0.005
H  H35  1  0.63908201  0.76349490  0.92823763  1  0.059237  0.004908  0.918006  0.006  0.078659  0.003236  0.975071  0.004  0.078082  0.002316  0.975235  0.003  0.101256  0.078971  0.003929  0.975055  0.005
H  H36  1  0.27942601  0.61540380  0.12730956  1  0.323542  6.5e-05  0.984446  0.0  0.288797  3.5e-05  1.079888  0.0  0.300545  3.3e-05  1.067137  0.0  0.274231  0.280785  4e-05  1.088451  0.0
H  H37  1  0.72056385  0.38459564  0.87269061  1  0.323562  6.4e-05  0.984404  0.0  0.288797  3.5e-05  1.079901  0.0  0.300543  3.3e-05  1.067152  0.0  0.274183  0.280782  4e-05  1.088469  0.0
H  H38  1  0.07741545  0.30063182  0.13329584  1  0.293656  -0.001517  0.902164  -0.002  0.287872  -4.1e-05  0.956655  0.0  0.29372  -0.000326  0.954486  -0.001  0.29084  0.283798  0.0002  0.958398  0.0
H  H39  1  0.92258013  0.69937253  0.86670329  1  0.293647  -0.001517  0.902164  -0.002  0.287858  -4.1e-05  0.956661  0.0  0.293705  -0.000326  0.954492  -0.001  0.290828  0.283785  0.000199  0.958407  0.0
H  H40  1  0.09385641  0.24546604  0.01127831  1  0.275611  -0.000526  0.960893  0.0  0.255079  0.000621  1.040854  0.001  0.263868  0.00027  1.034798  0.0  0.275376  0.24891  0.000883  1.045395  0.001
H  H41  1  0.90614451  0.75453443  0.98872069  1  0.275623  -0.000525  0.960894  0.0  0.255099  0.000621  1.04083  0.001  0.263888  0.00027  1.034774  0.0  0.275388  0.248931  0.000883  1.045378  0.001
C  C42  1  0.82399385  0.31806781  0.56840347  1  -0.139929  -2.7e-05  3.811383  0.0  -0.150163  -3.5e-05  4.052823  0.0  -0.156264  -4.3e-05  4.078342  0.0  -0.105723  -0.146092  -2.4e-05  4.035309  0.0
C  C43  1  0.17600636  0.68192776  0.43160572  1  -0.139915  -3.4e-05  3.811171  0.0  -0.150092  -3.6e-05  4.052629  0.0  -0.156187  -4.4e-05  4.078138  0.0  -0.105671  -0.146026  -2.4e-05  4.03512  0.0
C  C44  1  0.62527880  0.16451951  0.64751470  1  -0.127589  2.1e-05  3.800665  0.0  -0.140355  1.2e-05  4.042677  0.0  -0.146524  8e-06  4.069053  0.0  -0.101595  -0.136703  1.3e-05  4.024942  0.0
C  C45  1  0.37471662  0.83547409  0.35249033  1  -0.127604  -0.0  3.800805  0.0  -0.140393  1.2e-05  4.042802  0.0  -0.146569  7e-06  4.069187  0.0  -0.101601  -0.136733  1.3e-05  4.025041  0.0
C  C46  1  0.61360381  0.22159608  0.74460844  1  0.117722  1.2e-05  3.740646  0.0  0.090248  -1.1e-05  3.994209  0.0  0.096027  -1.7e-05  4.012763  0.0  0.036388  0.086555  -6e-06  3.981764  0.0
C  C47  1  0.38639186  0.77839459  0.25539204  1  0.117573  1.6e-05  3.740702  0.0  0.090139  -1.1e-05  3.994222  0.0  0.095918  -1.6e-05  4.012777  0.0  0.036313  0.086454  -6e-06  3.981769  0.0
C  C48  1  0.80290616  0.37049719  0.66797856  1  0.113265  -4.4e-05  3.727041  0.0  0.086957  -3.5e-05  3.976651  0.0  0.092208  -3.9e-05  3.995516  0.0  0.03509  0.083788  -2.3e-05  3.963761  0.0
C  C49  1  0.19708803  0.62949640  0.33203060  1  0.113153  -3.9e-05  3.727077  0.0  0.086827  -3.6e-05  3.976691  0.0  0.092086  -3.7e-05  3.995561  0.0  0.034992  0.083662  -2.3e-05  3.963794  0.0
C  C50  1  0.82099243  0.03390640  0.26472725  1  -0.153394  -0.000333  3.680318  0.0  -0.116528  -9.1e-05  3.96005  0.0  -0.123833  -9.7e-05  3.988056  0.0  -0.123776  -0.111154  -9.8e-05  3.940446  0.0
C  C51  1  0.17900964  0.96609505  0.73527154  1  -0.15343  -0.000328  3.680195  0.0  -0.116572  -9.2e-05  3.959935  0.0  -0.123873  -9.7e-05  3.987932  0.0  -0.123807  -0.111202  -9.8e-05  3.940345  0.0
C  C52  1  0.73457016  0.21155989  0.55637212  1  -0.158434  1.9e-05  3.68822  0.0  -0.121437  -1.4e-05  3.967692  0.0  -0.128126  -1.8e-05  3.99383  0.0  -0.123646  -0.116321  -1e-05  3.949406  0.0
C  C53  1  0.26543125  0.78843568  0.44363053  1  -0.158399  2.2e-05  3.688418  0.0  -0.1214  -1.4e-05  3.967862  0.0  -0.12809  -1.7e-05  3.994005  0.0  -0.123656  -0.116283  -1e-05  3.949577  0.0
C  C54  1  0.70275622  0.03309209  0.19316383  1  -0.149065  0.00029  3.815961  0.0  -0.161362  0.000138  4.054624  0.0  -0.168253  0.000101  4.082892  0.0  -0.107568  -0.156726  0.000209  4.034863  0.0
C  C55  1  0.29724816  0.96691132  0.80683776  1  -0.149045  0.000293  3.816009  0.0  -0.161312  0.000138  4.05468  0.0  -0.168206  0.0001  4.082953  0.0  -0.107517  -0.156674  0.000209  4.034924  0.0
C  C56  1  0.74152848  0.96392608  0.10200420  1  0.108206  -9.4e-05  3.772904  0.0  0.084283  2.7e-05  4.026512  0.0  0.088935  -1.6e-05  4.045933  0.0  0.032583  0.081146  4.9e-05  4.01328  0.0
C  C57  1  0.25848100  0.03607541  0.89798906  1  0.108241  -0.000113  3.772976  0.0  0.084289  2.9e-05  4.026584  0.0  0.088939  -1.6e-05  4.04601  0.0  0.032617  0.081153  4.9e-05  4.013349  0.0
C  C58  1  0.00429687  0.90328474  0.14281297  1  0.115907  -5.7e-05  3.74713  0.0  0.088868  0.000108  4.005887  0.0  0.094214  3.6e-05  4.023681  0.0  0.034417  0.085374  0.000172  3.993648  0.0
C  C59  1  0.99571137  0.09671674  0.85718041  1  0.115676  -6.1e-05  3.747099  0.0  0.088638  0.000107  4.005856  0.0  0.093988  3.7e-05  4.023643  0.0  0.03428  0.085145  0.000172  3.993613  0.0
C  C60  1  0.97650377  0.96813796  0.23651321  1  -0.11733  0.000415  3.764547  0.0  -0.129416  0.000185  4.003119  0.0  -0.135127  0.000143  4.029521  0.0  -0.10181  -0.125636  0.000255  3.985087  0.0
C  C61  1  0.02350174  0.03186643  0.76348817  1  -0.117277  0.000425  3.764534  0.0  -0.129382  0.000187  4.003145  0.0  -0.135065  0.000141  4.029538  0.0  -0.101852  -0.125605  0.000255  3.985116  0.0
C  C62  1  0.75127970  0.40542067  0.18132392  1  0.128895  -0.011104  3.687136  -0.007  0.101407  -0.002747  3.937263  -0.002  0.110145  -0.004486  3.955974  -0.003  0.04257  0.095764  -0.001443  3.924942  -0.001
C  C63  1  0.24872262  0.59457785  0.81867112  1  0.128746  -0.011131  3.687088  -0.007  0.101238  -0.002746  3.937277  -0.002  0.109974  -0.004486  3.955991  -0.003  0.042469  0.095587  -0.001442  3.924969  -0.001
C  C64  1  0.64556629  0.40564574  0.27956968  1  -0.142827  0.009505  3.810844  0.01  -0.153803  0.003834  4.057787  0.004  -0.161702  0.003532  4.083603  0.004  -0.103481  -0.148602  0.004049  4.040829  0.005
C  C65  1  0.35443755  0.59434986  0.72042470  1  -0.142695  0.009523  3.810716  0.01  -0.153597  0.003834  4.057623  0.004  -0.161496  0.003534  4.08344  0.004  -0.103356  -0.148385  0.004049  4.040671  0.005
C  C66  1  0.86913169  0.59038664  0.21361344  1  0.124937  -0.011004  3.691042  -0.007  0.094481  -0.002717  3.948232  -0.002  0.103573  -0.004468  3.966818  -0.003  0.040464  0.088491  -0.0014  3.936522  -0.001
C  C67  1  0.13086702  0.40961089  0.78638365  1  0.124864  -0.01102  3.690997  -0.007  0.094428  -0.002718  3.948214  -0.002  0.103523  -0.00447  3.966799  -0.003  0.04042  0.088446  -0.001401  3.936498  -0.001
C  C68  1  0.76878005  0.59597948  0.31355876  1  -0.11935  0.009718  3.756818  0.01  -0.132191  0.003883  4.000424  0.005  -0.139271  0.003596  4.024978  0.004  -0.095124  -0.12734  0.004082  3.983563  0.005
C  C69  1  0.23122370  0.40401709  0.68643473  1  -0.119202  0.009743  3.756628  0.01  -0.132064  0.003882  4.000233  0.005  -0.139147  0.003598  4.024793  0.004  -0.09508  -0.127214  0.004082  3.983372  0.005
C  C70  1  0.34917698  0.43624509  0.10007452  1  0.107356  0.000852  3.661969  0.001  0.052416  0.000513  3.9329  0.001  0.058831  0.000314  3.938959  0.001  -0.091002  0.04817  0.000707  3.928677  0.001
C  C71  1  0.65081871  0.56375829  0.89992630  1  0.107574  0.000837  3.661654  0.001  0.05254  0.000514  3.932677  0.001  0.058957  0.000316  3.938734  0.001  -0.090964  0.048301  0.000707  3.928453  0.001
C  C72  1  0.30086965  0.32993652  0.03929561  1  0.044137  -0.003731  3.64957  -0.004  -0.010005  -0.000204  3.920509  -0.002  -0.004973  -0.001095  3.93351  -0.002  -0.080333  -0.013134  0.000516  3.911713  -0.001
C  C73  1  0.69912871  0.67006491  0.96070595  1  0.044083  -0.003732  3.649627  -0.004  -0.010064  -0.000201  3.920584  -0.002  -0.005027  -0.001094  3.933583  -0.002  -0.080322  -0.013194  0.000516  3.911791  -0.001
C  C74  1  0.65262914  0.50201144  0.34884966  1  -0.132222  -0.012159  3.648953  -0.007  -0.100885  -0.004771  3.932021  -0.003  -0.104718  -0.005582  3.957124  -0.003  -0.116188  -0.098393  -0.004002  3.914955  -0.002
C  C75  1  0.34737386  0.49798024  0.65114840  1  -0.132329  -0.012189  3.648951  -0.007  -0.101017  -0.004766  3.932047  -0.003  -0.104853  -0.005589  3.957153  -0.003  -0.116248  -0.098524  -0.004001  3.914984  -0.002
N  N76  1  0.70167906  0.32203457  0.75579948  1  -0.326852  -5.1e-05  3.20611  0.0  -0.263434  -4.4e-05  3.455388  0.0  -0.278487  -3.6e-05  3.473444  0.0  -0.317657  -0.253541  -4.7e-05  3.443167  0.0
N  N77  1  0.29830816  0.67795409  0.24420843  1  -0.326652  -6.2e-05  3.206167  0.0  -0.263268  -4.4e-05  3.455412  0.0  -0.278321  -3.7e-05  3.473467  0.0  -0.317518  -0.253376  -4.6e-05  3.443181  0.0
N  N78  1  0.88860289  0.89792603  0.07703202  1  -0.323659  0.001374  3.159683  0.002  -0.272363  0.000574  3.416247  0.001  -0.285212  0.000241  3.433408  0.0  -0.321329  -0.263234  0.001048  3.404532  0.001
N  N79  1  0.11140614  0.10208035  0.92296562  1  -0.323481  0.00137  3.159388  0.002  -0.272179  0.000572  3.415944  0.001  -0.285029  0.00024  3.433106  0.0  -0.321182  -0.26304  0.001048  3.404216  0.001
N  N80  1  0.86081509  0.49712827  0.14823448  1  -0.292678  0.080151  3.339492  0.103  -0.234632  0.056279  3.622765  0.077  -0.263912  0.046966  3.644979  0.068  -0.352984  -0.217363  0.061546  3.609655  0.08
N  N81  1  0.13918839  0.50287123  0.85176116  1  -0.292506  0.08016  3.339457  0.103  -0.234509  0.056279  3.622787  0.077  -0.263789  0.046964  3.645002  0.068  -0.352926  -0.217239  0.061543  3.609677  0.08
N  N82  1  0.11849788  0.32296523  0.05179354  1  -0.584055  0.096409  3.124859  0.121  -0.562797  0.064112  3.400413  0.084  -0.594396  0.051707  3.402756  0.074  -0.632965  -0.543464  0.071166  3.400085  0.089
N  N83  1  0.88150047  0.67703620  0.94820642  1  -0.584097  0.096398  3.125023  0.121  -0.562819  0.064106  3.400555  0.084  -0.594416  0.051703  3.402893  0.074  -0.63296  -0.543488  0.071159  3.400238  0.089
Cl  Cl84  1  0.79046377  0.77668069  0.62740789  1  1.38838  2.2e-05  6.203486  0.0  1.33028  9e-06  6.764295  0.0  1.382457  1.3e-05  6.740026  0.0  0.720196  1.294262  3.5e-05  6.779624  0.0
Cl  Cl85  1  0.20953746  0.22332955  0.37259413  1  1.38827  1.4e-05  6.203294  0.0  1.330062  1.6e-05  6.764248  0.0  1.382237  1.6e-05  6.739984  0.0  0.720029  1.29405  3.5e-05  6.779574  0.0
O  O86  1  0.72827892  0.68467467  0.56505929  1  -0.560995  6.3e-05  1.873047  0.0  -0.533366  8.6e-05  2.127959  0.0  -0.549041  5e-05  2.113887  0.0  -0.321513  -0.521996  0.000116  2.136741  0.0
O  O87  1  0.27171554  0.31534141  0.43494201  1  -0.560895  5.8e-05  1.873104  0.0  -0.533203  7.9e-05  2.127983  0.0  -0.548875  5.2e-05  2.113916  0.0  -0.321382  -0.521837  0.000116  2.136767  0.0
O  O88  1  0.92184625  0.70905943  0.68731964  1  -0.562187  -0.0001  1.846876  0.0  -0.532132  -1.7e-05  2.092817  0.0  -0.547852  -5.2e-05  2.080498  0.0  -0.319639  -0.52088  3.9e-05  2.101101  0.0
O  O89  1  0.07815790  0.29094595  0.31267616  1  -0.562139  -7.8e-05  1.84689  0.0  -0.532088  -1.2e-05  2.092885  0.0  -0.547808  -6.4e-05  2.080563  0.0  -0.319625  -0.520837  3.9e-05  2.10116  0.0
O  O90  1  0.86019987  0.88484258  0.55323906  1  -0.556145  1.8e-05  1.893407  0.0  -0.523738  2.4e-05  2.151127  0.0  -0.540567  1.5e-05  2.136924  0.0  -0.318506  -0.511873  4.1e-05  2.160414  0.0
O  O91  1  0.13979880  0.11516863  0.44676472  1  -0.556203  2.1e-05  1.893218  0.0  -0.52381  2.3e-05  2.150978  0.0  -0.540633  1.9e-05  2.136754  0.0  -0.318591  -0.51193  4.1e-05  2.160215  0.0
O  O92  1  0.65461566  0.82684662  0.70501792  1  -0.554603  9.7e-05  1.856078  0.0  -0.527376  9.3e-05  2.099737  0.0  -0.542906  4.2e-05  2.086018  0.0  -0.319208  -0.516372  0.000131  2.108673  0.0
O  O93  1  0.34539323  0.17316170  0.29498918  1  -0.554644  8.3e-05  1.856132  0.0  -0.52729  9.1e-05  2.099705  0.0  -0.542816  4.8e-05  2.085984  0.0  -0.319095  -0.51629  0.000131  2.108642  0.0
O  O94  1  0.26772065  0.56020191  0.06700574  1  -0.582115  -0.001658  2.096087  0.0  -0.531767  -0.001761  2.349954  0.0  -0.549716  -0.002004  2.334926  -0.001  -0.424717  -0.519335  -0.001486  2.360205  0.0
O  O95  1  0.73227873  0.43980148  0.93299071  1  -0.582178  -0.001658  2.096029  0.0  -0.531819  -0.001763  2.349974  0.0  -0.54977  -0.002003  2.334947  -0.001  -0.424687  -0.519386  -0.001486  2.360224  0.0
