# generated using pymatgen
data_ZnH9C14(NO2)2
_symmetry_space_group_name_H-M   'P 1'
_cell_length_a   9.16626964
_cell_length_b   10.76661340
_cell_length_c   14.83011227
_cell_angle_alpha   90.00002418
_cell_angle_beta   89.99998556
_cell_angle_gamma   108.12345180
_symmetry_Int_Tables_number   1
_chemical_formula_structural   ZnH9C14(NO2)2
_chemical_formula_sum   'Zn4 H36 C56 N8 O16'
_cell_volume   1390.96868852
_cell_formula_units_Z   4
loop_
 _symmetry_equiv_pos_site_id
 _symmetry_equiv_pos_as_xyz
  1  'x, y, z'
loop_
 _atom_site_type_symbol
 _atom_site_label
 _atom_site_symmetry_multiplicity
 _atom_site_fract_x
 _atom_site_fract_y
 _atom_site_fract_z
 _atom_site_occupancy
 _atom_site_pbe_bader_spin_density
 _atom_site_pbe_cm5_charge
 _atom_site_pbe_ddec_charge
 _atom_site_pbe_ddec_spin_density
 _atom_site_pbe_ddec_sum_bond_order
 _atom_site_pbe_magmom
Zn  Zn0  1  0.35896732  0.88782667  0.00185984  1  0  0.67291  0.839682  0  2.386106  0
Zn  Zn1  1  0.14103604  0.61217439  0.50185670  1  0  0.672927  0.839663  0  2.386077  0
Zn  Zn2  1  0.64103464  0.11217412  0.99814144  1  0  0.672888  0.839636  0  2.386331  0
Zn  Zn3  1  0.85896561  0.38782250  0.49814255  1  0  0.672887  0.839655  0  2.386226  0
H  H4  1  0.64867266  0.43229852  0.08557523  1  0  0.120017  0.093587  0  1.007865  0
H  H5  1  0.85132616  0.06770275  0.58557677  1  0  0.12001  0.093584  0  1.007815  0
H  H6  1  0.35132383  0.56770224  0.91442604  1  0  0.120034  0.093602  0  1.007855  0
H  H7  1  0.14866994  0.93229995  0.41442383  1  0  0.120027  0.093625  0  1.007847  0
H  H8  1  0.19284950  0.66190347  0.12288924  1  0  0.127279  0.105389  0  0.969612  0
H  H9  1  0.30714950  0.83809470  0.62288682  1  0  0.127291  0.105398  0  0.969643  0
H  H10  1  0.80715036  0.33809146  0.87711203  1  0  0.127302  0.105428  0  0.969629  0
H  H11  1  0.69284669  0.16190215  0.37711310  1  0  0.127306  0.105419  0  0.969629  0
H  H12  1  0.36700803  0.47501810  0.69691722  1  0  0.101881  0.104407  0  1.051375  0
H  H13  1  0.13299486  0.02498485  0.19691556  1  0  0.101894  0.104431  0  1.051402  0
H  H14  1  0.63298845  0.52498265  0.30308540  1  0  0.101904  0.104408  0  1.051324  0
H  H15  1  0.86701326  0.97501794  0.80307897  1  0  0.101911  0.104453  0  1.051416  0
H  H16  1  0.92293844  0.51382393  0.14271707  1  0  0.115891  0.128118  0  0.977193  0
H  H17  1  0.57705531  0.98617555  0.64271675  1  0  0.115872  0.128101  0  0.977164  0
H  H18  1  0.07706138  0.48617392  0.85728286  1  0  0.115902  0.128101  0  0.977209  0
H  H19  1  0.42293790  0.01382519  0.35728385  1  0  0.115901  0.128113  0  0.977204  0
H  H20  1  0.50364425  0.37111726  0.80791231  1  0  0.104349  0.10991  0  1.007293  0
H  H21  1  0.99635779  0.12888415  0.30791130  1  0  0.104362  0.109935  0  1.007282  0
H  H22  1  0.49635587  0.62888449  0.19208896  1  0  0.104337  0.109908  0  1.007279  0
H  H23  1  0.00364272  0.87111566  0.69208390  1  0  0.104307  0.109867  0  1.007346  0
H  H24  1  0.09393109  0.04572774  0.83323577  1  0  0.101802  0.102487  0  1.037201  0
H  H25  1  0.40606635  0.45427232  0.33323690  1  0  0.1018  0.102495  0  1.037216  0
H  H26  1  0.90606833  0.95427206  0.16676483  1  0  0.101801  0.102539  0  1.03717  0
H  H27  1  0.59393088  0.54572747  0.66676101  1  0  0.10179  0.102502  0  1.037176  0
H  H28  1  0.95848640  0.15090899  0.72301538  1  0  0.102946  0.103184  0  1.028188  0
H  H29  1  0.54151383  0.34909334  0.22301721  1  0  0.102939  0.103175  0  1.028189  0
H  H30  1  0.04151123  0.84908885  0.27698589  1  0  0.102943  0.103166  0  1.028268  0
H  H31  1  0.45848808  0.65091038  0.77698272  1  0  0.102919  0.10311  0  1.028297  0
H  H32  1  0.79632185  0.70114700  0.91117252  1  0  0.109484  0.116777  0  1.044188  0
H  H33  1  0.70368019  0.79885463  0.41117363  1  0  0.109485  0.116765  0  1.044209  0
H  H34  1  0.20368304  0.29885284  0.08882673  1  0  0.109486  0.116772  0  1.04422  0
H  H35  1  0.29631661  0.20115003  0.58882630  1  0  0.109464  0.116751  0  1.044216  0
H  H36  1  0.07236192  0.84043333  0.90040666  1  0  0.120545  0.097356  0  1.01035  0
H  H37  1  0.42764209  0.65956697  0.40040702  1  0  0.120545  0.097361  0  1.010328  0
H  H38  1  0.92763864  0.15956356  0.09959394  1  0  0.12052  0.09732  0  1.010357  0
H  H39  1  0.57235733  0.34043283  0.59959358  1  0  0.120517  0.097355  0  1.010313  0
C  C40  1  0.15675210  0.31878950  0.70345392  1  0  -0.016146  -0.029891  0  3.970949  0
C  C41  1  0.34324463  0.18121146  0.20345295  1  0  -0.016107  -0.0299  0  3.970983  0
C  C42  1  0.84324334  0.68120832  0.29654803  1  0  -0.016082  -0.029783  0  3.970948  0
C  C43  1  0.65676201  0.81879326  0.79654293  1  0  -0.016188  -0.029929  0  3.971092  0
C  C44  1  0.30638809  0.20072443  0.82558513  1  0  -0.01562  -0.024408  0  3.951358  0
C  C45  1  0.19361154  0.29927564  0.32558489  1  0  -0.015621  -0.024373  0  3.951392  0
C  C46  1  0.69361133  0.79927537  0.17441615  1  0  -0.015641  -0.024309  0  3.951361  0
C  C47  1  0.80638683  0.70072123  0.67441571  1  0  -0.01563  -0.024429  0  3.951393  0
C  C48  1  0.10085118  0.66692889  0.07778777  1  0  0.055549  0.098711  0  3.921335  0
C  C49  1  0.39914779  0.83307218  0.57778601  1  0  0.055528  0.098693  0  3.921503  0
C  C50  1  0.89915231  0.33306703  0.92221215  1  0  0.0555  0.098575  0  3.921462  0
C  C51  1  0.60084577  0.16692954  0.42221324  1  0  0.055492  0.098625  0  3.921375  0
C  C52  1  0.30984791  0.38090424  0.72780976  1  0  -0.089609  -0.113238  0  3.986425  0
C  C53  1  0.19015318  0.11909676  0.22781015  1  0  -0.089662  -0.113289  0  3.986587  0
C  C54  1  0.69014967  0.61909652  0.27219353  1  0  -0.089692  -0.113293  0  3.9865  0
C  C55  1  0.80984912  0.88090501  0.77218573  1  0  -0.089685  -0.113349  0  3.986611  0
C  C56  1  0.38452600  0.13477994  0.89031692  1  0  0.214415  0.591157  0  4.169215  0
C  C57  1  0.11547471  0.36522017  0.39031739  1  0  0.214397  0.591026  0  4.169446  0
C  C58  1  0.61546520  0.86520908  0.10968368  1  0  0.21441  0.591018  0  4.16913  0
C  C59  1  0.88454237  0.63479242  0.60968388  1  0  0.214477  0.591136  0  4.169034  0
C  C60  1  0.95080600  0.58509895  0.08813489  1  0  -0.072478  -0.164871  0  3.938389  0
C  C61  1  0.54919065  0.91490247  0.58813320  1  0  -0.072515  -0.164948  0  3.938467  0
C  C62  1  0.04919600  0.41489892  0.91186571  1  0  -0.072465  -0.164788  0  3.938392  0
C  C63  1  0.45080177  0.08510216  0.41186470  1  0  -0.072521  -0.164899  0  3.938387  0
C  C64  1  0.38479172  0.32293820  0.78834941  1  0  -0.08597  -0.100143  0  3.980649  0
C  C65  1  0.11520976  0.17706089  0.28834915  1  0  -0.085967  -0.100151  0  3.980631  0
C  C66  1  0.61520556  0.67705866  0.21165321  1  0  -0.085931  -0.100164  0  3.980602  0
C  C67  1  0.88479548  0.82293993  0.71164808  1  0  -0.085935  -0.100082  0  3.980527  0
C  C68  1  0.83699100  0.59665412  0.02843677  1  0  0.01511  0.107451  0  4.006196  0
C  C69  1  0.66300456  0.90334726  0.52843776  1  0  0.015152  0.107559  0  4.00602  0
C  C70  1  0.16300951  0.40334569  0.97156451  1  0  0.015074  0.107379  0  4.006255  0
C  C71  1  0.33698785  0.09665737  0.47156284  1  0  0.015152  0.107501  0  4.00611  0
C  C72  1  0.15259557  0.13959095  0.80224208  1  0  -0.086437  -0.098533  0  3.96626  0
C  C73  1  0.34740297  0.36040911  0.30224252  1  0  -0.086424  -0.098546  0  3.9663  0
C  C74  1  0.84740131  0.86040786  0.19775987  1  0  -0.086421  -0.098682  0  3.966413  0
C  C75  1  0.65259864  0.63959071  0.69775606  1  0  -0.086429  -0.098584  0  3.966393  0
C  C76  1  0.08268670  0.38187902  0.63463854  1  0  0.21268  0.590213  0  4.175521  0
C  C77  1  0.41731914  0.11812294  0.13463889  1  0  0.212632  0.59021  0  4.175723  0
C  C78  1  0.91731884  0.61812569  0.36536206  1  0  0.212668  0.590143  0  4.175863  0
C  C79  1  0.58268540  0.88187592  0.86535969  1  0  0.212605  0.590082  0  4.175796  0
C  C80  1  0.07789282  0.19773697  0.74167951  1  0  -0.085037  -0.100828  0  3.989949  0
C  C81  1  0.42210827  0.30226405  0.24167991  1  0  -0.085025  -0.10077  0  3.989846  0
C  C82  1  0.92210586  0.80226381  0.25832312  1  0  -0.085063  -0.100759  0  3.989989  0
C  C83  1  0.57789075  0.69773770  0.75831597  1  0  -0.08496  -0.100643  0  3.989806  0
C  C84  1  0.67754002  0.51490471  0.03824721  1  0  0.084039  0.052913  0  3.881872  0
C  C85  1  0.82245703  0.98509473  0.53824821  1  0  0.084086  0.052909  0  3.881836  0
C  C86  1  0.32246123  0.48509413  0.96175271  1  0  0.084044  0.052937  0  3.881854  0
C  C87  1  0.17753946  0.01490602  0.46175105  1  0  0.084016  0.05284  0  3.881876  0
C  C88  1  0.88114528  0.68991922  0.95910943  1  0  -0.071043  -0.147378  0  3.904967  0
C  C89  1  0.61885714  0.81008048  0.45911056  1  0  -0.071042  -0.147385  0  3.904931  0
C  C90  1  0.11885632  0.31008060  0.04089184  1  0  -0.071107  -0.147441  0  3.905012  0
C  C91  1  0.38114149  0.18992321  0.54088937  1  0  -0.071049  -0.147335  0  3.904954  0
C  C92  1  0.03295011  0.76674795  0.95283511  1  0  0.04983  0.09285  0  3.916545  0
C  C93  1  0.46705170  0.73325236  0.45283616  1  0  0.049813  0.092818  0  3.916519  0
C  C94  1  0.96705150  0.23325186  0.04716616  1  0  0.04991  0.092936  0  3.916541  0
C  C95  1  0.53294588  0.26674840  0.54716444  1  0  0.049844  0.092742  0  3.916595  0
N  N96  1  0.57260351  0.54162211  0.99067157  1  0  -0.197617  -0.144109  0  3.289677  0
N  N97  1  0.92739124  0.95837756  0.49067404  1  0  -0.197661  -0.144118  0  3.289802  0
N  N98  1  0.42739665  0.45837672  0.00932836  1  0  -0.197624  -0.144107  0  3.289653  0
N  N99  1  0.07260087  0.04162317  0.50932925  1  0  -0.197619  -0.144099  0  3.289598  0
N  N100  1  0.14158528  0.75644134  0.01142416  1  0  -0.320009  -0.209493  0  3.514028  0
N  N101  1  0.35841589  0.74355971  0.51142373  1  0  -0.320027  -0.209482  0  3.514144  0
N  N102  1  0.85841567  0.24355359  0.98857509  1  0  -0.319999  -0.209409  0  3.514119  0
N  N103  1  0.64158388  0.25644107  0.48857687  1  0  -0.319997  -0.209372  0  3.513968  0
O  O104  1  0.94863964  0.31736576  0.60727455  1  0  -0.317463  -0.546579  0  2.314555  0
O  O105  1  0.55136577  0.18263264  0.10727632  1  0  -0.317412  -0.546582  0  2.314848  0
O  O106  1  0.05135514  0.68262719  0.39272471  1  0  -0.317456  -0.54656  0  2.315093  0
O  O107  1  0.44865035  0.81737117  0.89272563  1  0  -0.317417  -0.54651  0  2.31494  0
O  O108  1  0.52169392  0.19716471  0.91323381  1  0  -0.31511  -0.542303  0  2.323385  0
O  O109  1  0.97830381  0.30283088  0.41323623  1  0  -0.315139  -0.542276  0  2.323404  0
O  O110  1  0.47830773  0.80283218  0.08676544  1  0  -0.315074  -0.542213  0  2.323496  0
O  O111  1  0.02169342  0.69716891  0.58676572  1  0  -0.315108  -0.542245  0  2.323605  0
O  O112  1  0.16224514  0.49509698  0.60829013  1  0  -0.320347  -0.555246  0  2.347682  0
O  O113  1  0.33775817  0.00490398  0.10829046  1  0  -0.32036  -0.55526  0  2.34764  0
O  O114  1  0.83775363  0.50489795  0.39171182  1  0  -0.320393  -0.555345  0  2.347555  0
O  O115  1  0.66224990  0.99510173  0.89171149  1  0  -0.320301  -0.55522  0  2.347552  0
O  O116  1  0.30651080  0.02101713  0.91689122  1  0  -0.315749  -0.557069  0  2.354837  0
O  O117  1  0.19348885  0.47898006  0.41689238  1  0  -0.31573  -0.557004  0  2.354982  0
O  O118  1  0.69349050  0.97897878  0.08310533  1  0  -0.315827  -0.557104  0  2.35454  0
O  O119  1  0.80651131  0.52101877  0.58310417  1  0  -0.315854  -0.557135  0  2.354441  0
