# generated using pymatgen
data_CuSiH12C24(N2F5)2
_symmetry_space_group_name_H-M   'P 1'
_cell_length_a   7.97423520
_cell_length_b   13.77242354
_cell_length_c   13.77239185
_cell_angle_alpha   90.00703086
_cell_angle_beta   89.98460332
_cell_angle_gamma   89.98542053
_symmetry_Int_Tables_number   1
_chemical_formula_structural   CuSiH12C24(N2F5)2
_chemical_formula_sum   'Cu1 Si1 H12 C24 N4 F10'
_cell_volume   1512.54654741
_cell_formula_units_Z   1
loop_
 _symmetry_equiv_pos_site_id
 _symmetry_equiv_pos_as_xyz
  1  'x, y, z'
loop_
 _atom_site_type_symbol
 _atom_site_label
 _atom_site_symmetry_multiplicity
 _atom_site_fract_x
 _atom_site_fract_y
 _atom_site_fract_z
 _atom_site_occupancy
 _atom_site_pbe_bader_charge
 _atom_site_pbe_bader_spin_density
 _atom_site_pbe_cm5_charge
 _atom_site_pbe_ddec_charge
 _atom_site_pbe_ddec_spin_density
 _atom_site_pbe_ddec_sum_bond_order
 _atom_site_pbe_magmom
Cu  Cu0  1  0.50001073  0.49999165  0.50000314  1  1.086249  0.572206  0.775284  0.698868  0.734819  2.263876  0.57
Si  Si1  1  0.00000917  0.50000224  0.49999323  1  3.171011  -0.000199  0.244728  1.719196  -0.000377  3.962167  0.0
H  H2  1  0.24081156  0.65597742  0.50013877  1  0.201972  0.002133  0.122149  0.114484  0.001005  1.04219  0.002
H  H3  1  0.22906880  0.83642651  0.50010062  1  0.122763  0.001534  0.125957  0.140099  0.0008  0.962808  0.001
H  H4  1  0.76553987  0.65798359  0.49985217  1  0.224512  0.002552  0.127123  0.139288  0.001227  1.0314  0.002
H  H5  1  0.23446907  0.34200334  0.50009747  1  0.225218  0.002551  0.127115  0.13938  0.001227  1.031246  0.002
H  H6  1  0.75919233  0.34401679  0.49996988  1  0.202604  0.002133  0.12209  0.114534  0.001006  1.042232  0.002
H  H7  1  0.77095013  0.16356914  0.50001965  1  0.12205  0.001535  0.125926  0.140185  0.0008  0.962718  0.001
H  H8  1  0.24082713  0.50018941  0.65597651  1  0.20248  0.002133  0.122103  0.114423  0.001006  1.042134  0.002
H  H9  1  0.22907959  0.50010765  0.83642897  1  0.122786  0.001535  0.125984  0.140165  0.0008  0.962869  0.001
H  H10  1  0.76555542  0.49988750  0.65798276  1  0.224778  0.002552  0.127097  0.139332  0.001227  1.031368  0.002
H  H11  1  0.23448234  0.50017277  0.34201190  1  0.224828  0.002551  0.127092  0.139224  0.001226  1.031359  0.002
H  H12  1  0.75921066  0.49970022  0.34402177  1  0.2012  0.002134  0.122114  0.114551  0.001005  1.04224  0.002
H  H13  1  0.77095945  0.49977908  0.16356931  1  0.121545  0.001534  0.126053  0.14027  0.000799  0.962922  0.001
C  C14  1  0.35552627  0.69871488  0.50006894  1  0.493273  -0.001032  0.048605  0.077149  -0.001372  3.912618  -0.001
C  C15  1  0.34968574  0.79931923  0.50006031  1  -0.051988  0.006122  -0.061818  -0.130781  0.004065  3.890892  0.005
C  C16  1  0.49951718  0.85351553  0.50002196  1  0.179801  -0.003313  0.011871  0.058478  -0.003747  4.132853  -0.002
C  C17  1  0.64903609  0.79938669  0.49996247  1  0.3817  0.00624  0.118594  0.216088  0.004027  3.999565  0.005
C  C18  1  0.64819638  0.69867607  0.49994692  1  0.609863  -0.000994  0.045763  -0.03093  -0.001048  3.901355  -0.001
C  C19  1  0.50046563  0.95577924  0.50002381  1  -0.056562  -0.001147  -0.023373  -0.065138  -0.001258  4.092617  -0.001
C  C20  1  0.49955958  0.04420843  0.50003474  1  -0.2881  -0.001195  -0.02332  -0.064722  -0.001258  4.092694  -0.001
C  C21  1  0.50050428  0.14647214  0.50003949  1  0.178914  -0.003314  0.011695  0.057891  -0.003748  4.133444  -0.002
C  C22  1  0.35098036  0.20060025  0.50004961  1  0.382131  0.006243  0.118677  0.216201  0.004027  3.999734  0.005
C  C23  1  0.35181380  0.30131014  0.50005645  1  0.609744  -0.000992  0.04599  -0.030765  -0.001047  3.900948  -0.001
C  C24  1  0.64448138  0.30127787  0.50001139  1  0.493013  -0.001034  0.048801  0.077134  -0.001375  3.912822  -0.001
C  C25  1  0.65032818  0.20067062  0.50002293  1  -0.050973  0.006123  -0.061834  -0.130746  0.004066  3.891337  0.005
C  C26  1  0.35553629  0.50010916  0.69871869  1  0.493331  -0.001033  0.048716  0.077586  -0.001375  3.912354  -0.001
C  C27  1  0.34969700  0.50007145  0.79932257  1  -0.05183  0.006123  -0.061815  -0.130991  0.004066  3.890751  0.005
C  C28  1  0.49952776  0.50001120  0.85352057  1  0.179714  -0.003313  0.011814  0.058403  -0.003748  4.133112  -0.002
C  C29  1  0.64904861  0.49996974  0.79938955  1  0.381245  0.006242  0.11857  0.216101  0.004028  3.999521  0.005
C  C30  1  0.64821393  0.49997524  0.69867943  1  0.60993  -0.000991  0.045844  -0.030873  -0.001047  3.901082  -0.001
C  C31  1  0.50046991  0.49997893  0.95577724  1  -0.056479  -0.001147  -0.023523  -0.06536  -0.001259  4.092226  -0.001
C  C32  1  0.49956411  0.49995137  0.04421959  1  -0.288114  -0.001197  -0.023218  -0.064636  -0.001259  4.092226  -0.001
C  C33  1  0.50051629  0.49993217  0.14647626  1  0.179378  -0.003313  0.011643  0.058149  -0.003746  4.133283  -0.002
C  C34  1  0.35099418  0.50002663  0.20060801  1  0.382533  0.006239  0.118717  0.216341  0.004025  3.999788  0.005
C  C35  1  0.35182509  0.50003929  0.30131813  1  0.609207  -0.000994  0.045842  -0.030813  -0.001047  3.901308  -0.001
C  C36  1  0.64449773  0.49981098  0.30128540  1  0.496034  -0.00104  0.04861  0.077369  -0.001373  3.912369  -0.001
C  C37  1  0.65034956  0.49984215  0.20067644  1  -0.051141  0.006121  -0.061877  -0.131164  0.004065  3.891187  0.005
N  N38  1  0.50209958  0.64949824  0.49999763  1  -1.188596  0.093649  -0.327034  -0.189188  0.062286  3.580659  0.082
N  N39  1  0.49791185  0.35049088  0.50004059  1  -1.189377  0.093662  -0.327258  -0.189374  0.062295  3.580625  0.082
N  N40  1  0.50211147  0.50004134  0.64950352  1  -1.189579  0.093674  -0.327158  -0.189442  0.062304  3.580643  0.082
N  N41  1  0.49792254  0.49992744  0.35050057  1  -1.190592  0.093638  -0.327115  -0.18936  0.062274  3.580277  0.082
F  F42  1  0.21773048  0.49976033  0.49976060  1  -0.831276  -0.001742  -0.204643  -0.531607  -0.001898  1.350331  -0.001
F  F43  1  0.78228723  0.50023968  0.50022752  1  -0.831232  -0.001742  -0.20458  -0.53151  -0.001897  1.35028  -0.001
F  F44  1  0.00001529  0.58771853  0.41228182  1  -0.828792  0.000208  -0.251189  -0.543558  0.000187  1.067417  0.0
F  F45  1  0.00000054  0.41228450  0.58770391  1  -0.82862  0.000208  -0.251196  -0.543558  0.000188  1.067437  0.0
F  F46  1  0.99993714  0.58772628  0.58772651  1  -0.828919  0.000208  -0.251198  -0.543565  0.000187  1.067331  0.0
F  F47  1  0.00008056  0.41227736  0.41226306  1  -0.829076  0.000208  -0.251226  -0.543594  0.000187  1.067366  0.0
F  F48  1  0.79796503  0.84635048  0.49990488  1  -0.620748  0.001935  -0.089291  -0.124799  0.001164  1.32768  0.002
F  F49  1  0.20205771  0.15363064  0.50004549  1  -0.620662  0.001936  -0.089394  -0.124809  0.001164  1.327936  0.002
F  F50  1  0.79797569  0.49991056  0.84635430  1  -0.620457  0.001936  -0.089229  -0.124742  0.001164  1.327786  0.002
F  F51  1  0.20207084  0.50014245  0.15364471  1  -0.620702  0.001935  -0.089276  -0.124864  0.001164  1.327989  0.002
