# generated using pymatgen
data_ZnH8C26N3(Cl2O3)4
_symmetry_space_group_name_H-M   'P 1'
_cell_length_a   18.58922351
_cell_length_b   18.98636183
_cell_length_c   19.19934412
_cell_angle_alpha   90.94616796
_cell_angle_beta   90.18505668
_cell_angle_gamma   91.60733970
_symmetry_Int_Tables_number   1
_chemical_formula_structural   ZnH8C26N3(Cl2O3)4
_chemical_formula_sum   'Zn2 H16 C52 N6 Cl16 O24'
_cell_volume   6772.61355197
_cell_formula_units_Z   2
loop_
 _symmetry_equiv_pos_site_id
 _symmetry_equiv_pos_as_xyz
  1  'x, y, z'
loop_
 _atom_site_type_symbol
 _atom_site_label
 _atom_site_symmetry_multiplicity
 _atom_site_fract_x
 _atom_site_fract_y
 _atom_site_fract_z
 _atom_site_occupancy
 _atom_site_pbe_bader_charge
 _atom_site_pbe_bader_spin_density
 _atom_site_pbe_cm5_charge
 _atom_site_pbe_ddec_charge
 _atom_site_pbe_ddec_spin_density
 _atom_site_pbe_ddec_sum_bond_order
 _atom_site_pbe_magmom
Zn  Zn0  1  0.58338491  0.50088109  0.49368461  1  1.301587  0  0.695131  0.902268  0  2.263628  0
Zn  Zn1  1  0.42154189  0.50121540  0.49046421  1  1.304326  0  0.691369  0.866925  0  2.344568  0
H  H2  1  0.61866330  0.53492718  0.32396112  1  0.644872  0  0.303602  0.355123  0  0.966725  0
H  H3  1  0.38507508  0.44785334  0.65159216  1  0.644402  0  0.301703  0.35357  0  0.97184  0
H  H4  1  0.61444364  0.51073536  0.66319524  1  0.66428  0  0.302308  0.354386  0  0.973238  0
H  H5  1  0.34716980  0.42448607  0.25618231  1  0.619008  0  0.310046  0.338488  0  0.937564  0
H  H6  1  0.72466712  0.38160244  0.59901924  1  0.641019  0  0.345009  0.382383  0  0.863778  0
H  H7  1  0.35480838  0.38973199  0.43650485  1  0.667136  0  0.307938  0.378363  0  0.959905  0
H  H8  1  0.73166581  0.62054449  0.39365052  1  0.64891  0  0.34676  0.385463  0  0.857222  0
H  H9  1  0.36337490  0.61095610  0.55193812  1  0.683314  0  0.308845  0.377762  0  0.956866  0
H  H10  1  0.87382386  0.41954851  0.60372160  1  0.64414  0  0.312236  0.360847  0  0.951358  0
H  H11  1  0.19678969  0.36114783  0.41120185  1  0.639997  0  0.332449  0.369992  0  0.884701  0
H  H12  1  0.87893349  0.58360047  0.39173778  1  0.641394  0  0.312228  0.361415  0  0.951636  0
H  H13  1  0.20648626  0.63770496  0.58537889  1  0.630531  0  0.335621  0.373034  0  0.881049  0
H  H14  1  0.90224878  0.47220659  0.36019806  1  0.626455  0  0.356552  0.390501  0  0.835607  0
H  H15  1  0.04241629  0.48516106  0.65901854  1  0.614498  0  0.335638  0.364594  0  0.885293  0
H  H16  1  0.90367333  0.53039318  0.63536149  1  0.636551  0  0.357528  0.392379  0  0.832213  0
H  H17  1  0.04322207  0.51608729  0.33785302  1  0.616318  0  0.334296  0.363914  0  0.885481  0
C  C18  1  0.50641373  0.63509894  0.52333242  1  1.644759  0  0.221671  0.622126  0  4.193989  0
C  C19  1  0.49368864  0.36493555  0.48439968  1  1.618263  0  0.222126  0.627383  0  4.15309  0
C  C20  1  0.49065039  0.14471181  0.54611389  1  0.063711  0  -0.008883  -0.003431  0  3.901093  0
C  C21  1  0.51647290  0.85553656  0.58226739  1  0.088211  0  -0.023515  -0.025252  0  4.034594  0
C  C22  1  0.48694922  0.28724574  0.49786197  1  0.082813  0  -0.021408  -0.12144  0  3.935792  0
C  C23  1  0.50855434  0.71191387  0.54464023  1  0.049401  0  -0.018796  -0.117826  0  3.958999  0
C  C24  1  0.57421317  0.04776463  0.58069670  1  0.126791  0  0.005031  0.046283  0  3.999307  0
C  C25  1  0.45844819  0.96606407  0.62584756  1  0.174634  0  0.000146  0.036557  0  4.04986  0
C  C26  1  0.57965065  0.97469582  0.58481889  1  0.083112  0  -0.002738  0.033094  0  4.061037  0
C  C27  1  0.45508188  0.04008050  0.62547692  1  0.097598  0  0.010524  0.053941  0  3.974635  0
C  C28  1  0.51828793  0.93209475  0.59862386  1  0.079423  0  -0.026716  -0.021502  0  4.042815  0
C  C29  1  0.50477879  0.07973655  0.58311896  1  0.07068  0  -0.010207  -0.004183  0  3.895836  0
C  C30  1  0.73014858  0.45546293  0.53538234  1  1.068078  0  0.199696  0.35259  0  4.114721  0
C  C31  1  0.27243070  0.44886327  0.46174411  1  1.077035  0  0.181917  0.330359  0  4.134167  0
C  C32  1  0.73298746  0.54660727  0.45752390  1  1.046851  0  0.199511  0.35066  0  4.113599  0
C  C33  1  0.27642650  0.55188658  0.52959702  1  1.119556  0  0.183458  0.331784  0  4.126315  0
C  C34  1  0.80554992  0.45337606  0.53710133  1  0.556095  0  0.049265  0.066115  0  4.137958  0
C  C35  1  0.19701016  0.44666742  0.46286678  1  0.558006  0  0.06555  0.112053  0  4.100056  0
C  C36  1  0.80840713  0.54961469  0.45744892  1  0.629881  0  0.048008  0.064746  0  4.138793  0
C  C37  1  0.20104097  0.55295836  0.53210075  1  0.609357  0  0.068787  0.116214  0  4.094373  0
C  C38  1  0.84699758  0.50160574  0.49765325  1  -0.020392  0  -0.024851  -0.087605  0  4.091446  0
C  C39  1  0.16009491  0.49966681  0.49810237  1  0.02443  0  -0.010881  -0.038982  0  3.984877  0
C  C40  1  0.96666836  0.50552355  0.43618139  1  0.362993  0  0.04267  0.086167  0  4.064405  0
C  C41  1  0.04170276  0.49480604  0.56073732  1  0.60698  0  0.083232  0.190123  0  4.104411  0
C  C42  1  0.96635755  0.49664538  0.56004583  1  0.341372  0  0.042749  0.085956  0  4.06424  0
C  C43  1  0.04204865  0.50589299  0.43596956  1  0.606228  0  0.081843  0.188509  0  4.103426  0
C  C44  1  0.08071285  0.49994131  0.49844561  1  0.124765  0  -0.013799  -0.072436  0  3.946373  0
C  C45  1  0.92660243  0.50143699  0.49801336  1  0.111448  0  -0.032019  -0.097087  0  4.114707  0
C  C46  1  0.50307540  0.50898481  0.35983911  1  1.575055  0  0.221558  0.638485  0  4.127616  0
C  C47  1  0.50062204  0.48291671  0.62804034  1  1.484292  0  0.214387  0.61875  0  4.1274  0
C  C48  1  0.56228961  0.51825380  0.24302082  1  0.603184  0  0.088389  0.271995  0  4.069264  0
C  C49  1  0.43292523  0.45681246  0.73772424  1  0.58089  0  0.089401  0.285096  0  4.068744  0
C  C50  1  0.56167548  0.49240184  0.74431171  1  0.66228  0  0.084525  0.278999  0  4.078607  0
C  C51  1  0.43932606  0.46901748  0.24972872  1  0.606907  0  0.086431  0.267724  0  4.088441  0
C  C52  1  0.55885702  0.51291189  0.16981942  1  0.061925  0  -0.004755  -0.007401  0  4.012617  0
C  C53  1  0.43129917  0.45372899  0.81079574  1  0.130602  0  -0.006935  -0.011855  0  4.013271  0
C  C54  1  0.55793745  0.48964330  0.81723141  1  0.083917  0  -0.00968  -0.014563  0  4.016753  0
C  C55  1  0.43853701  0.46190416  0.17687939  1  0.050303  0  -0.012617  -0.037562  0  4.04757  0
C  C56  1  0.49718985  0.48460457  0.13689464  1  0.128092  0  -0.009876  -0.055234  0  4.046775  0
C  C57  1  0.49320364  0.47077594  0.84995092  1  0.09269  0  -0.007447  -0.057403  0  4.038785  0
C  C58  1  0.50105684  0.49879052  0.28298209  1  0.026267  0  -0.042134  -0.266668  0  3.932861  0
C  C59  1  0.49843940  0.47669898  0.70409572  1  0.015133  0  -0.057183  -0.317335  0  3.985305  0
C  C60  1  0.49020594  0.47103482  0.92711176  1  1.014543  0  0.245014  0.265447  0  4.020518  0
C  C61  1  0.49318370  0.47821669  0.05984860  1  1.013084  0  0.240935  0.262405  0  4.024785  0
C  C62  1  0.42901862  0.25762243  0.53473697  1  0.091454  0  0.007956  0.064909  0  4.03131  0
C  C63  1  0.50008088  0.76286382  0.49368038  1  0.17221  0  0.008807  0.070365  0  4.043828  0
C  C64  1  0.52068987  0.73218248  0.61420989  1  0.085488  0  0.009663  0.06801  0  4.035326  0
C  C65  1  0.53801100  0.24043472  0.47109930  1  0.133414  0  0.004708  0.069382  0  4.040341  0
C  C66  1  0.42708512  0.18543511  0.55146203  1  0.13593  0  0.012039  0.051871  0  3.970675  0
C  C67  1  0.50367025  0.83456104  0.51253392  1  0.079285  0  0.008394  0.048577  0  4.024387  0
C  C68  1  0.52557237  0.80407423  0.63290800  1  0.129123  0  0.006929  0.04516  0  4.053533  0
C  C69  1  0.53813595  0.17022159  0.49194367  1  0.119799  0  0.005576  0.038281  0  3.97973  0
N  N70  1  0.45651894  0.52802327  0.02672181  1  -0.582015  0  -0.157252  -0.141533  0  3.165804  0
N  N71  1  0.52030293  0.41731387  0.96047566  1  -0.54626  0  -0.156617  -0.140263  0  3.169292  0
N  N72  1  0.45510136  0.52437900  0.95776661  1  -0.496495  0  -0.154161  -0.136977  0  3.170305  0
N  N73  1  0.52192925  0.42110224  0.02952782  1  -0.543825  0  -0.157589  -0.143899  0  3.167706  0
N  N74  1  0.69436032  0.50082691  0.49602594  1  -1.240611  0  -0.336503  -0.380369  0  3.472659  0
N  N75  1  0.31147979  0.50068294  0.49478147  1  -1.292731  0  -0.353599  -0.422963  0  3.529302  0
Cl  Cl76  1  0.63143785  0.54135297  0.12103712  1  -0.178557  0  -0.0188  -0.05709  0  1.477612  0
Cl  Cl77  1  0.35233652  0.42802409  0.85108249  1  -0.186358  0  -0.020349  -0.059513  0  1.487275  0
Cl  Cl78  1  0.63352974  0.51234238  0.86593778  1  -0.187127  0  -0.023399  -0.061708  0  1.488823  0
Cl  Cl79  1  0.36282641  0.42248211  0.13800758  1  -0.220156  0  0.002644  -0.064463  0  1.51087  0
Cl  Cl80  1  0.35834309  0.30753281  0.56221302  1  -0.157703  0  0.021532  -0.018849  0  1.641309  0
Cl  Cl81  1  0.48490651  0.73637530  0.40877982  1  -0.157829  0  0.010627  -0.027742  0  1.513472  0
Cl  Cl82  1  0.52971957  0.66854169  0.67601223  1  -0.159167  0  0.01809  -0.018178  0  1.579603  0
Cl  Cl83  1  0.59708662  0.26926230  0.40820250  1  -0.166257  0  -0.002432  -0.042483  0  1.540986  0
Cl  Cl84  1  0.34345702  0.14786031  0.56445029  1  -0.136727  0  0.017205  -0.032315  0  1.714977  0
Cl  Cl85  1  0.49193205  0.89752974  0.45046601  1  -0.161655  0  0.0046  -0.044072  0  1.559425  0
Cl  Cl86  1  0.54341175  0.82966496  0.71744909  1  -0.164113  0  0.004331  -0.04341  0  1.559773  0
Cl  Cl87  1  0.58573353  0.11230613  0.44111569  1  -0.161932  0  0.005383  -0.043989  0  1.680844  0
Cl  Cl88  1  0.65195979  0.09904188  0.58346484  1  -0.150748  0  0.003078  -0.042118  0  1.63217  0
Cl  Cl89  1  0.38798771  0.91697006  0.65931191  1  -0.173093  0  -0.000679  -0.043283  0  1.558909  0
Cl  Cl90  1  0.66063819  0.93509060  0.57180856  1  -0.162872  0  -0.00275  -0.042169  0  1.535087  0
Cl  Cl91  1  0.40037493  0.07910493  0.68535021  1  -0.136311  0  0.020345  -0.018251  0  1.683916  0
O  O92  1  0.56455362  0.60889387  0.50472409  1  -1.13949  0  -0.292089  -0.513694  0  2.327885  0
O  O93  1  0.43885115  0.39640797  0.46101420  1  -1.186245  0  -0.309783  -0.565372  0  2.413744  0
O  O94  1  0.55355588  0.39433670  0.49867182  1  -1.142454  0  -0.294057  -0.518992  0  2.360204  0
O  O95  1  0.44494494  0.60302083  0.52576496  1  -1.173279  0  -0.303483  -0.559459  0  2.41473  0
O  O96  1  0.56504032  0.50203949  0.38917448  1  -1.163142  0  -0.313424  -0.566556  0  2.359677  0
O  O97  1  0.44267573  0.47016729  0.59247288  1  -1.174814  0  -0.310046  -0.557443  0  2.386947  0
O  O98  1  0.56039325  0.50154659  0.59951494  1  -1.165189  0  -0.303392  -0.542081  0  2.416408  0
O  O99  1  0.44607263  0.52473360  0.39142439  1  -1.15215  0  -0.307831  -0.516102  0  2.337918  0
O  O100  1  0.62370092  0.54322929  0.27294026  1  -1.146836  0  -0.357895  -0.442147  0  2.31171  0
O  O101  1  0.37235195  0.44097942  0.70196595  1  -1.14318  0  -0.351663  -0.430469  0  2.310015  0
O  O102  1  0.62469916  0.51081126  0.71486927  1  -1.165507  0  -0.358133  -0.443156  0  2.310988  0
O  O103  1  0.38317205  0.44549851  0.28839140  1  -1.116886  0  -0.337037  -0.394144  0  2.335802  0
O  O104  1  0.69048650  0.41040112  0.57373247  1  -1.115601  0  -0.319105  -0.404179  0  2.292001  0
O  O105  1  0.30280533  0.39639130  0.42499125  1  -1.183325  0  -0.357169  -0.493168  0  2.346686  0
O  O106  1  0.69586056  0.59108478  0.41804109  1  -1.120409  0  -0.317885  -0.407128  0  2.295256  0
O  O107  1  0.31112412  0.60522874  0.56432678  1  -1.210772  0  -0.357886  -0.485332  0  2.291417  0
O  O108  1  0.83222432  0.40023950  0.57648147  1  -1.161375  0  -0.369191  -0.457197  0  2.307896  0
O  O109  1  0.16030381  0.39200639  0.43066353  1  -1.141136  0  -0.354727  -0.422624  0  2.282989  0
O  O110  1  0.83831433  0.60291389  0.41851337  1  -1.158743  0  -0.369704  -0.457602  0  2.30523  0
O  O111  1  0.16813213  0.60691509  0.56585317  1  -1.122703  0  -0.353151  -0.423642  0  2.283878  0
O  O112  1  0.93412892  0.51284591  0.37038686  1  -1.142414  0  -0.34932  -0.462068  0  2.31794  0
O  O113  1  0.07786079  0.48714910  0.62149343  1  -1.102218  0  -0.335749  -0.400044  0  2.291093  0
O  O114  1  0.93327656  0.48974079  0.62558679  1  -1.150247  0  -0.348781  -0.461624  0  2.315316  0
O  O115  1  0.07871552  0.51299443  0.37533508  1  -1.106025  0  -0.337918  -0.403898  0  2.289004  0
