# generated using pymatgen
data_CuH12C18I(NO2)2
_symmetry_space_group_name_H-M   'P 1'
_cell_length_a   8.43928356
_cell_length_b   8.25248935
_cell_length_c   29.55108683
_cell_angle_alpha   85.43645878
_cell_angle_beta   89.99760752
_cell_angle_gamma   90.00015288
_symmetry_Int_Tables_number   1
_chemical_formula_structural   CuH12C18I(NO2)2
_chemical_formula_sum   'Cu4 H48 C72 I4 N8 O16'
_cell_volume   2051.56358966
_cell_formula_units_Z   4
loop_
 _symmetry_equiv_pos_site_id
 _symmetry_equiv_pos_as_xyz
  1  'x, y, z'
loop_
 _atom_site_type_symbol
 _atom_site_label
 _atom_site_symmetry_multiplicity
 _atom_site_fract_x
 _atom_site_fract_y
 _atom_site_fract_z
 _atom_site_occupancy
 _atom_site_pbe_bader_charge
 _atom_site_pbe_bader_spin_density
 _atom_site_pbe_cm5_charge
 _atom_site_pbe_ddec_charge
 _atom_site_pbe_ddec_spin_density
 _atom_site_pbe_ddec_sum_bond_order
 _atom_site_pbe_magmom
Cu  Cu0  1  0.55050673  0.63207769  0.47752504  1  0.535682  0  0.381954  0.217011  0  2.642227  0
Cu  Cu1  1  0.05044933  0.36788803  0.02248516  1  0.535624  0  0.381933  0.21707  0  2.641908  0
Cu  Cu2  1  0.44952390  0.36787522  0.52248796  1  0.535726  0  0.38193  0.217011  0  2.642016  0
Cu  Cu3  1  0.94946518  0.63208552  0.97751027  1  0.535742  0  0.382047  0.217105  0  2.641895  0
H  H4  1  0.65231793  0.24833568  0.20724849  1  0.109715  0  0.120138  0.154277  0  0.964907  0
H  H5  1  0.15237343  0.75164318  0.29274090  1  0.110242  0  0.120235  0.15433  0  0.964553  0
H  H6  1  0.34764516  0.75163938  0.79273912  1  0.10987  0  0.120236  0.154395  0  0.964631  0
H  H7  1  0.84764417  0.24840613  0.70725626  1  0.110446  0  0.12022  0.154405  0  0.964855  0
H  H8  1  0.38965030  0.69785192  0.18950517  1  0.085313  0  0.111467  0.130729  0  0.976696  0
H  H9  1  0.88968562  0.30213794  0.31050961  1  0.085805  0  0.111491  0.130645  0  0.976664  0
H  H10  1  0.61037440  0.30216145  0.81050473  1  0.085718  0  0.111477  0.130756  0  0.976419  0
H  H11  1  0.11038175  0.69789180  0.68947759  1  0.085579  0  0.111529  0.130724  0  0.976251  0
H  H12  1  0.38050948  0.67189424  0.10571653  1  0.086053  0  0.095612  0.099239  0  1.021288  0
H  H13  1  0.88056068  0.32814095  0.39429974  1  0.086192  0  0.095759  0.099222  0  1.021287  0
H  H14  1  0.61948205  0.32816631  0.89429360  1  0.086309  0  0.095715  0.099286  0  1.021429  0
H  H15  1  0.11952920  0.67183946  0.60568993  1  0.085545  0  0.095725  0.099243  0  1.021502  0
H  H16  1  0.51248181  0.43903887  0.07284776  1  0.080824  0  0.090853  0.11168  0  1.054053  0
H  H17  1  0.01255786  0.56101516  0.42714999  1  0.080234  0  0.090795  0.111571  0  1.054324  0
H  H18  1  0.48748484  0.56103195  0.92714679  1  0.080403  0  0.090822  0.111693  0  1.054296  0
H  H19  1  0.98753202  0.43896507  0.57284716  1  0.080106  0  0.090813  0.111536  0  1.054305  0
H  H20  1  0.70075804  0.82275743  0.40388509  1  0.131136  0  0.116721  0.101222  0  1.018305  0
H  H21  1  0.20073182  0.17718948  0.09611911  1  0.130857  0  0.116769  0.101406  0  1.018312  0
H  H22  1  0.29923704  0.17719778  0.59612826  1  0.130906  0  0.116746  0.101398  0  1.018216  0
H  H23  1  0.79923482  0.82282613  0.90387040  1  0.131075  0  0.116774  0.101438  0  1.018093  0
H  H24  1  0.73518000  0.81572668  0.32043943  1  0.134911  0  0.115588  0.125904  0  0.991393  0
H  H25  1  0.23518065  0.18422204  0.17956178  1  0.130133  0  0.115571  0.125796  0  0.991412  0
H  H26  1  0.26479139  0.18423868  0.67957261  1  0.134902  0  0.115514  0.125772  0  0.99125  0
H  H27  1  0.76483932  0.81581384  0.82042171  1  0.130594  0  0.115545  0.125869  0  0.991038  0
H  H28  1  0.40728855  0.41230857  0.32581105  1  0.12338  0  0.115695  0.129879  0  0.993715  0
H  H29  1  0.90729208  0.58763147  0.17421216  1  0.123383  0  0.115682  0.129781  0  0.993578  0
H  H30  1  0.59276579  0.58759116  0.67420848  1  0.12358  0  0.115739  0.129782  0  0.993456  0
H  H31  1  0.09273382  0.41240801  0.82578188  1  0.123503  0  0.115733  0.129762  0  0.993501  0
H  H32  1  0.38417546  0.43733069  0.40961593  1  0.111251  0  0.111927  0.084919  0  1.011457  0
H  H33  1  0.88417138  0.56264032  0.09040741  1  0.112169  0  0.111934  0.085134  0  1.011208  0
H  H34  1  0.61588480  0.56257303  0.59040261  1  0.112581  0  0.111866  0.085149  0  1.01134  0
H  H35  1  0.11580949  0.43738624  0.90958896  1  0.112633  0  0.111808  0.084985  0  1.011409  0
H  H36  1  0.61903740  0.71528400  0.99261197  1  0.078515  0  0.097379  0.077296  0  1.042699  0
H  H37  1  0.11904724  0.28469848  0.50739322  1  0.078672  0  0.097349  0.077304  0  1.042645  0
H  H38  1  0.38093754  0.28471039  0.00738628  1  0.078926  0  0.097334  0.077299  0  1.042527  0
H  H39  1  0.88095851  0.71530144  0.49261355  1  0.078646  0  0.097361  0.077296  0  1.042657  0
H  H40  1  0.46565103  0.88371148  0.04338653  1  0.084334  0  0.099605  0.109085  0  1.042962  0
H  H41  1  0.96568595  0.11625215  0.45661443  1  0.084825  0  0.099679  0.109267  0  1.042832  0
H  H42  1  0.53430021  0.11626521  0.95660687  1  0.084754  0  0.099638  0.109177  0  1.042793  0
H  H43  1  0.03430322  0.88373000  0.54339463  1  0.084671  0  0.099646  0.109187  0  1.042895  0
H  H44  1  0.91048850  0.06270546  0.09160734  1  0.111233  0  0.107533  0.113716  0  1.035061  0
H  H45  1  0.41053935  0.93734302  0.40837960  1  0.111028  0  0.107562  0.113797  0  1.03505  0
H  H46  1  0.08944260  0.93735574  0.90838001  1  0.111106  0  0.107527  0.113778  0  1.0351  0
H  H47  1  0.58943677  0.06265249  0.59162239  1  0.110978  0  0.107525  0.113752  0  1.035227  0
H  H48  1  0.04746738  0.88121836  0.03985969  1  0.096606  0  0.100072  0.078088  0  1.037  0
H  H49  1  0.54749173  0.11878621  0.46013616  1  0.096196  0  0.100129  0.078219  0  1.037061  0
H  H50  1  0.95248860  0.11882584  0.96013472  1  0.096582  0  0.100099  0.078147  0  1.037039  0
H  H51  1  0.45249744  0.88118874  0.53986573  1  0.096546  0  0.100114  0.078228  0  1.036893  0
C  C52  1  0.58740393  0.33085858  0.13833050  1  0.401477  0  0.080368  0.27249  0  4.043868  0
C  C53  1  0.08745177  0.66917147  0.36166436  1  0.400944  0  0.080639  0.272792  0  4.043981  0
C  C54  1  0.41256509  0.66915927  0.86166650  1  0.401491  0  0.080575  0.272844  0  4.043568  0
C  C55  1  0.91258005  0.33085205  0.63833029  1  0.400824  0  0.080346  0.272394  0  4.044326  0
C  C56  1  0.59319080  0.34125811  0.18509911  1  0.014766  0  -0.099255  -0.292722  0  3.94903  0
C  C57  1  0.09325001  0.65874701  0.31490158  1  0.014231  0  -0.099529  -0.29298  0  3.949336  0
C  C58  1  0.40678059  0.65875092  0.81489886  1  0.014803  0  -0.099394  -0.293058  0  3.949136  0
C  C59  1  0.90678299  0.34129176  0.68509450  1  0.014597  0  -0.099408  -0.293006  0  3.949315  0
C  C60  1  0.52164123  0.47509491  0.20255598  1  0.388692  0  0.079956  0.27742  0  4.04481  0
C  C61  1  0.02169264  0.52492380  0.29744985  1  0.388941  0  0.080053  0.277541  0  4.044499  0
C  C62  1  0.47835859  0.52492577  0.79744682  1  0.387003  0  0.079939  0.277548  0  4.044578  0
C  C63  1  0.97835221  0.47512569  0.70253983  1  0.387792  0  0.080218  0.277844  0  4.043912  0
C  C64  1  0.44483097  0.59492269  0.17477207  1  -0.018613  0  -0.100489  -0.205907  0  3.991956  0
C  C65  1  0.94486148  0.40509336  0.32524061  1  -0.017882  0  -0.100378  -0.205679  0  3.99188  0
C  C66  1  0.55519019  0.40511461  0.82523523  1  -0.016754  0  -0.100409  -0.205874  0  3.991637  0
C  C67  1  0.05517863  0.59492381  0.67474788  1  -0.016435  0  -0.100491  -0.206021  0  3.991871  0
C  C68  1  0.44094122  0.58035187  0.12808656  1  0.034861  0  -0.086273  -0.028877  0  4.003272  0
C  C69  1  0.94098399  0.41969248  0.37192467  1  0.03432  0  -0.086557  -0.029029  0  4.003429  0
C  C70  1  0.55905387  0.41969753  0.87192080  1  0.035105  0  -0.086527  -0.029136  0  4.003895  0
C  C71  1  0.05907272  0.58031635  0.62806344  1  0.033976  0  -0.086484  -0.028934  0  4.00401  0
C  C72  1  0.51285570  0.44877729  0.10941446  1  -0.000179  0  -0.10212  -0.202014  0  3.984531  0
C  C73  1  0.01290678  0.55127343  0.39058938  1  0.000388  0  -0.101994  -0.201798  0  3.984499  0
C  C74  1  0.48713109  0.55127291  0.89058712  1  -0.000702  0  -0.102038  -0.20196  0  3.984719  0
C  C75  1  0.98714874  0.44871719  0.60940578  1  0.000582  0  -0.102048  -0.201726  0  3.98476  0
C  C76  1  0.63592239  0.73507605  0.38544838  1  0.490062  0  0.039326  0.076452  0  3.922019  0
C  C77  1  0.13592378  0.26486746  0.11455796  1  0.491133  0  0.039237  0.0762  0  3.922363  0
C  C78  1  0.36407033  0.26486936  0.61456526  1  0.490803  0  0.039339  0.076376  0  3.922291  0
C  C79  1  0.86406657  0.73514986  0.88543360  1  0.491666  0  0.03943  0.076448  0  3.921659  0
C  C80  1  0.65542316  0.73082527  0.33898922  1  -0.078505  0  -0.069837  -0.119783  0  3.937658  0
C  C81  1  0.15543342  0.26911840  0.16101793  1  -0.075462  0  -0.069853  -0.119624  0  3.937617  0
C  C82  1  0.34456245  0.26912463  0.66102546  1  -0.080498  0  -0.069848  -0.119732  0  3.937515  0
C  C83  1  0.84458062  0.73091329  0.83897064  1  -0.076032  0  -0.069913  -0.120033  0  3.937457  0
C  C84  1  0.57395594  0.61336736  0.31655093  1  0.018971  0  -0.003784  -0.012316  0  3.999387  0
C  C85  1  0.07397567  0.38656066  0.18346114  1  0.019799  0  -0.004125  -0.012421  0  3.999535  0
C  C86  1  0.42604744  0.38656684  0.68346707  1  0.019491  0  -0.004196  -0.012595  0  3.999756  0
C  C87  1  0.92604785  0.61346389  0.81652705  1  0.019106  0  -0.004126  -0.012352  0  3.999215  0
C  C88  1  0.47439682  0.50460731  0.34196495  1  -0.014826  0  -0.073742  -0.134774  0  3.924189  0
C  C89  1  0.97442742  0.49532996  0.15806012  1  -0.015681  0  -0.073485  -0.134415  0  3.923782  0
C  C90  1  0.52561722  0.49529293  0.65805663  1  -0.014763  0  -0.073506  -0.134253  0  3.923679  0
C  C91  1  0.02558781  0.50469707  0.84193489  1  -0.015075  0  -0.073666  -0.134534  0  3.923853  0
C  C92  1  0.46102208  0.51804894  0.38845371  1  0.475066  0  0.043518  0.093914  0  3.913727  0
C  C93  1  0.96102975  0.48191965  0.11156407  1  0.475238  0  0.043438  0.09358  0  3.91341  0
C  C94  1  0.53900381  0.48186684  0.61156149  1  0.474588  0  0.043396  0.093275  0  3.913467  0
C  C95  1  0.03895941  0.51810868  0.88842720  1  0.474806  0  0.043704  0.093613  0  3.913913  0
C  C96  1  0.59742141  0.61245641  0.26670782  1  1.456023  0  0.237836  0.511604  0  4.094904  0
C  C97  1  0.09744547  0.38747936  0.23330091  1  1.455888  0  0.237808  0.511653  0  4.095311  0
C  C98  1  0.40258671  0.38751040  0.73330354  1  1.455531  0  0.238019  0.511831  0  4.095505  0
C  C99  1  0.90260412  0.61256975  0.76668638  1  1.455949  0  0.238047  0.512033  0  4.095567  0
C  C100  1  0.67951894  0.79436896  0.01488997  1  0.471469  0  0.032775  0.087282  0  3.914863  0
C  C101  1  0.17955263  0.20563954  0.48511003  1  0.47125  0  0.032819  0.087284  0  3.914273  0
C  C102  1  0.32044652  0.20564355  0.98510496  1  0.470628  0  0.032914  0.0874  0  3.914674  0
C  C103  1  0.82046497  0.79435698  0.51489605  1  0.471105  0  0.032856  0.087322  0  3.914815  0
C  C104  1  0.59455176  0.88705119  0.04349640  1  0.025723  0  -0.078136  -0.126813  0  3.95201  0
C  C105  1  0.09458952  0.11294244  0.45649910  1  0.026251  0  -0.078395  -0.127286  0  3.951691  0
C  C106  1  0.40539830  0.11294380  0.95650014  1  0.026355  0  -0.078413  -0.127283  0  3.952173  0
C  C107  1  0.90540912  0.88705452  0.54350222  1  0.026226  0  -0.078388  -0.127184  0  3.952306  0
C  C108  1  0.67611879  0.98629182  0.07185201  1  -0.061046  0  -0.007024  -0.011  0  4.002431  0
C  C109  1  0.17618918  0.01372739  0.42814133  1  -0.060265  0  -0.006788  -0.010781  0  4.002151  0
C  C110  1  0.32381705  0.01372588  0.92814193  1  -0.060248  0  -0.006829  -0.010671  0  4.001967  0
C  C111  1  0.82382250  0.98626414  0.57186166  1  -0.060248  0  -0.006807  -0.010801  0  4.002307  0
C  C112  1  0.84194682  0.98645307  0.07053944  1  0.016334  0  -0.079488  -0.13201  0  3.951393  0
C  C113  1  0.34201015  0.01359248  0.42944804  1  0.016971  0  -0.079532  -0.131976  0  3.951796  0
C  C114  1  0.15798428  0.01358747  0.92945155  1  0.0171  0  -0.079478  -0.131963  0  3.951306  0
C  C115  1  0.65798849  0.98641585  0.57055197  1  0.017098  0  -0.079492  -0.131922  0  3.95155  0
C  C116  1  0.91839911  0.88774048  0.04148926  1  0.456369  0  0.033583  0.076867  0  3.937106  0
C  C117  1  0.41844288  0.11226546  0.45850201  1  0.454814  0  0.033386  0.076518  0  3.937921  0
C  C118  1  0.08154858  0.11228956  0.95850406  1  0.454258  0  0.033485  0.076672  0  3.937422  0
C  C119  1  0.58156524  0.88771624  0.54149787  1  0.454747  0  0.033461  0.076521  0  3.937572  0
C  C120  1  0.58041303  0.08853943  0.10039482  1  1.49896  0  0.24302  0.526015  0  4.081437  0
C  C121  1  0.08045807  0.91147826  0.39959678  1  1.498855  0  0.242854  0.525313  0  4.081535  0
C  C122  1  0.41954414  0.91146894  0.89959806  1  1.499105  0  0.242832  0.525078  0  4.081467  0
C  C123  1  0.91953346  0.08851495  0.60040486  1  1.498683  0  0.242904  0.525301  0  4.081675  0
I  I124  1  0.74707816  0.37423133  0.49401850  1  -0.489004  0  -0.212588  -0.407845  0  1.770271  0
I  I125  1  0.24700369  0.62575849  0.00599074  1  -0.48929  0  -0.212693  -0.408011  0  1.770129  0
I  I126  1  0.25296551  0.62574164  0.50599256  1  -0.489186  0  -0.212619  -0.407903  0  1.770359  0
I  I127  1  0.75290490  0.37423490  0.99401736  1  -0.488892  0  -0.212588  -0.407843  0  1.770338  0
N  N128  1  0.54061832  0.63072263  0.41017924  1  -1.208096  0  -0.357391  -0.182674  0  3.661484  0
N  N129  1  0.04061451  0.36922539  0.08983590  1  -1.207993  0  -0.357204  -0.182614  0  3.661723  0
N  N130  1  0.45938506  0.36920050  0.58983225  1  -1.207887  0  -0.357195  -0.182498  0  3.661394  0
N  N131  1  0.95934503  0.63076475  0.91016062  1  -1.208299  0  -0.357417  -0.182455  0  3.661305  0
N  N132  1  0.83987496  0.79256271  0.01368677  1  -1.207599  0  -0.361315  -0.191565  0  3.644085  0
N  N133  1  0.33990986  0.20741907  0.48630624  1  -1.207557  0  -0.36113  -0.191281  0  3.644009  0
N  N134  1  0.16009405  0.20743723  0.98630946  1  -1.207101  0  -0.361232  -0.191451  0  3.644059  0
N  N135  1  0.66011130  0.79256736  0.51369401  1  -1.20748  0  -0.361214  -0.191312  0  3.644104  0
O  O136  1  0.52245497  0.48191622  0.24983503  1  -1.101839  0  -0.142673  -0.256462  0  2.52245  0
O  O137  1  0.02252241  0.51804604  0.25017287  1  -1.102407  0  -0.142907  -0.256789  0  2.52242  0
O  O138  1  0.47755197  0.51804979  0.75016817  1  -1.101897  0  -0.142747  -0.256524  0  2.52237  0
O  O139  1  0.97751770  0.48199778  0.74981916  1  -1.101885  0  -0.143042  -0.256879  0  2.522261  0
O  O140  1  0.67351419  0.71350741  0.24355862  1  -1.115332  0  -0.273038  -0.446722  0  2.105592  0
O  O141  1  0.17346275  0.28637903  0.25645047  1  -1.115082  0  -0.2729  -0.446672  0  2.105908  0
O  O142  1  0.32652237  0.28647011  0.75646028  1  -1.115433  0  -0.2731  -0.446891  0  2.105963  0
O  O143  1  0.82658447  0.71366595  0.74353476  1  -1.115961  0  -0.272958  -0.44693  0  2.10618  0
O  O144  1  0.66929791  0.20315231  0.11990684  1  -1.080702  0  -0.141293  -0.251536  0  2.530157  0
O  O145  1  0.16934658  0.79687374  0.38007687  1  -1.080846  0  -0.141563  -0.251624  0  2.529495  0
O  O146  1  0.33063319  0.79685746  0.88007856  1  -1.080363  0  -0.141555  -0.251651  0  2.52935  0
O  O147  1  0.83068405  0.20315559  0.61991849  1  -1.080671  0  -0.141368  -0.251323  0  2.530027  0
O  O148  1  0.43741297  0.07372504  0.10568083  1  -1.141885  0  -0.266476  -0.452142  0  2.162031  0
O  O149  1  0.93747490  0.92624769  0.39433048  1  -1.142184  0  -0.26611  -0.451406  0  2.162684  0
O  O150  1  0.56253116  0.92626817  0.89432081  1  -1.142871  0  -0.266114  -0.451294  0  2.162646  0
O  O151  1  0.06253678  0.07368553  0.60568684  1  -1.141996  0  -0.266318  -0.451644  0  2.162141  0
