# generated using pymatgen
data_ZnH6(C3N2)2
_symmetry_space_group_name_H-M   'P 1'
_cell_length_a   9.90670985
_cell_length_b   14.97360172
_cell_length_c   15.14822156
_cell_angle_alpha   90.00023770
_cell_angle_beta   89.99989159
_cell_angle_gamma   98.58176613
_symmetry_Int_Tables_number   1
_chemical_formula_structural   ZnH6(C3N2)2
_chemical_formula_sum   'Zn8 H48 C48 N32'
_cell_volume   2221.91554921
_cell_formula_units_Z   8
loop_
 _symmetry_equiv_pos_site_id
 _symmetry_equiv_pos_as_xyz
  1  'x, y, z'
loop_
 _atom_site_type_symbol
 _atom_site_label
 _atom_site_symmetry_multiplicity
 _atom_site_fract_x
 _atom_site_fract_y
 _atom_site_fract_z
 _atom_site_occupancy
 _atom_site_pbe_bader_charge
 _atom_site_pbe_bader_spin_density
 _atom_site_pbe_cm5_charge
 _atom_site_pbe_ddec_charge
 _atom_site_pbe_ddec_spin_density
 _atom_site_pbe_ddec_sum_bond_order
 _atom_site_pbe_magmom
Zn  Zn0  1  0.45122886  0.73514442  0.92318947  1  1.179841  0  0.716055  0.620702  0  2.580117  0
Zn  Zn1  1  0.04877189  0.76485584  0.42319313  1  1.179861  0  0.71611  0.620838  0  2.580114  0
Zn  Zn2  1  0.54877163  0.26485708  0.07680922  1  1.179867  0  0.716056  0.620761  0  2.580106  0
Zn  Zn3  1  0.95122914  0.23514365  0.57680754  1  1.179856  0  0.716073  0.620743  0  2.580117  0
Zn  Zn4  1  0.91457089  0.57961972  0.77633136  1  1.185029  0  0.716  0.620419  0  2.588013  0
Zn  Zn5  1  0.58543006  0.92038064  0.27632967  1  1.185033  0  0.716036  0.620448  0  2.587968  0
Zn  Zn6  1  0.08542797  0.42037909  0.22367129  1  1.185025  0  0.716025  0.620477  0  2.58791  0
Zn  Zn7  1  0.41457376  0.07962222  0.72366902  1  1.185046  0  0.715976  0.620375  0  2.588011  0
H  H8  1  0.20989156  0.69669227  0.78564138  1  0.123611  0  0.124575  0.08487  0  1.00051  0
H  H9  1  0.29010512  0.80330609  0.28564028  1  0.123576  0  0.124547  0.084801  0  1.000565  0
H  H10  1  0.79010513  0.30330586  0.21435797  1  0.123618  0  0.124572  0.08485  0  1.000519  0
H  H11  1  0.70989583  0.19669744  0.71435643  1  0.123556  0  0.124589  0.084878  0  1.000459  0
H  H12  1  0.20814226  0.65169530  0.06030928  1  0.121482  0  0.110804  0.107588  0  1.014855  0
H  H13  1  0.29186083  0.84830621  0.56030892  1  0.121541  0  0.110814  0.107609  0  1.01484  0
H  H14  1  0.79186064  0.34830350  0.93968941  1  0.121499  0  0.110797  0.107581  0  1.014852  0
H  H15  1  0.70813950  0.15169462  0.43968779  1  0.121452  0  0.110773  0.107496  0  1.014897  0
H  H16  1  0.95494395  0.58004462  0.99036768  1  0.098217  0  0.107288  0.095549  0  1.040839  0
H  H17  1  0.54505687  0.91995795  0.49036472  1  0.09821  0  0.10732  0.095578  0  1.040769  0
H  H18  1  0.04505809  0.41995486  0.00963365  1  0.098209  0  0.107313  0.095597  0  1.040814  0
H  H19  1  0.45494190  0.08004491  0.50963397  1  0.09822  0  0.107314  0.095607  0  1.040822  0
H  H20  1  0.34789674  0.92477900  0.87775686  1  0.07829  0  0.125077  0.082084  0  0.996143  0
H  H21  1  0.15210440  0.57522242  0.37776094  1  0.078084  0  0.125071  0.082076  0  0.996175  0
H  H22  1  0.65210343  0.07522115  0.12224380  1  0.078286  0  0.125083  0.082074  0  0.996203  0
H  H23  1  0.84789694  0.42477841  0.62223973  1  0.078116  0  0.125082  0.082092  0  0.996155  0
H  H24  1  0.63095369  0.78683107  0.74738071  1  0.103642  0  0.107668  0.097008  0  1.04719  0
H  H25  1  0.86904817  0.71316849  0.24738310  1  0.103688  0  0.107673  0.097053  0  1.047187  0
H  H26  1  0.36904664  0.21316977  0.25261600  1  0.103693  0  0.107673  0.097026  0  1.047233  0
H  H27  1  0.13094736  0.28682896  0.75261757  1  0.103674  0  0.107675  0.097038  0  1.047212  0
H  H28  1  0.60742919  0.94485004  0.65619080  1  0.09232  0  0.111658  0.106051  0  1.020299  0
H  H29  1  0.89257456  0.55514781  0.15619384  1  0.091868  0  0.111606  0.105937  0  1.020376  0
H  H30  1  0.39257013  0.05515079  0.34380921  1  0.092208  0  0.111621  0.105947  0  1.020302  0
H  H31  1  0.10742586  0.44484897  0.84380815  1  0.092024  0  0.111605  0.105946  0  1.02037  0
H  H32  1  0.50372307  0.90617348  0.06521844  1  0.110419  0  0.119235  0.071738  0  1.019524  0
H  H33  1  0.99627154  0.59382738  0.56522075  1  0.110431  0  0.119265  0.071783  0  1.019538  0
H  H34  1  0.49627626  0.09382735  0.93478025  1  0.110455  0  0.119238  0.071749  0  1.019513  0
H  H35  1  0.00372026  0.40617143  0.43477926  1  0.110478  0  0.119248  0.071784  0  1.019509  0
H  H36  1  0.54993569  0.63165251  0.08242911  1  0.110168  0  0.108798  0.099517  0  1.041964  0
H  H37  1  0.95006595  0.86834842  0.58243194  1  0.110122  0  0.108763  0.099456  0  1.041979  0
H  H38  1  0.45006480  0.36834899  0.91757090  1  0.110085  0  0.10878  0.099501  0  1.04197  0
H  H39  1  0.04994013  0.13165106  0.41756873  1  0.110092  0  0.108783  0.099515  0  1.041949  0
H  H40  1  0.60566324  0.71322346  0.24604977  1  0.10339  0  0.10994  0.0983  0  1.023513  0
H  H41  1  0.89433737  0.78677947  0.74605299  1  0.103284  0  0.109919  0.098295  0  1.023494  0
H  H42  1  0.39434144  0.28677872  0.75394892  1  0.103349  0  0.109922  0.098326  0  1.023429  0
H  H43  1  0.10566483  0.21322068  0.25394833  1  0.103308  0  0.109956  0.098324  0  1.023441  0
H  H44  1  0.75856006  0.70791020  0.88587989  1  0.097955  0  0.126355  0.083286  0  0.997591  0
H  H45  1  0.74143803  0.79208789  0.38587881  1  0.097837  0  0.126335  0.083266  0  0.997592  0
H  H46  1  0.24144198  0.29208928  0.11412210  1  0.097885  0  0.12634  0.083269  0  0.99766  0
H  H47  1  0.25855997  0.20791159  0.61412120  1  0.097936  0  0.126347  0.083287  0  0.997584  0
H  H48  1  0.39463083  0.52653788  0.85176419  1  0.070375  0  0.109803  0.102069  0  1.022814  0
H  H49  1  0.10536774  0.97346075  0.35176732  1  0.070368  0  0.109813  0.102065  0  1.02281  0
H  H50  1  0.60536779  0.47346431  0.14823780  1  0.070392  0  0.109802  0.102042  0  1.022841  0
H  H51  1  0.89463354  0.02653536  0.64823467  1  0.07036  0  0.10979  0.102033  0  1.022844  0
H  H52  1  0.61246053  0.44997573  0.78387738  1  0.103289  0  0.108084  0.097058  0  1.030623  0
H  H53  1  0.88753890  0.05002177  0.28387842  1  0.103424  0  0.108081  0.097112  0  1.030655  0
H  H54  1  0.38753817  0.55002240  0.21612725  1  0.103338  0  0.108085  0.097063  0  1.030653  0
H  H55  1  0.11246415  0.94997771  0.71612159  1  0.103334  0  0.108082  0.097081  0  1.030649  0
C  C56  1  0.17480013  0.67455148  0.85112297  1  0.94455  0  0.110188  0.122928  0  4.025139  0
C  C57  1  0.32519805  0.82544985  0.35112258  1  0.944553  0  0.110225  0.123042  0  4.025065  0
C  C58  1  0.82519935  0.32545003  0.14887572  1  0.944584  0  0.110245  0.123051  0  4.025029  0
C  C59  1  0.67480290  0.17455369  0.64887347  1  0.944191  0  0.110149  0.12289  0  4.024982  0
C  C60  1  0.17102476  0.65041280  0.99287091  1  0.335425  0  -0.024518  -0.0615  0  4.033566  0
C  C61  1  0.32897686  0.84958774  0.49287062  1  0.33543  0  -0.024508  -0.061537  0  4.033457  0
C  C62  1  0.82897658  0.34958803  0.00712843  1  0.335236  0  -0.02453  -0.061496  0  4.03351  0
C  C63  1  0.67102534  0.15041242  0.50712675  1  0.335335  0  -0.024456  -0.061319  0  4.033559  0
C  C64  1  0.04566290  0.61493335  0.95835532  1  0.335855  0  -0.025697  -0.068811  0  4.052915  0
C  C65  1  0.45433677  0.88506706  0.45835303  1  0.33587  0  -0.025678  -0.068727  0  4.052841  0
C  C66  1  0.95433899  0.38506546  0.04164535  1  0.336031  0  -0.025686  -0.06882  0  4.052946  0
C  C67  1  0.54566301  0.11493580  0.54164434  1  0.335908  0  -0.025691  -0.068955  0  4.053064  0
C  C68  1  0.42309119  0.90913259  0.83024230  1  0.979539  0  0.108862  0.118462  0  4.031372  0
C  C69  1  0.07690889  0.59086798  0.33024653  1  0.979647  0  0.108896  0.118418  0  4.031423  0
C  C70  1  0.57690883  0.09086690  0.16975705  1  0.979513  0  0.108866  0.118472  0  4.03135  0
C  C71  1  0.92309230  0.40913218  0.66975480  1  0.979662  0  0.10887  0.118413  0  4.031352  0
C  C72  1  0.56967230  0.83932833  0.76170134  1  0.356362  0  -0.024575  -0.062405  0  4.036445  0
C  C73  1  0.93033287  0.66067264  0.26170345  1  0.356457  0  -0.024595  -0.062474  0  4.036376  0
C  C74  1  0.43032935  0.16067386  0.23829800  1  0.356337  0  -0.024602  -0.062484  0  4.036523  0
C  C75  1  0.06966483  0.33932549  0.73829854  1  0.356181  0  -0.024638  -0.062511  0  4.036417  0
C  C76  1  0.55747340  0.91729414  0.71607833  1  0.34794  0  -0.022606  -0.058702  0  4.028191  0
C  C77  1  0.94253023  0.58270395  0.21608274  1  0.348543  0  -0.022548  -0.058591  0  4.028304  0
C  C78  1  0.44252592  0.08270669  0.28391969  1  0.348108  0  -0.022551  -0.058569  0  4.028109  0
C  C79  1  0.05746949  0.41729418  0.78391925  1  0.348506  0  -0.022516  -0.058589  0  4.02828  0
C  C80  1  0.52456401  0.84242993  0.09219968  1  0.941393  0  0.110079  0.127871  0  4.030935  0
C  C81  1  0.97543009  0.65756902  0.59220228  1  0.942332  0  0.110103  0.127924  0  4.031125  0
C  C82  1  0.47543213  0.15757023  0.90779900  1  0.941286  0  0.110118  0.127955  0  4.030862  0
C  C83  1  0.02456661  0.34242911  0.40779773  1  0.94142  0  0.110054  0.127834  0  4.031037  0
C  C84  1  0.54963813  0.70094039  0.10320529  1  0.317279  0  -0.023901  -0.060459  0  4.029768  0
C  C85  1  0.95036448  0.79906062  0.60320981  1  0.317155  0  -0.023817  -0.060248  0  4.029627  0
C  C86  1  0.45036538  0.29906111  0.89679406  1  0.317346  0  -0.023871  -0.060384  0  4.029773  0
C  C87  1  0.04963741  0.20093818  0.39679217  1  0.317391  0  -0.023876  -0.060387  0  4.029773  0
C  C88  1  0.57701696  0.74154859  0.18411783  1  0.330965  0  -0.025619  -0.065368  0  4.043824  0
C  C89  1  0.92298696  0.75845477  0.68412222  1  0.33104  0  -0.025622  -0.065404  0  4.04376  0
C  C90  1  0.42298959  0.25845291  0.81588020  1  0.330963  0  -0.025581  -0.065419  0  4.043668  0
C  C91  1  0.07701609  0.24154471  0.31588043  1  0.330801  0  -0.02563  -0.065407  0  4.043736  0
C  C92  1  0.68860651  0.64817811  0.86665181  1  0.960703  0  0.110879  0.12419  0  4.018378  0
C  C93  1  0.81139248  0.85181922  0.36665155  1  0.960763  0  0.110941  0.124281  0  4.018512  0
C  C94  1  0.31139235  0.35182069  0.13334952  1  0.960721  0  0.110904  0.124189  0  4.018738  0
C  C95  1  0.18860740  0.14817958  0.63334846  1  0.960655  0  0.110937  0.124236  0  4.01847  0
C  C96  1  0.50266165  0.55285634  0.84860605  1  0.355229  0  -0.022494  -0.062589  0  4.034854  0
C  C97  1  0.99733465  0.94714228  0.34860792  1  0.355346  0  -0.022425  -0.06244  0  4.034728  0
C  C98  1  0.49733682  0.44714517  0.15139660  1  0.355247  0  -0.022438  -0.062444  0  4.034694  0
C  C99  1  0.00266390  0.05285518  0.65139274  1  0.355281  0  -0.022482  -0.062483  0  4.034854  0
C  C100  1  0.61045961  0.51530575  0.81442698  1  0.345274  0  -0.023093  -0.062071  0  4.044145  0
C  C101  1  0.88953661  0.98469206  0.31442980  1  0.345215  0  -0.023148  -0.062269  0  4.04443  0
C  C102  1  0.38953824  0.48469306  0.18557633  1  0.345176  0  -0.023114  -0.062137  0  4.04421  0
C  C103  1  0.11046125  0.01530675  0.68557153  1  0.345253  0  -0.023104  -0.06218  0  4.044289  0
N  N104  1  0.25222781  0.68817885  0.92431900  1  -1.270385  0  -0.383273  -0.298609  0  3.644032  0
N  N105  1  0.24776891  0.81182141  0.42432063  1  -1.270351  0  -0.383332  -0.298679  0  3.643944  0
N  N106  1  0.74776950  0.31182198  0.07567771  1  -1.270356  0  -0.383324  -0.2987  0  3.64396  0
N  N107  1  0.75223042  0.18817942  0.57567542  1  -1.269934  0  -0.38329  -0.298622  0  3.644052  0
N  N108  1  0.04900801  0.63045814  0.86841938  1  -1.281539  0  -0.383936  -0.299746  0  3.636923  0
N  N109  1  0.45099301  0.86954258  0.36841769  1  -1.281576  0  -0.383972  -0.299856  0  3.63702  0
N  N110  1  0.95099333  0.36954269  0.13158063  1  -1.281569  0  -0.383981  -0.299849  0  3.637021  0
N  N111  1  0.54900678  0.13046028  0.63157902  1  -1.281514  0  -0.383926  -0.299669  0  3.636795  0
N  N112  1  0.48429027  0.83470508  0.83424720  1  -1.267008  0  -0.378639  -0.294499  0  3.635378  0
N  N113  1  0.01571182  0.66529550  0.33425115  1  -1.267122  0  -0.378648  -0.294454  0  3.635288  0
N  N114  1  0.51570875  0.16529441  0.16575215  1  -1.267016  0  -0.378623  -0.294428  0  3.63531  0
N  N115  1  0.98428719  0.33470398  0.66575018  1  -1.267037  0  -0.378614  -0.294371  0  3.635201  0
N  N116  1  0.46417385  0.96120318  0.75991465  1  -1.277047  0  -0.381209  -0.291529  0  3.640916  0
N  N117  1  0.03582707  0.53879575  0.25991806  1  -1.277082  0  -0.381231  -0.291509  0  3.640881  0
N  N118  1  0.53582663  0.03879833  0.24008536  1  -1.277106  0  -0.381227  -0.291564  0  3.640917  0
N  N119  1  0.96417513  0.46120441  0.74008393  1  -1.277062  0  -0.381223  -0.291526  0  3.640866  0
N  N120  1  0.51639570  0.76546611  0.04521778  1  -1.253977  0  -0.381579  -0.293591  0  3.63824  0
N  N121  1  0.98360050  0.73453265  0.54522200  1  -1.254418  0  -0.381598  -0.29374  0  3.638394  0
N  N122  1  0.48360090  0.23453608  0.95478223  1  -1.253833  0  -0.381602  -0.293697  0  3.638236  0
N  N123  1  0.01639775  0.26546345  0.45477933  1  -1.25392  0  -0.381554  -0.29367  0  3.638354  0
N  N124  1  0.56118151  0.83135270  0.17662935  1  -1.257243  0  -0.379251  -0.297555  0  3.637943  0
N  N125  1  0.93881707  0.66864928  0.67663137  1  -1.257595  0  -0.379307  -0.297643  0  3.638039  0
N  N126  1  0.43882185  0.16864813  0.82336868  1  -1.257262  0  -0.379291  -0.297578  0  3.637926  0
N  N127  1  0.06118195  0.33135020  0.32336995  1  -1.257218  0  -0.379296  -0.297572  0  3.63802  0
N  N128  1  0.55322276  0.63723130  0.88146880  1  -1.261499  0  -0.379172  -0.288521  0  3.621195  0
N  N129  1  0.94677333  0.86276678  0.38147039  1  -1.261577  0  -0.379194  -0.288647  0  3.621244  0
N  N130  1  0.44677354  0.36276954  0.11853253  1  -1.261452  0  -0.379176  -0.288578  0  3.621326  0
N  N131  1  0.05322422  0.13723068  0.61853094  1  -1.261514  0  -0.37915  -0.288555  0  3.621171  0
N  N132  1  0.72808333  0.57634939  0.82606272  1  -1.25985  0  -0.381799  -0.293746  0  3.641179  0
N  N133  1  0.77191690  0.92364846  0.32606346  1  -1.259935  0  -0.381877  -0.293758  0  3.641199  0
N  N134  1  0.27191840  0.42364874  0.17393927  1  -1.259864  0  -0.381833  -0.293762  0  3.641372  0
N  N135  1  0.22808328  0.07635170  0.67393655  1  -1.259846  0  -0.381869  -0.293771  0  3.641227  0
