# generated using pymatgen
data_InH6C8NO5
_symmetry_space_group_name_H-M   'P 1'
_cell_length_a   8.09370977
_cell_length_b   17.20276429
_cell_length_c   17.20903787
_cell_angle_alpha   117.60153969
_cell_angle_beta   99.03021140
_cell_angle_gamma   99.01219403
_symmetry_Int_Tables_number   1
_chemical_formula_structural   InH6C8NO5
_chemical_formula_sum   'In6 H36 C48 N6 O30'
_cell_volume   2023.77776543
_cell_formula_units_Z   6
loop_
 _symmetry_equiv_pos_site_id
 _symmetry_equiv_pos_as_xyz
  1  'x, y, z'
loop_
 _atom_site_type_symbol
 _atom_site_label
 _atom_site_symmetry_multiplicity
 _atom_site_fract_x
 _atom_site_fract_y
 _atom_site_fract_z
 _atom_site_occupancy
 _atom_site_pbe_bader_charge
 _atom_site_pbe_bader_spin_density
 _atom_site_pbe_cm5_charge
 _atom_site_pbe_ddec_charge
 _atom_site_pbe_ddec_spin_density
 _atom_site_pbe_ddec_sum_bond_order
 _atom_site_pbe_magmom
In  In0  1  0.34305279  0.57083819  0.27123972  1  1.895987  0  0.757036  1.484291  0  2.717156  0
In  In1  1  0.77239146  0.70063128  0.42926078  1  1.892906  0  0.757048  1.483602  0  2.715984  0
In  In2  1  0.07169607  0.72859130  0.29939164  1  1.892448  0  0.757524  1.484137  0  2.717776  0
In  In3  1  0.65695893  0.42915684  0.72874681  1  1.895765  0  0.757018  1.484248  0  2.717176  0
In  In4  1  0.22759863  0.29937055  0.57073950  1  1.892806  0  0.757018  1.483601  0  2.716077  0
In  In5  1  0.92832018  0.27140781  0.70061687  1  1.892452  0  0.757616  1.484241  0  2.717626  0
H  H6  1  0.77739345  0.60072339  0.86229471  1  0.509681  0  0.298411  0.30239  0  0.995876  0
H  H7  1  0.17649661  0.26192411  0.39938809  1  0.520442  0  0.299646  0.302894  0  0.995948  0
H  H8  1  0.91552551  0.13771626  0.73833633  1  0.513544  0  0.298509  0.303008  0  0.994965  0
H  H9  1  0.22260130  0.39927777  0.13770328  1  0.50964  0  0.298395  0.302369  0  0.995917  0
H  H10  1  0.82351714  0.73807500  0.60061326  1  0.520373  0  0.299584  0.302889  0  0.995976  0
H  H11  1  0.08447835  0.86227809  0.26166965  1  0.51365  0  0.298478  0.302996  0  0.995008  0
H  H12  1  0.88107849  0.59363137  0.78099928  1  0.452947  0  0.326449  0.32197  0  0.89334  0
H  H13  1  0.28689097  0.18738033  0.40595054  1  0.452887  0  0.325957  0.322189  0  0.893258  0
H  H14  1  0.10031699  0.21898742  0.81282198  1  0.468223  0  0.326766  0.321964  0  0.894491  0
H  H15  1  0.11892899  0.40637522  0.21900508  1  0.452886  0  0.326448  0.321967  0  0.893368  0
H  H16  1  0.71313152  0.81262626  0.59405667  1  0.452585  0  0.325958  0.322196  0  0.893259  0
H  H17  1  0.89968449  0.78100218  0.18718278  1  0.468272  0  0.326812  0.322058  0  0.894526  0
H  H18  1  0.12594658  0.63719448  0.38102393  1  0.64042  0  0.293245  0.381456  0  0.960627  0
H  H19  1  0.48886987  0.74389745  0.36262637  1  0.633571  0  0.291885  0.379763  0  0.963233  0
H  H20  1  0.74476978  0.61886716  0.25624681  1  0.606172  0  0.292674  0.379919  0  0.962759  0
H  H21  1  0.87404899  0.36279580  0.61897199  1  0.640413  0  0.293259  0.381487  0  0.960589  0
H  H22  1  0.51113081  0.25610303  0.63737175  1  0.633518  0  0.291864  0.379758  0  0.963216  0
H  H23  1  0.25522145  0.38113196  0.74375172  1  0.606211  0  0.292742  0.38002  0  0.962599  0
H  H24  1  0.43114621  0.58809783  0.03814934  1  0.096674  0  0.109568  0.119282  0  1.000314  0
H  H25  1  0.84304310  0.45051251  0.41227255  1  0.106489  0  0.108638  0.118845  0  1.00131  0
H  H26  1  0.39337153  0.96200290  0.54964166  1  0.095889  0  0.109279  0.118932  0  0.999823  0
H  H27  1  0.56884935  0.41189993  0.96184830  1  0.096617  0  0.10958  0.119275  0  1.000215  0
H  H28  1  0.15695393  0.54949068  0.58772481  1  0.106769  0  0.108647  0.11885  0  1.001281  0
H  H29  1  0.60662436  0.03800301  0.45035803  1  0.095834  0  0.109258  0.118916  0  0.999761  0
H  H30  1  0.15379550  0.53561075  0.77593823  1  0.083006  0  0.114946  0.131863  0  0.985988  0
H  H31  1  0.61812669  0.24062806  0.46457055  1  0.106218  0  0.114793  0.130559  0  0.987507  0
H  H32  1  0.37861459  0.22409965  0.75988714  1  0.124192  0  0.11511  0.130855  0  0.987146  0
H  H33  1  0.84618835  0.46438361  0.22405580  1  0.082392  0  0.114926  0.131869  0  0.986104  0
H  H34  1  0.38189502  0.75937445  0.53543239  1  0.105704  0  0.114791  0.130595  0  0.987466  0
H  H35  1  0.62137756  0.77589131  0.24011989  1  0.123447  0  0.115057  0.13082  0  0.98713  0
H  H36  1  0.90436325  0.60832666  0.99467188  1  0.126475  0  0.112209  0.133473  0  1.006105  0
H  H37  1  0.29573559  0.38615973  0.39109006  1  0.126741  0  0.110975  0.132498  0  1.008182  0
H  H38  1  0.91042781  0.00536644  0.61392514  1  0.152834  0  0.112711  0.133415  0  1.008006  0
H  H39  1  0.09563220  0.39166837  0.00532507  1  0.126501  0  0.112169  0.133461  0  1.006089  0
H  H40  1  0.70427393  0.61385093  0.60892273  1  0.126648  0  0.110977  0.132514  0  1.008152  0
H  H41  1  0.08957367  0.99463063  0.38606739  1  0.152831  0  0.112753  0.133453  0  1.007826  0
C  C42  1  0.16959502  0.61863158  0.11966170  1  1.534778  0  0.238714  0.610767  0  4.165518  0
C  C43  1  0.55071095  0.50120226  0.38131499  1  1.551623  0  0.238425  0.611274  0  4.164515  0
C  C44  1  0.05023349  0.88032917  0.49896508  1  1.578612  0  0.238216  0.609294  0  4.168243  0
C  C45  1  0.83040086  0.38137433  0.88033799  1  1.535427  0  0.238757  0.610844  0  4.165311  0
C  C46  1  0.44929586  0.49880297  0.61868404  1  1.551223  0  0.238544  0.611382  0  4.164009  0
C  C47  1  0.94976138  0.11967470  0.50103244  1  1.578704  0  0.238298  0.60938  0  4.168208  0
C  C48  1  0.16701054  0.59831166  0.02511194  1  0.028972  0  -0.016581  -0.024988  0  4.006802  0
C  C49  1  0.56855615  0.42694531  0.40158662  1  0.026806  0  -0.017254  -0.025623  0  4.0071  0
C  C50  1  0.14237042  0.97493000  0.57316208  1  0.021534  0  -0.019152  -0.027652  0  4.007123  0
C  C51  1  0.83298626  0.40168610  0.97488870  1  0.029687  0  -0.016664  -0.025084  0  4.006932  0
C  C52  1  0.43145303  0.57306468  0.59841769  1  0.027464  0  -0.017299  -0.025611  0  4.006883  0
C  C53  1  0.85762570  0.02507387  0.42683088  1  0.021307  0  -0.019233  -0.027752  0  4.007098  0
C  C54  1  0.31413628  0.58324546  0.99332290  1  -0.015169  0  -0.08087  -0.121698  0  3.933555  0
C  C55  1  0.73084041  0.41041677  0.41695355  1  -0.051907  0  -0.079282  -0.121479  0  3.934487  0
C  C56  1  0.32120839  0.00676557  0.58971356  1  -0.030576  0  -0.079481  -0.119067  0  3.931301  0
C  C57  1  0.68586394  0.41675161  0.00667302  1  -0.014821  0  -0.080856  -0.121646  0  3.933479  0
C  C58  1  0.26916128  0.58958574  0.58304791  1  -0.05182  0  -0.079232  -0.121422  0  3.934276  0
C  C59  1  0.67878341  0.99323218  0.41029077  1  -0.030486  0  -0.079422  -0.11896  0  3.931074  0
C  C60  1  0.30951149  0.56193686  0.90403738  1  -0.003533  0  -0.01142  -0.01018  0  3.992586  0
C  C61  1  0.74749426  0.34239418  0.43822563  1  -0.046063  0  -0.011069  -0.010106  0  3.994739  0
C  C62  1  0.40591875  0.09601638  0.65784798  1  0.040287  0  -0.011401  -0.011086  0  3.991234  0
C  C63  1  0.69047667  0.43806361  0.09596039  1  -0.00382  0  -0.011542  -0.010217  0  3.992343  0
C  C64  1  0.25251903  0.65760901  0.56177758  1  -0.046107  0  -0.011083  -0.010063  0  3.994746  0
C  C65  1  0.59407998  0.90398274  0.34215517  1  0.040304  0  -0.011426  -0.011138  0  3.991231  0
C  C66  1  0.47028976  0.54907596  0.87159480  1  1.585015  0  0.22555  0.596079  0  4.182665  0
C  C67  1  0.92104829  0.32272698  0.45105558  1  1.560086  0  0.226324  0.593881  0  4.182283  0
C  C68  1  0.59910312  0.12849398  0.67747536  1  1.546964  0  0.227137  0.596973  0  4.181699  0
C  C69  1  0.52969351  0.45092723  0.12839631  1  1.585236  0  0.225337  0.595649  0  4.182873  0
C  C70  1  0.07895988  0.67727350  0.54894309  1  1.559981  0  0.2264  0.593992  0  4.182349  0
C  C71  1  0.40088889  0.87150922  0.32252860  1  1.547159  0  0.227147  0.596797  0  4.18188  0
C  C72  1  0.15833366  0.55512748  0.84642213  1  -0.008307  0  -0.078074  -0.187793  0  3.897994  0
C  C73  1  0.60311628  0.29154449  0.44497047  1  0.044205  0  -0.079414  -0.186702  0  3.899821  0
C  C74  1  0.31252987  0.15364771  0.70879724  1  -0.065776  0  -0.07794  -0.187037  0  3.896858  0
C  C75  1  0.84165121  0.44486892  0.15357409  1  -0.007419  0  -0.077981  -0.187769  0  3.897941  0
C  C76  1  0.39689553  0.70846074  0.55503474  1  0.044558  0  -0.079464  -0.186828  0  3.899918  0
C  C77  1  0.68746182  0.84634733  0.29120466  1  -0.065091  0  -0.077857  -0.186886  0  3.896562  0
C  C78  1  0.01398358  0.57406520  0.87993925  1  0.264288  0  0.089841  0.276284  0  4.029167  0
C  C79  1  0.43976756  0.30600319  0.42585269  1  0.282579  0  0.089849  0.275433  0  4.029786  0
C  C80  1  0.13469922  0.12015031  0.69428912  1  0.247601  0  0.087499  0.27524  0  4.030756  0
C  C81  1  0.98600639  0.42593392  0.12006267  1  0.26415  0  0.089863  0.276378  0  4.028874  0
C  C82  1  0.56024276  0.69400408  0.57415510  1  0.282313  0  0.089948  0.275558  0  4.029893  0
C  C83  1  0.86530532  0.87984540  0.30571811  1  0.247754  0  0.087562  0.275279  0  4.030605  0
C  C84  1  0.01786196  0.59528205  0.96910088  1  -0.007881  0  -0.084188  -0.190646  0  3.901421  0
C  C85  1  0.42237322  0.37381577  0.40440413  1  -0.017568  0  -0.081955  -0.188904  0  3.901663  0
C  C86  1  0.04943744  0.03094304  0.62632695  1  -0.025847  0  -0.082769  -0.188396  0  3.90083  0
C  C87  1  0.98213008  0.40471367  0.03089614  1  -0.008716  0  -0.084142  -0.190682  0  3.901258  0
C  C88  1  0.57763857  0.62619694  0.59560453  1  -0.017673  0  -0.081967  -0.188998  0  3.901836  0
C  C89  1  0.95055971  0.96905540  0.37367112  1  -0.025914  0  -0.082785  -0.188443  0  3.900845  0
N  N90  1  0.85870384  0.56926576  0.82343210  1  -1.223764  0  -0.573914  -0.627352  0  3.364477  0
N  N91  1  0.28924076  0.25429037  0.43063740  1  -1.252235  0  -0.57412  -0.627651  0  3.363179  0
N  N92  1  0.03579905  0.17663789  0.74594409  1  -1.244175  0  -0.57279  -0.628033  0  3.365292  0
N  N93  1  0.14129159  0.43073675  0.17656657  1  -1.223567  0  -0.573853  -0.627335  0  3.364545  0
N  N94  1  0.71076787  0.74571350  0.56936520  1  -1.25182  0  -0.574081  -0.627687  0  3.363263  0
N  N95  1  0.96420060  0.82335306  0.25406116  1  -1.244149  0  -0.572842  -0.6282  0  3.365515  0
O  O96  1  0.29367851  0.60307120  0.16092549  1  -1.186827  0  -0.287122  -0.580298  0  2.330814  0
O  O97  1  0.69028191  0.55810045  0.39694845  1  -1.184097  0  -0.287313  -0.580049  0  2.330617  0
O  O98  1  0.13278288  0.83898708  0.44203871  1  -1.189153  0  -0.28674  -0.578877  0  2.331679  0
O  O99  1  0.70633407  0.39694558  0.83908164  1  -1.187026  0  -0.287132  -0.580361  0  2.33083  0
O  O100  1  0.30971364  0.44190479  0.60304975  1  -1.183942  0  -0.287417  -0.580191  0  2.330424  0
O  O101  1  0.86722904  0.16101339  0.55796489  1  -1.189172  0  -0.286766  -0.578913  0  2.331807  0
O  O102  1  0.04835405  0.65084732  0.15230504  1  -1.173229  0  -0.291959  -0.579779  0  2.27133  0
O  O103  1  0.39724683  0.50157450  0.34906835  1  -1.174863  0  -0.291947  -0.57981  0  2.271111  0
O  O104  1  0.89649230  0.84772063  0.49872372  1  -1.180907  0  -0.291944  -0.579482  0  2.27127  0
O  O105  1  0.95163138  0.34915520  0.84769521  1  -1.173616  0  -0.29199  -0.579762  0  2.271237  0
O  O106  1  0.60276400  0.49841373  0.65091787  1  -1.174853  0  -0.291931  -0.579828  0  2.271  0
O  O107  1  0.10350848  0.15228256  0.50127624  1  -1.180808  0  -0.292  -0.579578  0  2.271202  0
O  O108  1  0.44730750  0.47697932  0.79290168  1  -1.173999  0  -0.294857  -0.602889  0  2.323574  0
O  O109  1  0.97031539  0.31629530  0.52320243  1  -1.172726  0  -0.294634  -0.601124  0  2.322138  0
O  O110  1  0.65464321  0.20720472  0.68409674  1  -1.17193  0  -0.29467  -0.602491  0  2.324484  0
O  O111  1  0.55266895  0.52303271  0.20708197  1  -1.174173  0  -0.294852  -0.602659  0  2.323631  0
O  O112  1  0.02967653  0.68370517  0.47679329  1  -1.17273  0  -0.294669  -0.601143  0  2.321979  0
O  O113  1  0.34535974  0.79279031  0.31590716  1  -1.172049  0  -0.294679  -0.60244  0  2.324431  0
O  O114  1  0.61125407  0.60668587  0.92004511  1  -1.178357  0  -0.310839  -0.535264  0  2.121488  0
O  O115  1  0.00413099  0.31329923  0.39330925  1  -1.167707  0  -0.312169  -0.534734  0  2.121401  0
O  O116  1  0.69174865  0.08008899  0.68666122  1  -1.170228  0  -0.312446  -0.536031  0  2.121701  0
O  O117  1  0.38873387  0.39330916  0.07995303  1  -1.178585  0  -0.310647  -0.53508  0  2.121736  0
O  O118  1  0.99587971  0.68669376  0.60668788  1  -1.167638  0  -0.31225  -0.534865  0  2.121591  0
O  O119  1  0.30824645  0.91990537  0.31334701  1  -1.170367  0  -0.312411  -0.535843  0  2.122033  0
O  O120  1  0.13585432  0.62299235  0.31955522  1  -1.243753  0  -0.536326  -0.896763  0  2.091127  0
O  O121  1  0.51293248  0.69666588  0.37690625  1  -1.23968  0  -0.534458  -0.895004  0  2.088933  0
O  O122  1  0.81622537  0.68038266  0.30345552  1  -1.210851  0  -0.535882  -0.895614  0  2.091042  0
O  O123  1  0.86414617  0.37698774  0.68043692  1  -1.243663  0  -0.536365  -0.896827  0  2.091249  0
O  O124  1  0.48705659  0.30333392  0.62309127  1  -1.239578  0  -0.534405  -0.894905  0  2.088878  0
O  O125  1  0.18377701  0.31961374  0.69654258  1  -1.210962  0  -0.535917  -0.895653  0  2.091018  0
