# generated using pymatgen
data_LiH12C12SN
_symmetry_space_group_name_H-M   'P 1'
_cell_length_a   8.05172157
_cell_length_b   11.84919194
_cell_length_c   12.13170000
_cell_angle_alpha   92.21950840
_cell_angle_beta   100.28173371
_cell_angle_gamma   99.91390653
_symmetry_Int_Tables_number   1
_chemical_formula_structural   LiH12C12SN
_chemical_formula_sum   'Li4 H48 C48 S4 N4'
_cell_volume   1118.96537722
_cell_formula_units_Z   4
loop_
 _symmetry_equiv_pos_site_id
 _symmetry_equiv_pos_as_xyz
  1  'x, y, z'
loop_
 _atom_site_type_symbol
 _atom_site_label
 _atom_site_symmetry_multiplicity
 _atom_site_fract_x
 _atom_site_fract_y
 _atom_site_fract_z
 _atom_site_occupancy
 _atom_site_hle17_bader_spin_density
 _atom_site_hle17_ddec_charge
 _atom_site_hle17_ddec_spin_density
 _atom_site_hle17_ddec_sum_bond_order
 _atom_site_hle17_magmom
 _atom_site_hse06_10hf_bader_spin_density
 _atom_site_hse06_10hf_ddec_charge
 _atom_site_hse06_10hf_ddec_spin_density
 _atom_site_hse06_10hf_ddec_sum_bond_order
 _atom_site_hse06_10hf_magmom
 _atom_site_hse06_bader_spin_density
 _atom_site_hse06_ddec_charge
 _atom_site_hse06_ddec_spin_density
 _atom_site_hse06_ddec_sum_bond_order
 _atom_site_hse06_magmom
 _atom_site_pbe_bader_charge
 _atom_site_pbe_bader_spin_density
 _atom_site_pbe_cm5_charge
 _atom_site_pbe_ddec_charge
 _atom_site_pbe_ddec_spin_density
 _atom_site_pbe_ddec_sum_bond_order
 _atom_site_pbe_magmom
Li  Li0  1  0.50479893  0.44689146  0.54751135  1  0  0.732972  0  0.599968  0  0  0.673668  0  0.732363  0  0  0.681358  0  0.721907  0  0.839701  0  0.338464  0.668211  0  0.739741  0
Li  Li1  1  0.00566006  0.54863472  0.44953474  1  0  0.730799  0  0.60501  0  0  0.672102  0  0.736246  0  0  0.679834  0  0.725686  0  0.839266  0  0.340389  0.666616  0  0.743696  0
Li  Li2  1  0.26756454  0.45473617  0.32351231  1  0  0.730724  0  0.599038  0  0  0.671826  0  0.730669  0  0  0.679384  0  0.720474  0  0.839824  0  0.33892  0.666482  0  0.737812  0
Li  Li3  1  0.76858271  0.32565282  0.45300673  1  0  0.726003  0  0.608353  0  0  0.668403  0  0.737748  0  0  0.675977  0  0.727522  0  0.838586  0  0.339724  0.663075  0  0.744882  0
H  H4  1  0.64241944  0.33882210  0.75858625  1  0  0.067458  0  0.954962  0  0  0.074218  0  1.025637  0  0  0.076486  0  1.02371  0  0.082959  0  0.115209  0.072515  0  1.027057  0
H  H5  1  0.14301020  0.76006387  0.34085379  1  0  0.06926  0  0.953478  0  0  0.075463  0  1.024529  0  0  0.077851  0  1.022513  0  0.080163  0  0.115152  0.073671  0  1.026065  0
H  H6  1  0.52127819  0.22101922  0.90228860  1  0  0.098678  0  0.998708  0  0  0.106234  0  1.062774  0  0  0.107731  0  1.065575  0  0.101703  0  0.101558  0.105079  0  1.061045  0
H  H7  1  0.02131265  0.90396223  0.21963978  1  0  0.099266  0  1.00043  0  0  0.106248  0  1.065065  0  0  0.107756  0  1.067946  0  0.125218  0  0.101092  0.105121  0  1.063248  0
H  H8  1  0.20095128  0.16700043  0.88042821  1  0  0.086002  0  0.952332  0  0  0.098677  0  1.010941  0  0  0.10104  0  1.009409  0  0.074688  0  0.105263  0.096936  0  1.012081  0
H  H9  1  0.70107189  0.88120545  0.16407677  1  0  0.087099  0  0.954621  0  0  0.098987  0  1.013946  0  0  0.101349  0  1.012429  0  0.079859  0  0.104845  0.097258  0  1.015051  0
H  H10  1  0.01602303  0.23168555  0.71199064  1  0  0.093412  0  0.98289  0  0  0.102822  0  1.046316  0  0  0.105124  0  1.046906  0  0.088348  0  0.10418  0.101124  0  1.046108  0
H  H11  1  0.51660176  0.71180342  0.23064474  1  0  0.09288  0  0.986212  0  0  0.101863  0  1.049603  0  0  0.104223  0  1.050112  0  0.094082  0  0.103999  0.100127  0  1.04948  0
H  H12  1  0.15816160  0.35192267  0.57976675  1  0  0.082043  0  0.934229  0  0  0.090602  0  0.999128  0  0  0.093397  0  0.996717  0  0.101325  0  0.128653  0.088399  0  1.001153  0
H  H13  1  0.65890941  0.58074107  0.35476766  1  0  0.084082  0  0.932629  0  0  0.093574  0  0.995939  0  0  0.096433  0  0.993446  0  0.091045  0  0.129224  0.091363  0  0.997961  0
H  H14  1  0.43339963  0.38633957  0.14373547  1  0  0.076213  0  0.963975  0  0  0.080405  0  1.034703  0  0  0.08335  0  1.032574  0  0.106466  0  0.11075  0.078174  0  1.036287  0
H  H15  1  0.93243114  0.14050297  0.38924226  1  0  0.077332  0  0.961676  0  0  0.081199  0  1.032531  0  0  0.084165  0  1.0303  0  0.103079  0  0.111051  0.078965  0  1.034168  0
H  H16  1  0.47568125  0.44490559  0.95211685  1  0  0.096431  0  0.970651  0  0  0.107972  0  1.027706  0  0  0.110244  0  1.028699  0  0.072668  0  0.102845  0.106316  0  1.027206  0
H  H17  1  0.97388492  0.94468118  0.44898402  1  0  0.095649  0  0.973001  0  0  0.107425  0  1.029682  0  0  0.109608  0  1.030796  0  0.093234  0  0.102767  0.105834  0  1.029076  0
H  H18  1  0.34052089  0.60791367  0.87230193  1  0  0.098972  0  0.940863  0  0  0.111636  0  0.997653  0  0  0.114109  0  0.996364  0  0.083732  0  0.110828  0.109827  0  0.998598  0
H  H19  1  0.84182839  0.86705956  0.60993063  1  0  0.098014  0  0.942138  0  0  0.10999  0  1.00061  0  0  0.112396  0  0.999382  0  0.089737  0  0.110532  0.108224  0  1.001531  0
H  H20  1  0.16800434  0.70426020  0.98821253  1  0  0.097525  0  0.992604  0  0  0.10637  0  1.055587  0  0  0.108201  0  1.057712  0  0.112154  0  0.101747  0.105008  0  1.054296  0
H  H21  1  0.67158814  0.98870706  0.70284543  1  0  0.098869  0  0.990489  0  0  0.107434  0  1.053447  0  0  0.109206  0  1.055562  0  0.070481  0  0.102249  0.106149  0  1.052126  0
H  H22  1  0.14406173  0.63762100  0.17840934  1  0  0.065723  0  0.955544  0  0  0.072983  0  1.025192  0  0  0.07525  0  1.023593  0  0.069933  0  0.115387  0.071307  0  1.026394  0
H  H23  1  0.64628486  0.18218307  0.63408714  1  0  0.065587  0  0.958996  0  0  0.072883  0  1.02878  0  0  0.075178  0  1.027069  0  0.081414  0  0.115909  0.07117  0  1.03006  0
H  H24  1  0.21716830  0.21765819  0.40794313  1  0  0.074208  0  0.966977  0  0  0.090598  0  1.036183  0  0  0.091256  0  1.036293  0  0.052899  0  0.090929  0.090116  0  1.036109  0
H  H25  1  0.71672609  0.40993381  0.21689233  1  0  0.074235  0  0.966057  0  0  0.090101  0  1.03614  0  0  0.090781  0  1.036273  0  0.053061  0  0.090901  0.089586  0  1.036085  0
H  H26  1  0.40006158  0.16125841  0.47055774  1  0  0.069868  0  0.948291  0  0  0.087423  0  1.012994  0  0  0.088219  0  1.013055  0  0.034801  0  0.090581  0.086901  0  1.012918  0
H  H27  1  0.90070296  0.47375827  0.16422365  1  0  0.070249  0  0.947737  0  0  0.087448  0  1.012876  0  0  0.088259  0  1.012931  0  0.049249  0  0.090428  0.086933  0  1.0128  0
H  H28  1  0.47571607  0.00158389  0.37732613  1  0  0.090004  0  0.961556  0  0  0.101108  0  1.023774  0  0  0.103732  0  1.023838  0  0.056135  0  0.096831  0.099228  0  1.023828  0
H  H29  1  0.97608088  0.38151833  0.00735116  1  0  0.090811  0  0.964307  0  0  0.101118  0  1.027342  0  0  0.103549  0  1.02766  0  0.058671  0  0.096829  0.099372  0  1.027231  0
H  H30  1  0.43050380  0.86381877  0.21087376  1  0  0.067216  0  1.00204  0  0  0.079078  0  1.066648  0  0  0.081284  0  1.066085  0  0.039997  0  0.089855  0.077517  0  1.067063  0
H  H31  1  0.92996945  0.21449814  0.86859291  1  0  0.069616  0  0.994138  0  0  0.081821  0  1.058181  0  0  0.08409  0  1.057495  0  0.023665  0  0.090956  0.080182  0  1.058741  0
H  H32  1  0.24445671  0.89596463  0.03182102  1  0  0.077287  0  0.981273  0  0  0.087568  0  1.047174  0  0  0.09007  0  1.046613  0  0.05591  0  0.091914  0.0858  0  1.047605  0
H  H33  1  0.74175573  0.03105157  0.89507540  1  0  0.07777  0  0.982257  0  0  0.088132  0  1.048143  0  0  0.090475  0  1.047801  0  0.043132  0  0.092126  0.086465  0  1.048432  0
H  H34  1  0.09377874  0.06382532  0.02380807  1  0  0.072882  0  0.987909  0  0  0.084038  0  1.051595  0  0  0.086101  0  1.05144  0  0.046031  0  0.089615  0.082517  0  1.051823  0
H  H35  1  0.59193746  0.01936912  0.05865917  1  0  0.073147  0  0.985512  0  0  0.084323  0  1.049144  0  0  0.086401  0  1.048869  0  0.047217  0  0.090365  0.082809  0  1.04943  0
H  H36  1  0.13608668  0.20004561  0.19113362  1  0  0.100447  0  0.960907  0  0  0.107351  0  1.029187  0  0  0.110203  0  1.028736  0  0.104148  0  0.100134  0.105272  0  1.029634  0
H  H37  1  0.63633669  0.18697596  0.19644794  1  0  0.101891  0  0.958231  0  0  0.109213  0  1.025419  0  0  0.112019  0  1.025115  0  0.078976  0  0.100728  0.107095  0  1.025843  0
H  H38  1  0.42471080  0.76521666  0.43479098  1  0  0.063342  0  0.943139  0  0  0.084303  0  1.004605  0  0  0.084931  0  1.004522  0  0.023828  0  0.085675  0.083833  0  1.004691  0
H  H39  1  0.91817722  0.43023059  0.75992815  1  0  0.062655  0  0.945148  0  0  0.082432  0  1.008111  0  0  0.083047  0  1.008005  0  0.032077  0  0.084884  0.082009  0  1.008195  0
H  H40  1  0.58104066  0.70914758  0.52832923  1  0  0.079382  0  0.941007  0  0  0.094116  0  1.011345  0  0  0.095367  0  1.010796  0  0.045261  0  0.093385  0.093195  0  1.01179  0
H  H41  1  0.07877524  0.52552406  0.70994106  1  0  0.079812  0  0.937058  0  0  0.09496  0  1.005559  0  0  0.096147  0  1.005099  0  0.05002  0  0.094134  0.094105  0  1.005923  0
H  H42  1  0.55291406  0.70462611  0.73624678  1  0  0.095752  0  0.950763  0  0  0.106908  0  1.012909  0  0  0.109268  0  1.013121  0  0.095118  0  0.101044  0.105174  0  1.012944  0
H  H43  1  0.05107604  0.74009178  0.70780176  1  0  0.099205  0  0.953008  0  0  0.110735  0  1.014098  0  0  0.113055  0  1.014313  0  0.087125  0  0.102763  0.109014  0  1.014152  0
H  H44  1  0.50800186  0.82706298  0.89500529  1  0  0.076705  0  0.961889  0  0  0.090289  0  1.020471  0  0  0.092587  0  1.019969  0  0.048838  0  0.093416  0.088636  0  1.020908  0
H  H45  1  0.00761797  0.90111742  0.83013900  1  0  0.07724  0  0.960591  0  0  0.091392  0  1.018166  0  0  0.093654  0  1.017708  0  0.045792  0  0.093928  0.089787  0  1.018525  0
H  H46  1  0.34687910  0.98758786  0.85832274  1  0  0.077506  0  0.971473  0  0  0.088802  0  1.035889  0  0  0.09093  0  1.035758  0  0.068019  0  0.092426  0.087269  0  1.036033  0
H  H47  1  0.84873479  0.86158123  0.98705927  1  0  0.078387  0  0.971186  0  0  0.089315  0  1.036162  0  0  0.091431  0  1.036075  0  0.054392  0  0.093068  0.08783  0  1.036247  0
H  H48  1  0.22486504  0.02176900  0.66094136  1  0  0.076199  0  0.979749  0  0  0.086797  0  1.042691  0  0  0.088743  0  1.043689  0  0.065168  0  0.090548  0.08539  0  1.042085  0
H  H49  1  0.72788952  0.65924913  0.01795098  1  0  0.076773  0  0.975627  0  0  0.087024  0  1.038668  0  0  0.08915  0  1.039341  0  0.054862  0  0.090517  0.085486  0  1.03829  0
H  H50  1  0.26959501  0.89854575  0.50280709  1  0  0.07918  0  0.975107  0  0  0.088205  0  1.044937  0  0  0.090843  0  1.044057  0  0.058366  0  0.092644  0.086297  0  1.045647  0
H  H51  1  0.77030297  0.49889775  0.89449751  1  0  0.078283  0  0.978224  0  0  0.087465  0  1.047813  0  0  0.090184  0  1.046927  0  0.047875  0  0.092475  0.085516  0  1.04853  0
C  C52  1  0.50385837  0.31318444  0.75189166  1  0  0.117915  0  3.739867  0  0  0.092035  0  3.995511  0  0  0.097369  0  4.012223  0  0.474293  0  0.048725  0.088703  0  3.984214  0
C  C53  1  0.00443532  0.75339162  0.31460245  1  0  0.115281  0  3.744519  0  0  0.089785  0  4.000179  0  0  0.095148  0  4.016577  0  0.469882  0  0.048805  0.086395  0  3.989101  0
C  C54  1  0.43616999  0.24768934  0.83187525  1  0  -0.126478  0  3.744831  0  0  -0.136099  0  3.987803  0  0  -0.142535  0  4.010543  0  -0.063671  0  -0.085081  -0.131939  0  3.972512  0
C  C55  1  0.93649767  0.83319152  0.24705577  1  0  -0.128503  0  3.745671  0  0  -0.137743  0  3.988147  0  0  -0.14428  0  4.010906  0  -0.082358  0  -0.08595  -0.133538  0  3.972819  0
C  C56  1  0.25806419  0.21757229  0.81892459  1  0  -0.013122  0  3.734734  0  0  -0.028888  0  3.976539  0  0  -0.026386  0  3.995408  0  -0.055934  0  -0.068287  -0.030225  0  3.963563  0
C  C57  1  0.75842688  0.81969670  0.21603000  1  0  -0.013443  0  3.733569  0  0  -0.028324  0  3.974071  0  0  -0.025881  0  3.993091  0  -0.060849  0  -0.068801  -0.029628  0  3.961008  0
C  C58  1  0.15553223  0.25377665  0.72680817  1  0  -0.129779  0  3.741939  0  0  -0.141848  0  3.989489  0  0  -0.148554  0  4.012215  0  -0.026278  0  -0.083693  -0.137537  0  3.974223  0
C  C59  1  0.65603612  0.72729013  0.25338298  1  0  -0.129373  0  3.741058  0  0  -0.140734  0  3.988122  0  0  -0.14752  0  4.01086  0  -0.028636  0  -0.084018  -0.136385  0  3.972848  0
C  C60  1  0.23458410  0.32002590  0.65162168  1  0  0.145791  0  3.699241  0  0  0.11892  0  3.953278  0  0  0.124619  0  3.970167  0  0.467986  0  0.063082  0.115262  0  3.941972  0
C  C61  1  0.73519153  0.65268768  0.32195891  1  0  0.14623  0  3.696586  0  0  0.119177  0  3.950363  0  0  0.124724  0  3.96738  0  0.488274  0  0.064064  0.115604  0  3.939  0
C  C62  1  0.37885905  0.45726919  0.10572488  1  0  0.126725  0  3.719787  0  0  0.101046  0  3.971432  0  0  0.106137  0  3.989024  0  0.476126  0  0.049624  0.097913  0  3.959529  0
C  C63  1  0.87868313  0.10312702  0.45914219  1  0  0.124385  0  3.721414  0  0  0.099157  0  3.9728  0  0  0.104297  0  3.990309  0  0.49741  0  0.048708  0.095977  0  3.960906  0
C  C64  1  0.40139555  0.49019325  0.99946910  1  0  -0.122331  0  3.737758  0  0  -0.130109  0  3.977455  0  0  -0.136914  0  4.00013  0  -0.064731  0  -0.084473  -0.125726  0  3.962149  0
C  C65  1  0.90085500  0.99464234  0.49273326  1  0  -0.122171  0  3.735301  0  0  -0.130106  0  3.974845  0  0  -0.136857  0  3.997533  0  -0.086665  0  -0.085067  -0.125756  0  3.959515  0
C  C66  1  0.32640434  0.58051517  0.95543533  1  0  -0.011206  0  3.7202  0  0  -0.029065  0  3.963834  0  0  -0.026315  0  3.983144  0  -0.022764  0  -0.06755  -0.030579  0  3.950577  0
C  C67  1  0.82745971  0.95179751  0.58195649  1  0  -0.005508  0  3.711704  0  0  -0.023285  0  3.955557  0  0  -0.020442  0  3.974806  0  -0.064314  0  -0.065115  -0.024892  0  3.942393  0
C  C68  1  0.23170417  0.63488097  0.01978005  1  0  -0.128911  0  3.747966  0  0  -0.139819  0  3.992255  0  0  -0.147235  0  4.016444  0  -0.103327  0  -0.086949  -0.134995  0  3.975981  0
C  C69  1  0.73408372  0.01938458  0.63434940  1  0  -0.132941  0  3.748638  0  0  -0.143554  0  3.993567  0  0  -0.150877  0  4.01774  0  -0.036035  0  -0.087513  -0.138822  0  3.977288  0
C  C70  1  0.21705741  0.59710476  0.12562632  1  0  0.1157  0  3.743618  0  0  0.089631  0  4.001348  0  0  0.095169  0  4.017806  0  0.510633  0  0.045895  0.086116  0  3.990228  0
C  C71  1  0.71888549  0.12701416  0.59557237  1  0  0.117393  0  3.747003  0  0  0.090987  0  4.004742  0  0  0.09652  0  4.021277  0  0.486511  0  0.04568  0.087489  0  3.993568  0
C  C72  1  0.33971053  0.19629203  0.39416811  1  0  -0.081972  0  3.709487  0  0  -0.125145  0  3.959187  0  0  -0.123622  0  3.970431  0  -0.081514  0  -0.145317  -0.126124  0  3.951212  0
C  C73  1  0.83962649  0.39537820  0.19715854  1  0  -0.082089  0  3.705852  0  0  -0.124866  0  3.956731  0  0  -0.123437  0  3.968187  0  -0.08653  0  -0.146162  -0.125816  0  3.948683  0
C  C74  1  0.30987514  0.11062042  0.29518841  1  0  0.112541  0  3.735556  0  0  0.136282  0  3.965748  0  0  0.137062  0  3.989278  0  -0.034012  0  -0.007657  0.135678  0  3.949856  0
C  C75  1  0.81031002  0.29539749  0.11183475  1  0  0.111202  0  3.73355  0  0  0.134181  0  3.964569  0  0  0.134844  0  3.988244  0  -0.031943  0  -0.007954  0.133664  0  3.948585  0
C  C76  1  0.39189135  0.01521871  0.29958098  1  0  -0.137302  0  3.742352  0  0  -0.153247  0  3.982717  0  0  -0.15661  0  4.003934  0  -0.067843  0  -0.097739  -0.150932  0  3.968348  0
C  C77  1  0.89199934  0.30182322  0.01875033  1  0  -0.13642  0  3.743861  0  0  -0.151512  0  3.984246  0  0  -0.154696  0  4.005638  0  -0.055865  0  -0.096954  -0.149314  0  3.969754  0
C  C78  1  0.36784430  0.93827177  0.20542899  1  0  -0.08641  0  3.829197  0  0  -0.097095  0  4.074521  0  0  -0.098698  0  4.096238  0  -0.085595  0  -0.10375  -0.09586  0  4.059613  0
C  C79  1  0.86730436  0.20736206  0.94112988  1  0  -0.086572  0  3.828952  0  0  -0.097204  0  4.07399  0  0  -0.098814  0  4.095462  0  -0.024723  0  -0.103019  -0.095967  0  4.059286  0
C  C80  1  0.26334045  0.95606644  0.10518164  1  0  -0.102381  0  3.819656  0  0  -0.114393  0  4.066103  0  0  -0.117097  0  4.08771  0  -0.051637  0  -0.107085  -0.112459  0  4.051297  0
C  C81  1  0.76183910  0.10467654  0.95571232  1  0  -0.101596  0  3.817482  0  0  -0.113842  0  4.064105  0  0  -0.116351  0  4.08566  0  -0.095398  0  -0.105941  -0.112019  0  4.049311  0
C  C82  1  0.17992161  0.05053149  0.10039494  1  0  -0.083161  0  3.813488  0  0  -0.093129  0  4.055923  0  0  -0.09469  0  4.077757  0  -0.063781  0  -0.10059  -0.091938  0  4.041029  0
C  C83  1  0.67880041  0.09781017  0.04785858  1  0  -0.082996  0  3.809295  0  0  -0.093164  0  4.052828  0  0  -0.094759  0  4.074628  0  -0.061145  0  -0.100866  -0.091952  0  4.037902  0
C  C84  1  0.20214482  0.12673586  0.19454726  1  0  -0.113738  0  3.705079  0  0  -0.129095  0  3.942374  0  0  -0.132068  0  3.963229  0  -0.062587  0  -0.089276  -0.127069  0  3.928328  0
C  C85  1  0.70208285  0.19220605  0.12492511  1  0  -0.113996  0  3.703129  0  0  -0.128901  0  3.940257  0  0  -0.131839  0  3.961201  0  -0.051889  0  -0.088698  -0.126835  0  3.926153  0
C  C86  1  0.44664448  0.72140123  0.51295109  1  0  -0.066899  0  3.708697  0  0  -0.110882  0  3.960451  0  0  -0.109519  0  3.972005  0  -0.074429  0  -0.147676  -0.111682  0  3.952198  0
C  C87  1  0.94368522  0.51145375  0.71977809  1  0  -0.068195  0  3.707794  0  0  -0.110853  0  3.957649  0  0  -0.109597  0  3.969622  0  -0.082423  0  -0.147249  -0.111665  0  3.949212  0
C  C88  1  0.41358638  0.79293983  0.60859059  1  0  0.11324  0  3.7411  0  0  0.135733  0  3.973237  0  0  0.13654  0  3.99698  0  0.029197  0  -0.008196  0.135149  0  3.957175  0
C  C89  1  0.91246515  0.60837578  0.79214548  1  0  0.110991  0  3.741025  0  0  0.135651  0  3.969997  0  0  0.136358  0  3.993878  0  -0.020001  0  -0.009322  0.135151  0  3.953843  0
C  C90  1  0.47909077  0.77335512  0.72000050  1  0  -0.119135  0  3.714887  0  0  -0.137112  0  3.957888  0  0  -0.140208  0  3.979082  0  -0.089158  0  -0.090738  -0.135009  0  3.943622  0
C  C91  1  0.97818106  0.72267160  0.77494533  1  0  -0.123782  0  3.720549  0  0  -0.142908  0  3.963986  0  0  -0.145899  0  3.985129  0  -0.075435  0  -0.092511  -0.140856  0  3.949733  0
C  C92  1  0.45406968  0.84253937  0.80904734  1  0  -0.083245  0  3.816218  0  0  -0.094923  0  4.065616  0  0  -0.096265  0  4.087177  0  -0.05347  0  -0.098925  -0.0939  0  4.050908  0
C  C93  1  0.95400821  0.81295401  0.84410550  1  0  -0.082039  0  3.812689  0  0  -0.093947  0  4.062494  0  0  -0.095279  0  4.084049  0  -0.065785  0  -0.098408  -0.092938  0  4.0478  0
C  C94  1  0.36325224  0.93248938  0.78849460  1  0  -0.102094  0  3.817444  0  0  -0.116011  0  4.068318  0  0  -0.118861  0  4.090729  0  -0.123441  0  -0.106203  -0.113993  0  4.052981  0
C  C95  1  0.86435058  0.79079592  0.93200012  1  0  -0.100343  0  3.813433  0  0  -0.114077  0  4.063839  0  0  -0.116837  0  4.086145  0  -0.122496  0  -0.105016  -0.112153  0  4.048616  0
C  C96  1  0.29533030  0.95166008  0.67812376  1  0  -0.079174  0  3.815895  0  0  -0.089181  0  4.059761  0  0  -0.090377  0  4.081487  0  -0.021401  0  -0.10188  -0.088228  0  4.044896  0
C  C97  1  0.79693714  0.67760899  0.94920929  1  0  -0.079635  0  3.812625  0  0  -0.089151  0  4.056434  0  0  -0.090415  0  4.077993  0  -0.031286  0  -0.101321  -0.088147  0  4.041694  0
C  C98  1  0.32006333  0.88194157  0.58912397  1  0  -0.140857  0  3.754503  0  0  -0.157867  0  3.997194  0  0  -0.161184  0  4.018246  0  -0.127093  0  -0.098242  -0.155584  0  3.982937  0
C  C99  1  0.82049169  0.58738756  0.87933935  1  0  -0.137913  0  3.755905  0  0  -0.155654  0  3.997395  0  0  -0.159057  0  4.018615  0  -0.028018  0  -0.097001  -0.153334  0  3.983046  0
S  S100  1  0.47636146  0.33047921  0.36935167  1  0  -0.791583  0  1.938365  0  0  -0.741249  0  2.2788  0  0  -0.753111  0  2.267232  0  -0.751343  0  -0.343408  -0.732096  0  2.286545  0
S  S101  1  0.97463260  0.36872785  0.32924662  1  0  -0.787055  0  1.925778  0  0  -0.736234  0  2.264305  0  0  -0.748059  0  2.252688  0  -0.750786  0  -0.337444  -0.72706  0  2.272092  0
S  S102  1  0.31077527  0.57854906  0.49484256  1  0  -0.84777  0  1.949484  0  0  -0.797503  0  2.292693  0  0  -0.808531  0  2.281051  0  -0.776556  0  -0.369931  -0.789059  0  2.300464  0
S  S103  1  0.81109267  0.49900598  0.57874540  1  0  -0.842285  0  1.935294  0  0  -0.793174  0  2.276829  0  0  -0.803969  0  2.265152  0  -0.775936  0  -0.36372  -0.784902  0  2.284693  0
N  N104  1  0.40601742  0.34953911  0.66331478  1  0  -0.392705  0  3.202711  0  0  -0.340121  0  3.463846  0  0  -0.351161  0  3.478611  0  -1.263264  0  -0.3939  -0.332923  0  3.454012  0
N  N105  1  0.90660391  0.66493016  0.35236781  1  0  -0.393508  0  3.213242  0  0  -0.341038  0  3.474244  0  0  -0.352132  0  3.4892  0  -1.274897  0  -0.397947  -0.3338  0  3.464301  0
N  N106  1  0.28914284  0.51009319  0.16883194  1  0  -0.403283  0  3.212702  0  0  -0.35159  0  3.478586  0  0  -0.362905  0  3.493565  0  -1.265105  0  -0.401156  -0.344193  0  3.468554  0
N  N107  1  0.79006022  0.16925515  0.50989702  1  0  -0.40454  0  3.220967  0  0  -0.352994  0  3.486539  0  0  -0.364368  0  3.501677  0  -1.258266  0  -0.404718  -0.345559  0  3.47639  0
