# generated using pymatgen
data_ZnH22C32(NO)4
_symmetry_space_group_name_H-M   'P 1'
_cell_length_a   7.61066549
_cell_length_b   11.51257742
_cell_length_c   15.99690000
_cell_angle_alpha   90.00000000
_cell_angle_beta   90.00000000
_cell_angle_gamma   109.30180020
_symmetry_Int_Tables_number   1
_chemical_formula_structural   ZnH22C32(NO)4
_chemical_formula_sum   'Zn2 H44 C64 N8 O8'
_cell_volume   1322.83799246
_cell_formula_units_Z   2
loop_
 _symmetry_equiv_pos_site_id
 _symmetry_equiv_pos_as_xyz
  1  'x, y, z'
loop_
 _atom_site_type_symbol
 _atom_site_label
 _atom_site_symmetry_multiplicity
 _atom_site_fract_x
 _atom_site_fract_y
 _atom_site_fract_z
 _atom_site_occupancy
 _atom_site_hle17_bader_spin_density
 _atom_site_hle17_ddec_charge
 _atom_site_hle17_ddec_spin_density
 _atom_site_hle17_ddec_sum_bond_order
 _atom_site_hle17_magmom
 _atom_site_hse06_10hf_bader_spin_density
 _atom_site_hse06_10hf_ddec_charge
 _atom_site_hse06_10hf_ddec_spin_density
 _atom_site_hse06_10hf_ddec_sum_bond_order
 _atom_site_hse06_10hf_magmom
 _atom_site_hse06_bader_spin_density
 _atom_site_hse06_ddec_charge
 _atom_site_hse06_ddec_spin_density
 _atom_site_hse06_ddec_sum_bond_order
 _atom_site_hse06_magmom
 _atom_site_pbe_bader_charge
 _atom_site_pbe_bader_spin_density
 _atom_site_pbe_cm5_charge
 _atom_site_pbe_ddec_charge
 _atom_site_pbe_ddec_spin_density
 _atom_site_pbe_ddec_sum_bond_order
 _atom_site_pbe_magmom
Zn  Zn0  1  0.64993430  0.00003221  0.49997562  1  0  1.00991  0  1.90064  0  0  0.820905  0  2.385825  0  0  0.867381  0  2.329144  0  1.261383  0  0.695931  0.788504  0  2.424725  0
Zn  Zn1  1  0.14993467  0.00003221  0.00002438  1  0  1.009896  0  1.900609  0  0  0.820887  0  2.385802  0  0  0.867372  0  2.329117  0  1.261388  0  0.695916  0.788489  0  2.424702  0
H  H2  1  0.24108718  0.64178403  0.47098750  1  0  0.095408  0  0.9683  0  0  0.104661  0  1.032707  0  0  0.107425  0  1.031721  0  0.087444  0  0.099436  0.102648  0  1.033528  0
H  H3  1  0.59930494  0.35825260  0.52899249  1  0  0.095618  0  0.968256  0  0  0.105227  0  1.032286  0  0  0.10806  0  1.031207  0  0.091916  0  0.09954  0.10316  0  1.033171  0
H  H4  1  0.74108814  0.64178403  0.02901250  1  0  0.095428  0  0.968243  0  0  0.104678  0  1.03266  0  0  0.107443  0  1.031673  0  0.087441  0  0.099447  0.102666  0  1.033481  0
H  H5  1  0.09930530  0.35825260  0.97100751  1  0  0.095582  0  0.968233  0  0  0.105203  0  1.032252  0  0  0.108032  0  1.031178  0  0.091908  0  0.099527  0.103136  0  1.033138  0
H  H6  1  0.93931735  0.47361999  0.45322469  1  0  0.086891  0  0.961749  0  0  0.097602  0  1.025246  0  0  0.100633  0  1.023951  0  0.051236  0  0.09726  0.095452  0  1.026245  0
H  H7  1  0.46564392  0.52638167  0.54670467  1  0  0.087271  0  0.961704  0  0  0.097553  0  1.025679  0  0  0.100566  0  1.024391  0  0.063409  0  0.097228  0.095408  0  1.026671  0
H  H8  1  0.43931639  0.47361999  0.04677469  1  0  0.086889  0  0.961755  0  0  0.097599  0  1.025255  0  0  0.100632  0  1.023955  0  0.051194  0  0.097257  0.095448  0  1.026254  0
H  H9  1  0.96564356  0.52638167  0.95329533  1  0  0.08722  0  0.961695  0  0  0.097503  0  1.025674  0  0  0.100517  0  1.024384  0  0.063416  0  0.097201  0.095358  0  1.026666  0
H  H10  1  0.76525988  0.69735829  0.27680988  1  0  0.091744  0  0.975309  0  0  0.100903  0  1.039962  0  0  0.103105  0  1.040681  0  0.061779  0  0.096615  0.099331  0  1.039559  0
H  H11  1  0.06798892  0.30270319  0.72322950  1  0  0.091634  0  0.974805  0  0  0.101225  0  1.039053  0  0  0.103378  0  1.039817  0  0.053953  0  0.096556  0.099696  0  1.038615  0
H  H12  1  0.26526024  0.69735829  0.22319012  1  0  0.091744  0  0.975306  0  0  0.100903  0  1.039959  0  0  0.103106  0  1.040677  0  0.061783  0  0.096618  0.099332  0  1.039556  0
H  H13  1  0.56798902  0.30270411  0.77677050  1  0  0.091631  0  0.974814  0  0  0.101221  0  1.039064  0  0  0.103373  0  1.039828  0  0.053952  0  0.096556  0.099691  0  1.038626  0
H  H14  1  0.06921960  0.86370557  0.29477836  1  0  0.094397  0  0.977371  0  0  0.101486  0  1.046705  0  0  0.104367  0  1.04541  0  0.106414  0  0.100659  0.099393  0  1.047731  0
H  H15  1  0.20549050  0.13625836  0.70520976  1  0  0.093994  0  0.977518  0  0  0.101329  0  1.046739  0  0  0.104246  0  1.045376  0  0.100466  0  0.100423  0.099227  0  1.04778  0
H  H16  1  0.56921970  0.86370649  0.20522164  1  0  0.094387  0  0.977373  0  0  0.101455  0  1.046729  0  0  0.104336  0  1.045435  0  0.106399  0  0.100648  0.099362  0  1.047754  0
H  H17  1  0.70549060  0.13625928  0.79479087  1  0  0.093972  0  0.977488  0  0  0.101308  0  1.046716  0  0  0.104225  0  1.045351  0  0.100485  0  0.100418  0.099206  0  1.047756  0
H  H18  1  0.76068421  0.32533729  0.36075240  1  0  0.091749  0  0.949411  0  0  0.102392  0  1.01053  0  0  0.105038  0  1.009777  0  0.048015  0  0.100953  0.100502  0  1.011145  0
H  H19  1  0.43544096  0.67478217  0.63935012  1  0  0.091375  0  0.949  0  0  0.101966  0  1.010347  0  0  0.104605  0  1.0096  0  0.033362  0  0.100607  0.100079  0  1.010957  0
H  H20  1  0.26068457  0.32533729  0.13924760  1  0  0.091746  0  0.949402  0  0  0.102389  0  1.010521  0  0  0.105035  0  1.009768  0  0.04801  0  0.100951  0.100499  0  1.011136  0
H  H21  1  0.93544060  0.67478217  0.86064988  1  0  0.091405  0  0.94897  0  0  0.101969  0  1.010344  0  0  0.104608  0  1.009597  0  0.033358  0  0.100609  0.100082  0  1.010954  0
H  H22  1  0.45151071  0.16044693  0.36576399  1  0  0.127961  0  0.967748  0  0  0.13482  0  1.033834  0  0  0.138788  0  1.030684  0  0.165114  0  0.109451  0.131968  0  1.036123  0
H  H23  1  0.29114857  0.83959707  0.63418600  1  0  0.1273  0  0.96883  0  0  0.134455  0  1.03466  0  0  0.138417  0  1.031548  0  0.169416  0  0.109422  0.131567  0  1.037031  0
H  H24  1  0.95151035  0.16044693  0.13423601  1  0  0.127956  0  0.967756  0  0  0.134815  0  1.033844  0  0  0.138784  0  1.030694  0  0.165114  0  0.109453  0.131964  0  1.036132  0
H  H25  1  0.79114821  0.83959707  0.86581400  1  0  0.127305  0  0.968829  0  0  0.134461  0  1.034655  0  0  0.138423  0  1.031543  0  0.169434  0  0.109422  0.131573  0  1.037026  0
H  H26  1  0.18230846  0.43548448  0.35139433  1  0  0.101848  0  0.964962  0  0  0.111381  0  1.029425  0  0  0.113856  0  1.029119  0  0.076312  0  0.102566  0.109618  0  1.02968  0
H  H27  1  0.74678377  0.56448037  0.64863942  1  0  0.101321  0  0.965301  0  0  0.110733  0  1.030018  0  0  0.113228  0  1.029724  0  0.10588  0  0.102342  0.108932  0  1.030306  0
H  H28  1  0.68230810  0.43548448  0.14860567  1  0  0.101841  0  0.964972  0  0  0.111375  0  1.029434  0  0  0.113849  0  1.029129  0  0.076315  0  0.102561  0.109611  0  1.029691  0
H  H29  1  0.24678413  0.56448037  0.85136120  1  0  0.101359  0  0.965331  0  0  0.110777  0  1.030038  0  0  0.113273  0  1.029743  0  0.105878  0  0.102369  0.108988  0  1.030312  0
H  H30  1  0.48960128  0.60068408  0.35230201  1  0  0.09533  0  0.952049  0  0  0.106416  0  1.012799  0  0  0.108901  0  1.012345  0  0.059515  0  0.102444  0.104607  0  1.013215  0
H  H31  1  0.88898995  0.39929825  0.64770612  1  0  0.096448  0  0.951796  0  0  0.106893  0  1.013142  0  0  0.109402  0  1.012659  0  0.06971  0  0.102363  0.105079  0  1.013579  0
H  H32  1  0.98960092  0.60068408  0.14769737  1  0  0.095331  0  0.952046  0  0  0.106418  0  1.012795  0  0  0.108902  0  1.012341  0  0.059513  0  0.102442  0.104609  0  1.013211  0
H  H33  1  0.38899031  0.39929825  0.85229451  1  0  0.096445  0  0.951795  0  0  0.106899  0  1.013131  0  0  0.109408  0  1.012649  0  0.069716  0  0.102373  0.105086  0  1.013567  0
H  H34  1  0.03116936  0.23500980  0.48619483  1  0  0.103061  0  0.927049  0  0  0.113496  0  0.988377  0  0  0.115819  0  0.986082  0  0.127221  0  0.139832  0.111779  0  0.990004  0
H  H35  1  0.79602843  0.76496701  0.51371328  1  0  0.103235  0  0.926532  0  0  0.113102  0  0.988466  0  0  0.115409  0  0.986217  0  0.154277  0  0.139841  0.111393  0  0.990086  0
H  H36  1  0.53116900  0.23500980  0.01380455  1  0  0.10305  0  0.927049  0  0  0.113485  0  0.98838  0  0  0.115809  0  0.986083  0  0.127211  0  0.139828  0.111768  0  0.990006  0
H  H37  1  0.29602879  0.76496701  0.98628672  1  0  0.103232  0  0.926537  0  0  0.113099  0  0.988468  0  0  0.115407  0  0.986218  0  0.154277  0  0.139845  0.111391  0  0.990088  0
H  H38  1  0.77528372  0.95256787  0.31286499  1  0  0.11018  0  0.955956  0  0  0.118965  0  1.017373  0  0  0.121655  0  1.015875  0  0.130774  0  0.121227  0.11699  0  1.018612  0
H  H39  1  0.82267557  0.04737949  0.68712876  1  0  0.109989  0  0.956138  0  0  0.118619  0  1.018021  0  0  0.121225  0  1.016641  0  0.127491  0  0.121026  0.116698  0  1.019188  0
H  H40  1  0.27528277  0.95256787  0.18713438  1  0  0.110191  0  0.955952  0  0  0.118994  0  1.017349  0  0  0.121684  0  1.015849  0  0.130772  0  0.12123  0.117019  0  1.018589  0
H  H41  1  0.32267593  0.04737949  0.81287124  1  0  0.109991  0  0.956138  0  0  0.118621  0  1.018023  0  0  0.121226  0  1.016643  0  0.1275  0  0.121028  0.116699  0  1.01919  0
H  H42  1  0.11594845  0.09727060  0.24918766  1  0  0.126276  0  0.959911  0  0  0.134249  0  1.023979  0  0  0.136971  0  1.022724  0  0.166959  0  0.127169  0.132231  0  1.025087  0
H  H43  1  0.01868899  0.90266019  0.75075046  1  0  0.126145  0  0.961118  0  0  0.134718  0  1.024378  0  0  0.137308  0  1.023258  0  0.171798  0  0.127364  0.132806  0  1.025372  0
H  H44  1  0.61594809  0.09727060  0.25081234  1  0  0.126275  0  0.959911  0  0  0.134245  0  1.023976  0  0  0.136968  0  1.02272  0  0.166983  0  0.127169  0.132229  0  1.025084  0
H  H45  1  0.51868863  0.90266019  0.74924954  1  0  0.126151  0  0.961111  0  0  0.134723  0  1.024373  0  0  0.137313  0  1.023254  0  0.171819  0  0.127365  0.132812  0  1.025367  0
C  C46  1  0.35340504  0.86742929  0.39719196  1  0  0.632889  0  3.943253  0  0  0.588765  0  4.226716  0  0  0.622983  0  4.219004  0  1.556782  0  0.197819  0.565564  0  4.231233  0
C  C47  1  0.48590450  0.13253923  0.60275803  1  0  0.632372  0  3.941842  0  0  0.588331  0  4.225347  0  0  0.622514  0  4.217725  0  1.544792  0  0.197638  0.565149  0  4.229772  0
C  C48  1  0.85340599  0.86742929  0.10280804  1  0  0.63275  0  3.943295  0  0  0.588614  0  4.226779  0  0  0.622833  0  4.219068  0  1.556793  0  0.197775  0.565413  0  4.231294  0
C  C49  1  0.98590414  0.13253923  0.89724197  1  0  0.63238  0  3.941851  0  0  0.588345  0  4.225344  0  0  0.622526  0  4.217726  0  1.544794  0  0.197638  0.565162  0  4.22977  0
C  C50  1  0.17501111  0.76292384  0.38348680  1  0  -0.071815  0  3.762409  0  0  -0.046737  0  3.989796  0  0  -0.055392  0  4.012806  0  -0.04137  0  -0.023027  -0.041217  0  3.974373  0
C  C51  1  0.41180386  0.23696277  0.61637192  1  0  -0.072341  0  3.761276  0  0  -0.047778  0  3.989482  0  0  -0.056476  0  4.012587  0  -0.032287  0  -0.023532  -0.042187  0  3.973935  0
C  C52  1  0.67501075  0.76292384  0.11651257  1  0  -0.071751  0  3.762349  0  0  -0.046663  0  3.989719  0  0  -0.055317  0  4.012729  0  -0.04136  0  -0.023015  -0.041142  0  3.974295  0
C  C53  1  0.91180350  0.23696277  0.88362808  1  0  -0.072348  0  3.761289  0  0  -0.047786  0  3.989495  0  0  -0.056481  0  4.012598  0  -0.032293  0  -0.023535  -0.042194  0  3.973947  0
C  C54  1  0.13765492  0.65205143  0.42729029  1  0  -0.064163  0  3.757141  0  0  -0.088621  0  4.00534  0  0  -0.087647  0  4.026249  0  0.022644  0  -0.088071  -0.089034  0  3.991171  0
C  C55  1  0.48547602  0.34793735  0.57262720  1  0  -0.064691  0  3.75694  0  0  -0.089197  0  4.005026  0  0  -0.08828  0  4.025959  0  -0.060998  0  -0.088107  -0.089562  0  3.990811  0
C  C56  1  0.63765456  0.65205143  0.07270971  1  0  -0.064199  0  3.757102  0  0  -0.088657  0  4.005306  0  0  -0.087683  0  4.026216  0  0.022645  0  -0.088087  -0.08907  0  3.991136  0
C  C57  1  0.98547481  0.34793827  0.92737218  1  0  -0.064688  0  3.757008  0  0  -0.089205  0  4.005094  0  0  -0.088286  0  4.026029  0  -0.060976  0  -0.088121  -0.089571  0  3.99088  0
C  C58  1  0.96836947  0.55813273  0.41694766  1  0  -0.133005  0  3.762504  0  0  -0.150497  0  4.012125  0  0  -0.154909  0  4.033157  0  -0.137842  0  -0.096675  -0.147589  0  3.997864  0
C  C59  1  0.41021724  0.44187997  0.58301483  1  0  -0.133505  0  3.762056  0  0  -0.150552  0  4.011723  0  0  -0.154972  0  4.032787  0  -0.072609  0  -0.096778  -0.147611  0  3.997429  0
C  C60  1  0.46836983  0.55813273  0.08305234  1  0  -0.133024  0  3.762497  0  0  -0.150514  0  4.012118  0  0  -0.154927  0  4.03315  0  -0.137795  0  -0.096686  -0.147607  0  3.997856  0
C  C61  1  0.91021642  0.44187905  0.91698517  1  0  -0.133435  0  3.762128  0  0  -0.150482  0  4.01178  0  0  -0.154898  0  4.032848  0  -0.07263  0  -0.096733  -0.147542  0  3.997486  0
C  C62  1  0.83034773  0.57299911  0.36363733  1  0  0.054492  0  3.797702  0  0  0.068045  0  4.0284  0  0  0.069744  0  4.051938  0  -0.014773  0  -0.009031  0.06706  0  4.012328  0
C  C63  1  0.25730128  0.42701636  0.63633454  1  0  0.056235  0  3.796471  0  0  0.069202  0  4.027485  0  0  0.070949  0  4.05099  0  -0.009067  0  -0.008808  0.068158  0  4.011471  0
C  C64  1  0.33034723  0.57300003  0.13636267  1  0  0.054498  0  3.797691  0  0  0.068045  0  4.028395  0  0  0.069744  0  4.051933  0  -0.014839  0  -0.009026  0.067062  0  4.01232  0
C  C65  1  0.75730224  0.42701636  0.86366609  1  0  0.056252  0  3.79646  0  0  0.069231  0  4.027459  0  0  0.070962  0  4.050988  0  -0.009075  0  -0.008799  0.068188  0  4.011445  0
C  C66  1  0.86900678  0.68433814  0.31948252  1  0  -0.123431  0  3.742899  0  0  -0.139235  0  3.988734  0  0  -0.143595  0  4.009879  0  -0.015876  0  -0.09473  -0.136352  0  3.974366  0
C  C67  1  0.18469835  0.31566536  0.68054498  1  0  -0.124544  0  3.741702  0  0  -0.140578  0  3.987934  0  0  -0.144897  0  4.009071  0  0.00331  0  -0.094914  -0.137725  0  3.973593  0
C  C68  1  0.36900714  0.68433814  0.18051748  1  0  -0.123424  0  3.742926  0  0  -0.139226  0  3.988757  0  0  -0.143586  0  4.009901  0  -0.015818  0  -0.094734  -0.136343  0  3.974389  0
C  C69  1  0.68469799  0.31566536  0.81945502  1  0  -0.124554  0  3.741684  0  0  -0.140591  0  3.987911  0  0  -0.144906  0  4.009053  0  0.003324  0  -0.094914  -0.137738  0  3.97357  0
C  C70  1  0.03970037  0.77740459  0.32877245  1  0  -0.077544  0  3.765376  0  0  -0.100768  0  4.012376  0  0  -0.100035  0  4.032638  0  -0.090417  0  -0.088137  -0.101003  0  3.998621  0
C  C71  1  0.26226917  0.22257314  0.67122442  1  0  -0.076291  0  3.765296  0  0  -0.099628  0  4.012312  0  0  -0.098867  0  4.032506  0  -0.092695  0  -0.087511  -0.099892  0  3.998586  0
C  C72  1  0.53969955  0.77740367  0.17122818  1  0  -0.077552  0  3.765369  0  0  -0.10076  0  4.012372  0  0  -0.100027  0  4.032633  0  -0.09039  0  -0.088124  -0.100994  0  3.998617  0
C  C73  1  0.76227012  0.22257314  0.82877558  1  0  -0.076257  0  3.765233  0  0  -0.099593  0  4.012248  0  0  -0.098832  0  4.032441  0  -0.092705  0  -0.087501  -0.099858  0  3.998523  0
C  C74  1  0.64774184  0.47496186  0.35750739  1  0  0.044078  0  3.788863  0  0  0.059144  0  4.017513  0  0  0.059063  0  4.0414  0  -0.011471  0  -0.006703  0.059176  0  4.001282  0
C  C75  1  0.17281955  0.52504716  0.64243447  1  0  0.042741  0  3.789604  0  0  0.058758  0  4.017011  0  0  0.058635  0  4.040942  0  -0.052533  0  -0.006978  0.058834  0  4.000749  0
C  C76  1  0.14774220  0.47496186  0.14249261  1  0  0.044082  0  3.788854  0  0  0.059154  0  4.017497  0  0  0.059073  0  4.041385  0  -0.011486  0  -0.006695  0.059186  0  4.001267  0
C  C77  1  0.67281965  0.52504809  0.85756553  1  0  0.04273  0  3.789633  0  0  0.058734  0  4.017045  0  0  0.058615  0  4.040978  0  -0.052527  0  -0.006996  0.05881  0  4.000782  0
C  C78  1  0.63431493  0.35018760  0.35935275  1  0  -0.093294  0  3.729669  0  0  -0.110978  0  3.979603  0  0  -0.113503  0  3.999518  0  -0.052889  0  -0.084735  -0.109242  0  3.966122  0
C  C79  1  0.28423069  0.64988585  0.64068913  1  0  -0.093342  0  3.728079  0  0  -0.111219  0  3.977762  0  0  -0.11374  0  3.997687  0  -0.025153  0  -0.084898  -0.109473  0  3.964239  0
C  C80  1  0.13431529  0.35018760  0.14064663  1  0  -0.093289  0  3.729651  0  0  -0.110973  0  3.979583  0  0  -0.113499  0  3.999498  0  -0.052885  0  -0.084734  -0.109236  0  3.966103  0
C  C81  1  0.78423164  0.64988585  0.85931149  1  0  -0.093348  0  3.728097  0  0  -0.111197  0  3.977774  0  0  -0.113716  0  3.997697  0  -0.025164  0  -0.084884  -0.109451  0  3.96425  0
C  C82  1  0.46215936  0.25709169  0.36099557  1  0  -0.125175  0  3.717439  0  0  -0.150306  0  3.972969  0  0  -0.151957  0  3.991566  0  -0.00034  0  -0.083082  -0.14909  0  3.960431  0
C  C83  1  0.20510743  0.74295046  0.63909570  1  0  -0.123908  0  3.717524  0  0  -0.149251  0  3.972725  0  0  -0.150932  0  3.991365  0  -0.042878  0  -0.082744  -0.148001  0  3.960115  0
C  C84  1  0.96215900  0.25709169  0.13900443  1  0  -0.125168  0  3.717461  0  0  -0.15031  0  3.972987  0  0  -0.151961  0  3.991583  0  -0.000344  0  -0.083089  -0.149094  0  3.960448  0
C  C85  1  0.70510707  0.74295046  0.86090430  1  0  -0.123934  0  3.717538  0  0  -0.149273  0  3.972732  0  0  -0.150954  0  3.991374  0  -0.042887  0  -0.082743  -0.148022  0  3.96012  0
C  C86  1  0.30114358  0.28955143  0.35941839  1  0  0.163258  0  3.78493  0  0  0.157274  0  4.033766  0  0  0.160713  0  4.05719  0  0.268402  0  0.088803  0.154914  0  4.017919  0
C  C87  1  0.01157109  0.71044931  0.64059599  1  0  0.162173  0  3.785514  0  0  0.15635  0  4.034198  0  0  0.159792  0  4.057667  0  0.285799  0  0.088915  0.154001  0  4.018287  0
C  C88  1  0.80114453  0.28955143  0.14058161  1  0  0.163278  0  3.784908  0  0  0.157325  0  4.033708  0  0  0.160764  0  4.05713  0  0.268398  0  0.088839  0.154964  0  4.01786  0
C  C89  1  0.51157073  0.71044931  0.85940401  1  0  0.162217  0  3.785555  0  0  0.156387  0  4.034248  0  0  0.159828  0  4.057718  0  0.285801  0  0.08893  0.154038  0  4.018341  0
C  C90  1  0.30988094  0.41230737  0.35418550  1  0  -0.138978  0  3.763155  0  0  -0.16212  0  4.017917  0  0  -0.164656  0  4.039329  0  -0.024999  0  -0.090086  -0.160283  0  4.003349  0
C  C91  1  0.89755857  0.58768325  0.64589889  1  0  -0.137315  0  3.762773  0  0  -0.160427  0  4.017287  0  0  -0.162999  0  4.038731  0  -0.060981  0  -0.089976  -0.158558  0  4.002721  0
C  C92  1  0.80988058  0.41230737  0.14581388  1  0  -0.138963  0  3.763177  0  0  -0.162115  0  4.017933  0  0  -0.164651  0  4.039346  0  -0.025004  0  -0.090081  -0.160277  0  4.003366  0
C  C93  1  0.39755762  0.58768325  0.85410173  1  0  -0.137373  0  3.762838  0  0  -0.160496  0  4.017365  0  0  -0.163067  0  4.038809  0  -0.060986  0  -0.090015  -0.158637  0  4.002795  0
C  C94  1  0.48288433  0.50458140  0.35362977  1  0  -0.098766  0  3.736163  0  0  -0.115619  0  3.980305  0  0  -0.118762  0  4.002037  0  -0.010119  0  -0.087696  -0.11341  0  3.965562  0
C  C95  1  0.97828951  0.49542946  0.64641024  1  0  -0.099696  0  3.735372  0  0  -0.116233  0  3.97912  0  0  -0.119394  0  4.000879  0  0.014453  0  -0.086953  -0.114029  0  3.964345  0
C  C96  1  0.98288397  0.50458140  0.14637023  1  0  -0.09876  0  3.73617  0  0  -0.115614  0  3.980313  0  0  -0.118757  0  4.002046  0  -0.010114  0  -0.087692  -0.113405  0  3.965569  0
C  C97  1  0.47828987  0.49542946  0.85359038  1  0  -0.0997  0  3.735328  0  0  -0.116238  0  3.979083  0  0  -0.119399  0  4.00084  0  0.014462  0  -0.086962  -0.114035  0  3.964312  0
C  C98  1  0.00328987  0.17768320  0.43066907  1  0  0.16787  0  3.636743  0  0  0.107606  0  3.896136  0  0  0.121647  0  3.907602  0  0.975694  0  0.145676  0.098558  0  3.888017  0
C  C99  1  0.82540823  0.82224852  0.56927405  1  0  0.168646  0  3.636931  0  0  0.109014  0  3.896155  0  0  0.123027  0  3.907637  0  0.946763  0  0.146034  0.099967  0  3.88804  0
C  C100  1  0.50328866  0.17768412  0.06933093  1  0  0.167917  0  3.63672  0  0  0.107651  0  3.896118  0  0  0.121691  0  3.907584  0  0.975686  0  0.14569  0.098603  0  3.887999  0
C  C101  1  0.32540728  0.82224852  0.93072595  1  0  0.168659  0  3.636953  0  0  0.109027  0  3.896176  0  0  0.12304  0  3.907657  0  0.946742  0  0.146028  0.09998  0  3.888061  0
C  C102  1  0.87859307  0.03254256  0.33957892  1  0  0.00538  0  3.733053  0  0  -0.02817  0  4.000062  0  0  -0.027082  0  4.019288  0  0.382412  0  0.002683  -0.028976  0  3.987233  0
C  C103  1  0.84607683  0.96743425  0.66037170  1  0  0.004647  0  3.735545  0  0  -0.02895  0  4.003066  0  0  -0.027831  0  4.022296  0  0.397805  0  0.00259  -0.029769  0  3.99022  0
C  C104  1  0.37859211  0.03254256  0.16042108  1  0  0.005374  0  3.733089  0  0  -0.028193  0  4.000081  0  0  -0.027104  0  4.019308  0  0.38241  0  0.002683  -0.028999  0  3.987254  0
C  C105  1  0.34607719  0.96743425  0.83962830  1  0  0.004647  0  3.735559  0  0  -0.028952  0  4.00308  0  0  -0.027832  0  4.022311  0  0.397796  0  0.002585  -0.02977  0  3.990234  0
C  C106  1  0.04685970  0.10330900  0.30726016  1  0  -0.024856  0  3.631398  0  0  -0.068379  0  3.891401  0  0  -0.065905  0  3.908876  0  0.345458  0  0.014656  -0.070009  0  3.879771  0
C  C107  1  0.94362815  0.89668254  0.69266733  1  0  -0.024276  0  3.634022  0  0  -0.06825  0  3.893935  0  0  -0.065648  0  3.911528  0  0.329924  0  0.014753  -0.069973  0  3.882213  0
C  C108  1  0.54685934  0.10330900  0.19273984  1  0  -0.02485  0  3.631417  0  0  -0.068358  0  3.89141  0  0  -0.065884  0  3.908885  0  0.345447  0  0.014649  -0.069989  0  3.87978  0
C  C109  1  0.44362720  0.89668254  0.80733267  1  0  -0.024262  0  3.634021  0  0  -0.068234  0  3.893933  0  0  -0.065631  0  3.911526  0  0.329915  0  0.014777  -0.069957  0  3.88221  0
N  N110  1  0.12373594  0.19495720  0.36531953  1  0  -0.089985  0  3.607442  0  0  0.000767  0  3.817933  0  0  -0.013636  0  3.843326  0  -1.263841  0  -0.221829  0.010304  0  3.80061  0
N  N111  1  0.92881311  0.80503618  0.63457545  1  0  -0.090049  0  3.607984  0  0  0.000778  0  3.818299  0  0  -0.013627  0  3.843709  0  -1.25592  0  -0.221705  0.010323  0  3.80095  0
N  N112  1  0.62373558  0.19495720  0.13468047  1  0  -0.090028  0  3.607397  0  0  0.000705  0  3.8179  0  0  -0.013698  0  3.843293  0  -1.263824  0  -0.221842  0.010243  0  3.800577  0
N  N113  1  0.42881393  0.80503710  0.86542455  1  0  -0.090086  0  3.607965  0  0  0.000743  0  3.818286  0  0  -0.013662  0  3.843696  0  -1.255913  0  -0.221727  0.010288  0  3.800937  0
N  N114  1  0.85366284  0.07946372  0.41643631  1  0  -0.381659  0  3.327185  0  0  -0.302377  0  3.62738  0  0  -0.321473  0  3.638752  0  -1.245693  0  -0.357825  -0.289415  0  3.61941  0
N  N115  1  0.77398714  0.92046155  0.58355931  1  0  -0.381878  0  3.326929  0  0  -0.302766  0  3.627178  0  0  -0.321796  0  3.638499  0  -1.243302  0  -0.358133  -0.289844  0  3.61923  0
N  N116  1  0.35366366  0.07946464  0.08356369  1  0  -0.381704  0  3.327255  0  0  -0.302418  0  3.627447  0  0  -0.321517  0  3.638821  0  -1.245695  0  -0.357853  -0.289458  0  3.619478  0
N  N117  1  0.27398750  0.92046155  0.91644069  1  0  -0.38187  0  3.326948  0  0  -0.302756  0  3.627197  0  0  -0.321789  0  3.63852  0  -1.243288  0  -0.358117  -0.289835  0  3.619249  0
O  O118  1  0.45189708  0.85344922  0.46053735  1  0  -0.659225  0  2.046631  0  0  -0.584878  0  2.319432  0  0  -0.613465  0  2.302991  0  -1.176683  0  -0.343513  -0.564817  0  2.329915  0
O  O119  1  0.59875860  0.14663620  0.53952891  1  0  -0.659082  0  2.047135  0  0  -0.584492  0  2.319516  0  0  -0.613117  0  2.303152  0  -1.17083  0  -0.343167  -0.564432  0  2.330035  0
O  O120  1  0.95189626  0.85344830  0.03946265  1  0  -0.659184  0  2.046639  0  0  -0.584833  0  2.319438  0  0  -0.613426  0  2.303007  0  -1.176692  0  -0.343512  -0.564777  0  2.329932  0
O  O121  1  0.09875896  0.14663620  0.96047109  1  0  -0.65909  0  2.047126  0  0  -0.584508  0  2.319508  0  0  -0.613134  0  2.303143  0  -1.170827  0  -0.343176  -0.564449  0  2.330026  0
O  O122  1  0.39580162  0.95962326  0.35041977  1  0  -0.615802  0  1.934975  0  0  -0.569792  0  2.162684  0  0  -0.592371  0  2.154188  0  -1.176377  0  -0.320247  -0.554008  0  2.167978  0
O  O123  1  0.43640463  0.04043178  0.64962962  1  0  -0.61525  0  1.933829  0  0  -0.569335  0  2.161768  0  0  -0.591893  0  2.15326  0  -1.176168  0  -0.320238  -0.553583  0  2.167139  0
O  O124  1  0.89580172  0.95962418  0.14958023  1  0  -0.615724  0  1.934939  0  0  -0.569705  0  2.162641  0  0  -0.592283  0  2.154145  0  -1.176381  0  -0.320207  -0.553921  0  2.167937  0
O  O125  1  0.93640427  0.04043178  0.85037038  1  0  -0.615245  0  1.933846  0  0  -0.56933  0  2.161782  0  0  -0.591888  0  2.153276  0  -1.176152  0  -0.320221  -0.553576  0  2.167152  0
