# generated using pymatgen
data_HgH12C13(N2O3)2
_symmetry_space_group_name_H-M   'P 1'
_cell_length_a   10.39445895
_cell_length_b   10.64395557
_cell_length_c   14.21188821
_cell_angle_alpha   90.00004954
_cell_angle_beta   89.99999137
_cell_angle_gamma   97.32524356
_symmetry_Int_Tables_number   1
_chemical_formula_structural   HgH12C13(N2O3)2
_chemical_formula_sum   'Hg4 H48 C52 N16 O24'
_cell_volume   1559.54398091
_cell_formula_units_Z   4
loop_
 _symmetry_equiv_pos_site_id
 _symmetry_equiv_pos_as_xyz
  1  'x, y, z'
loop_
 _atom_site_type_symbol
 _atom_site_label
 _atom_site_symmetry_multiplicity
 _atom_site_fract_x
 _atom_site_fract_y
 _atom_site_fract_z
 _atom_site_occupancy
 _atom_site_hle17_bader_spin_density
 _atom_site_hle17_ddec_charge
 _atom_site_hle17_ddec_spin_density
 _atom_site_hle17_ddec_sum_bond_order
 _atom_site_hle17_magmom
 _atom_site_hse06_10hf_bader_spin_density
 _atom_site_hse06_10hf_ddec_charge
 _atom_site_hse06_10hf_ddec_spin_density
 _atom_site_hse06_10hf_ddec_sum_bond_order
 _atom_site_hse06_10hf_magmom
 _atom_site_hse06_bader_spin_density
 _atom_site_hse06_ddec_charge
 _atom_site_hse06_ddec_spin_density
 _atom_site_hse06_ddec_sum_bond_order
 _atom_site_hse06_magmom
 _atom_site_pbe_bader_spin_density
 _atom_site_pbe_cm5_charge
 _atom_site_pbe_ddec_charge
 _atom_site_pbe_ddec_spin_density
 _atom_site_pbe_ddec_sum_bond_order
 _atom_site_pbe_magmom
Hg  Hg0  1  0.16184927  0.22582823  0.24313102  1  0  0.893106  0  1.827297  0  0  0.698582  0  2.287916  0  0  0.766158  0  2.241496  0  0  0.668654  0.650878  0  2.320377  0
Hg  Hg1  1  0.33814964  0.77417076  0.74313160  1  0  0.893085  0  1.827345  0  0  0.698571  0  2.287959  0  0  0.766145  0  2.24154  0  0  0.668648  0.650866  0  2.32042  0
Hg  Hg2  1  0.83815003  0.77417164  0.75686937  1  0  0.893112  0  1.827311  0  0  0.69858  0  2.287931  0  0  0.766157  0  2.24151  0  0  0.668651  0.650877  0  2.320392  0
Hg  Hg3  1  0.66184965  0.22582911  0.25686809  1  0  0.893097  0  1.827327  0  0  0.698573  0  2.287946  0  0  0.766148  0  2.241525  0  0  0.668647  0.650869  0  2.320406  0
H  H4  1  0.12606366  0.42244116  0.90827494  1  0  0.121064  0  0.958163  0  0  0.130902  0  1.018158  0  0  0.133657  0  1.017797  0  0  0.111026  0.128563  0  1.019126  0
H  H5  1  0.37393607  0.57755708  0.40827526  1  0  0.121044  0  0.958245  0  0  0.130882  0  1.018235  0  0  0.133642  0  1.017855  0  0  0.11104  0.128554  0  1.019188  0
H  H6  1  0.87393635  0.57755682  0.09172546  1  0  0.120977  0  0.958312  0  0  0.130839  0  1.018262  0  0  0.133593  0  1.017898  0  0  0.111025  0.128482  0  1.019251  0
H  H7  1  0.62606406  0.42244185  0.59172443  1  0  0.121023  0  0.958287  0  0  0.130864  0  1.018274  0  0  0.133623  0  1.017897  0  0  0.111029  0.128541  0  1.019219  0
H  H8  1  0.12555462  0.22072665  0.81476654  1  0  0.104539  0  0.947065  0  0  0.112535  0  1.009313  0  0  0.1152  0  1.007701  0  0  0.113276  0.110502  0  1.010615  0
H  H9  1  0.37444511  0.77927148  0.31476699  1  0  0.104563  0  0.947027  0  0  0.112558  0  1.009271  0  0  0.115223  0  1.007661  0  0  0.1133  0.110526  0  1.010574  0
H  H10  1  0.87444563  0.77927322  0.18523245  1  0  0.10459  0  0.947016  0  0  0.112558  0  1.009296  0  0  0.115223  0  1.007686  0  0  0.113276  0.110526  0  1.0106  0
H  H11  1  0.62555405  0.22072745  0.68523340  1  0  0.104562  0  0.947053  0  0  0.112524  0  1.009334  0  0  0.115189  0  1.007724  0  0  0.113274  0.110491  0  1.010639  0
H  H12  1  0.15007681  0.01965503  0.90087888  1  0  0.114395  0  0.964904  0  0  0.115524  0  1.037261  0  0  0.118986  0  1.035808  0  0  0.108248  0.112689  0  1.039118  0
H  H13  1  0.34992209  0.98034414  0.40087947  1  0  0.114357  0  0.964886  0  0  0.115496  0  1.037234  0  0  0.118957  0  1.035783  0  0  0.10824  0.112662  0  1.039092  0
H  H14  1  0.84992152  0.98034484  0.09912081  1  0  0.114451  0  0.964821  0  0  0.115568  0  1.037191  0  0  0.119032  0  1.035737  0  0  0.108252  0.112734  0  1.039049  0
H  H15  1  0.65007720  0.01965573  0.59912092  1  0  0.114372  0  0.964908  0  0  0.115501  0  1.037268  0  0  0.118962  0  1.035816  0  0  0.108239  0.112666  0  1.039127  0
H  H16  1  0.16931615  0.02532017  0.07653874  1  0  0.099488  0  0.941772  0  0  0.105408  0  1.008223  0  0  0.108349  0  1.004733  0  0  0.123322  0.103262  0  1.010637  0
H  H17  1  0.33068494  0.97468052  0.57653875  1  0  0.099476  0  0.941766  0  0  0.105403  0  1.008204  0  0  0.108346  0  1.004712  0  0  0.123317  0.10326  0  1.010618  0
H  H18  1  0.83068519  0.97468065  0.92346095  1  0  0.099431  0  0.941755  0  0  0.105356  0  1.008216  0  0  0.108298  0  1.004724  0  0  0.123298  0.103209  0  1.01063  0
H  H19  1  0.66931532  0.02531935  0.42346094  1  0  0.099477  0  0.941773  0  0  0.105404  0  1.008215  0  0  0.108342  0  1.004735  0  0  0.123316  0.103261  0  1.01063  0
H  H20  1  0.11559214  0.52662978  0.06111801  1  0  0.08952  0  0.944639  0  0  0.093676  0  1.0216  0  0  0.097314  0  1.016004  0  0  0.120751  0.091151  0  1.02549  0
H  H21  1  0.38440786  0.47336995  0.56111769  1  0  0.089508  0  0.944647  0  0  0.093671  0  1.021602  0  0  0.097308  0  1.01601  0  0  0.120747  0.091146  0  1.025492  0
H  H22  1  0.88440895  0.47336914  0.93888238  1  0  0.089512  0  0.944627  0  0  0.093667  0  1.021583  0  0  0.097306  0  1.015993  0  0  0.120742  0.091142  0  1.025472  0
H  H23  1  0.61559252  0.52663088  0.43888200  1  0  0.089512  0  0.944648  0  0  0.093673  0  1.021596  0  0  0.097308  0  1.016004  0  0  0.120749  0.091148  0  1.025487  0
H  H24  1  0.18543257  0.68121518  0.16340285  1  0  0.108919  0  0.961674  0  0  0.119388  0  1.022393  0  0  0.121964  0  1.021616  0  0  0.105036  0.117524  0  1.022969  0
H  H25  1  0.31456839  0.31878467  0.66340314  1  0  0.108936  0  0.96166  0  0  0.119411  0  1.022371  0  0  0.121987  0  1.021595  0  0  0.105047  0.117546  0  1.022946  0
H  H26  1  0.81456865  0.31878470  0.83659684  1  0  0.10891  0  0.961687  0  0  0.119383  0  1.022397  0  0  0.121959  0  1.021621  0  0  0.10504  0.117518  0  1.022972  0
H  H27  1  0.68543187  0.68121520  0.33659726  1  0  0.108928  0  0.961687  0  0  0.119402  0  1.022395  0  0  0.121978  0  1.021616  0  0  0.105039  0.117538  0  1.02297  0
H  H28  1  0.13175771  0.84832072  0.27036406  1  0  0.11439  0  0.968037  0  0  0.124665  0  1.028652  0  0  0.127246  0  1.027196  0  0  0.104657  0.122494  0  1.030246  0
H  H29  1  0.36824240  0.15168019  0.77036494  1  0  0.114403  0  0.968033  0  0  0.124683  0  1.028639  0  0  0.127264  0  1.027182  0  0  0.10467  0.122511  0  1.030233  0
H  H30  1  0.86824267  0.15168010  0.72963563  1  0  0.114396  0  0.968029  0  0  0.124671  0  1.028645  0  0  0.127252  0  1.027188  0  0  0.104664  0.122498  0  1.030238  0
H  H31  1  0.63175894  0.84832063  0.22963616  1  0  0.114373  0  0.968046  0  0  0.124653  0  1.028656  0  0  0.127234  0  1.027199  0  0  0.10465  0.122482  0  1.030248  0
H  H32  1  0.93024073  0.56805036  0.45413120  1  0  0.091565  0  0.955097  0  0  0.103879  0  1.014181  0  0  0.106002  0  1.014417  0  0  0.096774  0.102381  0  1.014045  0
H  H33  1  0.56975797  0.43195062  0.95413300  1  0  0.091547  0  0.955093  0  0  0.103864  0  1.014177  0  0  0.105986  0  1.014414  0  0  0.096769  0.102366  0  1.014042  0
H  H34  1  0.06975759  0.43194951  0.54586778  1  0  0.091582  0  0.955115  0  0  0.103892  0  1.014204  0  0  0.106014  0  1.014442  0  0  0.096789  0.102394  0  1.014069  0
H  H35  1  0.43024265  0.56805209  0.04586810  1  0  0.091589  0  0.955063  0  0  0.103903  0  1.01415  0  0  0.106025  0  1.014388  0  0  0.096796  0.102405  0  1.014015  0
H  H36  1  0.98576005  0.39810329  0.34737967  1  0  0.106078  0  0.962724  0  0  0.11896  0  1.023828  0  0  0.121347  0  1.022447  0  0  0.100268  0.117187  0  1.024877  0
H  H37  1  0.51423853  0.60189662  0.84737947  1  0  0.106133  0  0.962678  0  0  0.118976  0  1.023829  0  0  0.121363  0  1.022448  0  0  0.100254  0.117202  0  1.024879  0
H  H38  1  0.01423936  0.60189753  0.65262072  1  0  0.106149  0  0.96268  0  0  0.118999  0  1.023816  0  0  0.121385  0  1.022436  0  0  0.100274  0.117225  0  1.024865  0
H  H39  1  0.48576088  0.39810420  0.15262022  1  0  0.106076  0  0.96272  0  0  0.118957  0  1.02383  0  0  0.121344  0  1.022448  0  0  0.100258  0.117183  0  1.024878  0
H  H40  1  0.89493360  0.84590602  0.42241770  1  0  0.118011  0  0.951915  0  0  0.135058  0  1.020826  0  0  0.135922  0  1.020727  0  0  0.090247  0.134448  0  1.020822  0
H  H41  1  0.60506607  0.15409493  0.92241791  1  0  0.118025  0  0.951926  0  0  0.135075  0  1.020829  0  0  0.13594  0  1.020728  0  0  0.090256  0.134459  0  1.020829  0
H  H42  1  0.10506665  0.15409385  0.57758199  1  0  0.11803  0  0.951932  0  0  0.135081  0  1.020837  0  0  0.135947  0  1.020736  0  0  0.090257  0.134468  0  1.020835  0
H  H43  1  0.39493431  0.84590589  0.07758248  1  0  0.118021  0  0.951899  0  0  0.135067  0  1.020814  0  0  0.135932  0  1.020715  0  0  0.090249  0.134456  0  1.020811  0
H  H44  1  0.05981742  0.91271058  0.42206384  1  0  0.118035  0  0.946325  0  0  0.140039  0  1.004352  0  0  0.14118  0  1.004754  0  0  0.091137  0.139138  0  1.004196  0
H  H45  1  0.44018268  0.08729051  0.92206397  1  0  0.118036  0  0.946277  0  0  0.140008  0  1.004352  0  0  0.14115  0  1.004754  0  0  0.091118  0.139108  0  1.004193  0
H  H46  1  0.94018200  0.08729024  0.57793585  1  0  0.118039  0  0.946281  0  0  0.140025  0  1.00434  0  0  0.141167  0  1.004742  0  0  0.091129  0.139124  0  1.004182  0
H  H47  1  0.55981782  0.91271126  0.07793643  1  0  0.118044  0  0.946296  0  0  0.140055  0  1.004316  0  0  0.141197  0  1.004717  0  0  0.091142  0.139153  0  1.00416  0
H  H48  1  0.00190919  0.79809149  0.50861037  1  0  0.108809  0  0.949644  0  0  0.128054  0  1.014495  0  0  0.128996  0  1.014714  0  0  0.083903  0.127323  0  1.01432  0
H  H49  1  0.49809081  0.20190818  0.00861043  1  0  0.108791  0  0.949661  0  0  0.128037  0  1.014508  0  0  0.128979  0  1.014727  0  0  0.083898  0.127306  0  1.014333  0
H  H50  1  0.99809106  0.20190839  0.49138932  1  0  0.108791  0  0.949663  0  0  0.128036  0  1.014511  0  0  0.128979  0  1.014729  0  0  0.083895  0.127307  0  1.014334  0
H  H51  1  0.50190944  0.79809169  0.99138996  1  0  0.1088  0  0.949668  0  0  0.128044  0  1.014519  0  0  0.128986  0  1.014738  0  0  0.083896  0.127314  0  1.014343  0
C  C52  1  0.14021016  0.32687658  0.04058373  1  0  0.183653  0  3.798899  0  0  0.181837  0  4.039292  0  0  0.186234  0  4.062259  0  0  0.112654  0.17908  0  4.023507  0
C  C53  1  0.35979080  0.67312313  0.54058354  1  0  0.183716  0  3.798947  0  0  0.181879  0  4.039359  0  0  0.186274  0  4.062329  0  0  0.112659  0.179124  0  4.023577  0
C  C54  1  0.85979165  0.67312046  0.95941807  1  0  0.183595  0  3.799027  0  0  0.181831  0  4.039341  0  0  0.186228  0  4.062306  0  0  0.112625  0.179076  0  4.023554  0
C  C55  1  0.64020945  0.32687675  0.45941615  1  0  0.18371  0  3.798891  0  0  0.181876  0  4.039289  0  0  0.186271  0  4.062258  0  0  0.112655  0.179119  0  4.023508  0
C  C56  1  0.13329319  0.33203053  0.94243574  1  0  -0.119802  0  3.658086  0  0  -0.141579  0  3.904827  0  0  -0.147422  0  3.925631  0  0  -0.066787  -0.137754  0  3.891167  0
C  C57  1  0.36670678  0.66796964  0.44243613  1  0  -0.119908  0  3.658267  0  0  -0.141667  0  3.904984  0  0  -0.147508  0  3.925792  0  0  -0.066812  -0.13785  0  3.891319  0
C  C58  1  0.86670827  0.66797124  0.05756395  1  0  -0.119765  0  3.658478  0  0  -0.141543  0  3.90514  0  0  -0.14739  0  3.925957  0  0  -0.066779  -0.137702  0  3.891488  0
C  C59  1  0.63329251  0.33203023  0.55756427  1  0  -0.119846  0  3.658246  0  0  -0.141607  0  3.904955  0  0  -0.147447  0  3.925761  0  0  -0.066792  -0.137794  0  3.891283  0
C  C60  1  0.13468032  0.22069449  0.89096894  1  0  0.023606  0  3.678544  0  0  0.0059  0  3.925289  0  0  0.010262  0  3.942229  0  0  -0.050804  0.002933  0  3.91422  0
C  C61  1  0.36531942  0.77930373  0.39097080  1  0  0.023684  0  3.678571  0  0  0.005977  0  3.925311  0  0  0.010339  0  3.942255  0  0  -0.050796  0.00301  0  3.914249  0
C  C62  1  0.86532149  0.77930255  0.10902935  1  0  0.023619  0  3.678649  0  0  0.005897  0  3.925431  0  0  0.010261  0  3.942375  0  0  -0.050776  0.00293  0  3.914362  0
C  C63  1  0.63467963  0.22069425  0.60903030  1  0  0.023617  0  3.678664  0  0  0.005929  0  3.92541  0  0  0.010291  0  3.942353  0  0  -0.050816  0.002962  0  3.914346  0
C  C64  1  0.14653597  0.10818912  0.93830321  1  0  -0.08589  0  3.66616  0  0  -0.09961  0  3.921498  0  0  -0.105678  0  3.940496  0  0  -0.067281  -0.096003  0  3.909613  0
C  C65  1  0.35346292  0.89181009  0.43830304  1  0  -0.085877  0  3.666077  0  0  -0.099626  0  3.921459  0  0  -0.105687  0  3.940439  0  0  -0.067279  -0.096021  0  3.909579  0
C  C66  1  0.85346344  0.89181170  0.06169648  1  0  -0.085955  0  3.666038  0  0  -0.099652  0  3.921386  0  0  -0.105714  0  3.940366  0  0  -0.067286  -0.096046  0  3.909504  0
C  C67  1  0.64653625  0.10818883  0.56169735  1  0  -0.085872  0  3.666132  0  0  -0.099594  0  3.921474  0  0  -0.105658  0  3.940464  0  0  -0.067263  -0.095988  0  3.909593  0
C  C68  1  0.15682218  0.10989544  0.03608883  1  0  0.141302  0  3.667028  0  0  0.104012  0  3.920154  0  0  0.112765  0  3.937937  0  0  0.060251  0.098376  0  3.90798  0
C  C69  1  0.34317685  0.89010426  0.53608948  1  0  0.141307  0  3.666993  0  0  0.104023  0  3.920118  0  0  0.112777  0  3.937901  0  0  0.060246  0.098386  0  3.907946  0
C  C70  1  0.84317795  0.89010349  0.96391086  1  0  0.141395  0  3.667039  0  0  0.104084  0  3.920183  0  0  0.112838  0  3.937966  0  0  0.06027  0.098449  0  3.908006  0
C  C71  1  0.65682147  0.10989561  0.46391091  1  0  0.141341  0  3.667012  0  0  0.104046  0  3.920142  0  0  0.112799  0  3.937923  0  0  0.06027  0.098407  0  3.90797  0
C  C72  1  0.12405929  0.43778873  0.09854932  1  0  0.100265  0  3.636748  0  0  0.058336  0  3.893035  0  0  0.07181  0  3.902689  0  0  0.082533  0.04913  0  3.886586  0
C  C73  1  0.37594179  0.56221199  0.59854906  1  0  0.100267  0  3.636842  0  0  0.058338  0  3.893134  0  0  0.071811  0  3.902793  0  0  0.082522  0.04913  0  3.886684  0
C  C74  1  0.87594096  0.56221114  0.90144967  1  0  0.100286  0  3.636848  0  0  0.058348  0  3.8931  0  0  0.071821  0  3.90276  0  0  0.082533  0.04914  0  3.886652  0
C  C75  1  0.62405955  0.43778884  0.40145063  1  0  0.100263  0  3.636783  0  0  0.058339  0  3.893065  0  0  0.071813  0  3.902724  0  0  0.082538  0.049132  0  3.886616  0
C  C76  1  0.08737168  0.52781301  0.24765691  1  0  0.195066  0  3.832717  0  0  0.194498  0  4.077421  0  0  0.197209  0  4.105199  0  0  0.080466  0.192838  0  4.058519  0
C  C77  1  0.41262818  0.47218599  0.74765729  1  0  0.194964  0  3.832928  0  0  0.19449  0  4.077495  0  0  0.197202  0  4.105272  0  0  0.080417  0.192828  0  4.058592  0
C  C78  1  0.91262953  0.47218687  0.75234278  1  0  0.195012  0  3.832772  0  0  0.194498  0  4.077389  0  0  0.197211  0  4.105165  0  0  0.080429  0.192838  0  4.058485  0
C  C79  1  0.58737207  0.52781389  0.25234240  1  0  0.195057  0  3.832806  0  0  0.194526  0  4.077462  0  0  0.197238  0  4.105239  0  0  0.080478  0.192866  0  4.058559  0
C  C80  1  0.12815837  0.65550530  0.22634170  1  0  -0.139145  0  3.721346  0  0  -0.155792  0  3.965593  0  0  -0.15976  0  3.98848  0  0  -0.087986  -0.153224  0  3.950159  0
C  C81  1  0.37184174  0.34449556  0.72634270  1  0  -0.139159  0  3.721429  0  0  -0.155838  0  3.965652  0  0  -0.159808  0  3.98854  0  0  -0.088011  -0.153268  0  3.950212  0
C  C82  1  0.87184105  0.34449552  0.77365799  1  0  -0.139122  0  3.721337  0  0  -0.155785  0  3.965558  0  0  -0.159753  0  3.988444  0  0  -0.087988  -0.153213  0  3.950112  0
C  C83  1  0.62816056  0.65550526  0.27365769  1  0  -0.139187  0  3.721287  0  0  -0.155848  0  3.965527  0  0  -0.159816  0  3.988414  0  0  -0.088008  -0.15328  0  3.950093  0
C  C84  1  0.09779695  0.74995184  0.28698814  1  0  -0.119664  0  3.732523  0  0  -0.138224  0  3.97712  0  0  -0.141822  0  3.999844  0  0  -0.08909  -0.135596  0  3.961893  0
C  C85  1  0.40220400  0.25004815  0.78698908  1  0  -0.119743  0  3.732422  0  0  -0.138303  0  3.977016  0  0  -0.141902  0  3.999739  0  0  -0.089141  -0.135675  0  3.961788  0
C  C86  1  0.90220427  0.25004804  0.71301085  1  0  -0.119714  0  3.732373  0  0  -0.138278  0  3.976974  0  0  -0.141878  0  3.999696  0  0  -0.089133  -0.13565  0  3.961744  0
C  C87  1  0.59779734  0.74995267  0.21301131  1  0  -0.119671  0  3.732463  0  0  -0.138236  0  3.977064  0  0  -0.141835  0  3.999787  0  0  -0.089104  -0.135607  0  3.961837  0
C  C88  1  0.02591194  0.72127901  0.36964147  1  0  0.156912  0  3.73384  0  0  0.182124  0  3.968563  0  0  0.181665  0  3.995762  0  0  -0.002437  0.182451  0  3.949953  0
C  C89  1  0.47408817  0.27872202  0.86964172  1  0  0.156918  0  3.733805  0  0  0.182149  0  3.968488  0  0  0.181691  0  3.995685  0  0  -0.002427  0.182475  0  3.949876  0
C  C90  1  0.97408844  0.27872181  0.63035822  1  0  0.156902  0  3.733859  0  0  0.182134  0  3.968544  0  0  0.181677  0  3.995741  0  0  -0.002443  0.18246  0  3.949932  0
C  C91  1  0.52591317  0.72127880  0.13035867  1  0  0.15699  0  3.73384  0  0  0.182204  0  3.968563  0  0  0.181746  0  3.995761  0  0  -0.002384  0.182529  0  3.949953  0
C  C92  1  0.98581737  0.59314018  0.39012423  1  0  -0.134319  0  3.754048  0  0  -0.151452  0  3.997014  0  0  -0.1558  0  4.022151  0  0  -0.09873  -0.148421  0  3.979661  0
C  C93  1  0.51418122  0.40685978  0.89012531  1  0  -0.134231  0  3.754003  0  0  -0.151373  0  3.996963  0  0  -0.155721  0  4.022099  0  0  -0.098712  -0.148343  0  3.979611  0
C  C94  1  0.01418289  0.40685969  0.60987476  1  0  -0.134277  0  3.754074  0  0  -0.151416  0  3.997035  0  0  -0.155763  0  4.022171  0  0  -0.098736  -0.148386  0  3.979683  0
C  C95  1  0.48581916  0.59314104  0.10987508  1  0  -0.134346  0  3.753982  0  0  -0.151483  0  3.996967  0  0  -0.155832  0  4.022102  0  0  -0.098759  -0.148453  0  3.979615  0
C  C96  1  0.01728051  0.49731108  0.33101740  1  0  -0.13508  0  3.73676  0  0  -0.157406  0  3.988327  0  0  -0.161438  0  4.011804  0  0  -0.093352  -0.15417  0  3.971927  0
C  C97  1  0.48271863  0.50268990  0.83101779  1  0  -0.135115  0  3.73673  0  0  -0.157435  0  3.988275  0  0  -0.161468  0  4.011753  0  0  -0.093286  -0.154199  0  3.971875  0
C  C98  1  0.98271890  0.50268974  0.66898300  1  0  -0.135168  0  3.736728  0  0  -0.157485  0  3.988293  0  0  -0.161518  0  4.01177  0  0  -0.093333  -0.15425  0  3.971894  0
C  C99  1  0.51728090  0.49731187  0.16898260  1  0  -0.135096  0  3.736774  0  0  -0.157431  0  3.988336  0  0  -0.161463  0  4.011813  0  0  -0.093373  -0.154193  0  3.971936  0
C  C100  1  0.99467681  0.82479133  0.43427748  1  0  -0.343037  0  3.712554  0  0  -0.422755  0  3.947094  0  0  -0.425008  0  3.958548  0  0  -0.246334  -0.420971  0  3.93921  0
C  C101  1  0.50532382  0.17520963  0.93427771  1  0  -0.343003  0  3.712512  0  0  -0.422716  0  3.947085  0  0  -0.424968  0  3.95853  0  0  -0.246299  -0.420929  0  3.939205  0
C  C102  1  0.00532356  0.17520949  0.56572221  1  0  -0.343015  0  3.712552  0  0  -0.42273  0  3.947093  0  0  -0.424984  0  3.958546  0  0  -0.246301  -0.420943  0  3.93921  0
C  C103  1  0.49467752  0.82479119  0.06572268  1  0  -0.343052  0  3.712512  0  0  -0.422778  0  3.947055  0  0  -0.425032  0  3.958508  0  0  -0.24633  -0.420995  0  3.939171  0
N  N104  1  0.15281139  0.21680599  0.08481849  1  0  -0.306893  0  3.317899  0  0  -0.220228  0  3.567433  0  0  -0.245354  0  3.592853  0  0  -0.301255  -0.203329  0  3.549951  0
N  N105  1  0.34718873  0.78319471  0.58481837  1  0  -0.306909  0  3.317871  0  0  -0.220232  0  3.567407  0  0  -0.245358  0  3.592827  0  0  -0.301248  -0.203333  0  3.549926  0
N  N106  1  0.84718886  0.78319388  0.91518191  1  0  -0.306931  0  3.317918  0  0  -0.220279  0  3.567447  0  0  -0.245406  0  3.592865  0  0  -0.301259  -0.20338  0  3.549966  0
N  N107  1  0.65281069  0.21680611  0.41518132  1  0  -0.306923  0  3.317903  0  0  -0.220246  0  3.567437  0  0  -0.245373  0  3.592857  0  0  -0.301252  -0.203348  0  3.549956  0
N  N108  1  0.11238301  0.42788715  0.18863798  1  0  -0.303231  0  3.284488  0  0  -0.22714  0  3.5447  0  0  -0.249407  0  3.565962  0  0  -0.290458  -0.212431  0  3.530467  0
N  N109  1  0.38761602  0.57211273  0.68863772  1  0  -0.303205  0  3.284485  0  0  -0.227142  0  3.544678  0  0  -0.249409  0  3.565942  0  0  -0.290451  -0.212431  0  3.530444  0
N  N110  1  0.88761628  0.57211272  0.81136312  1  0  -0.303193  0  3.284525  0  0  -0.227112  0  3.544712  0  0  -0.249381  0  3.565977  0  0  -0.290444  -0.212402  0  3.530478  0
N  N111  1  0.61238436  0.42788810  0.31136197  1  0  -0.303212  0  3.284461  0  0  -0.227137  0  3.544659  0  0  -0.249404  0  3.565922  0  0  -0.290455  -0.212428  0  3.530425  0
N  N112  1  0.90346161  0.06479113  0.27925702  1  0  0.684301  0  4.132472  0  0  0.724305  0  4.412363  0  0  0.754149  0  4.418591  0  0  0.092321  0.704224  0  4.407006  0
N  N113  1  0.59653578  0.93520681  0.77925774  1  0  0.684187  0  4.132488  0  0  0.724205  0  4.412346  0  0  0.754049  0  4.418573  0  0  0.092257  0.70412  0  4.406997  0
N  N114  1  0.09653768  0.93520874  0.72074337  1  0  0.684221  0  4.132431  0  0  0.724205  0  4.412347  0  0  0.754048  0  4.418574  0  0  0.092271  0.704126  0  4.406988  0
N  N115  1  0.40346255  0.06479306  0.22074266  1  0  0.684255  0  4.132409  0  0  0.72422  0  4.412325  0  0  0.754064  0  4.41855  0  0  0.09227  0.704137  0  4.406974  0
N  N116  1  0.28694311  0.26013319  0.42774196  1  0  0.679141  0  4.117555  0  0  0.705263  0  4.414964  0  0  0.73439  0  4.422161  0  0  0.102113  0.68524  0  4.409698  0
N  N117  1  0.21305674  0.73986601  0.92774254  1  0  0.679147  0  4.117593  0  0  0.705264  0  4.414998  0  0  0.734391  0  4.422197  0  0  0.102112  0.685236  0  4.409745  0
N  N118  1  0.71305714  0.73986668  0.57225773  1  0  0.679134  0  4.117638  0  0  0.7053  0  4.414978  0  0  0.734428  0  4.422174  0  0  0.102138  0.685277  0  4.40971  0
N  N119  1  0.78694255  0.26013386  0.07225786  1  0  0.679182  0  4.117524  0  0  0.7053  0  4.414938  0  0  0.734424  0  4.422136  0  0  0.102133  0.685273  0  4.409681  0
O  O120  1  0.00117513  0.01742628  0.24825344  1  0  -0.439559  0  1.792632  0  0  -0.421944  0  2.013092  0  0  -0.440822  0  2.007757  0  0  -0.17015  -0.408333  0  2.016912  0
O  O121  1  0.49882076  0.98257176  0.74825695  1  0  -0.439515  0  1.792539  0  0  -0.421936  0  2.013015  0  0  -0.440811  0  2.007678  0  0  -0.170123  -0.408311  0  2.016823  0
O  O122  1  0.99882428  0.98257453  0.75174625  1  0  -0.43954  0  1.792565  0  0  -0.421919  0  2.013027  0  0  -0.440795  0  2.007689  0  0  -0.170136  -0.408312  0  2.01685  0
O  O123  1  0.50117853  0.01742811  0.25174274  1  0  -0.439512  0  1.792529  0  0  -0.421908  0  2.013023  0  0  -0.440786  0  2.007685  0  0  -0.170102  -0.408292  0  2.016837  0
O  O124  1  0.91511396  0.18458097  0.29673820  1  0  -0.508742  0  1.799418  0  0  -0.497536  0  2.041949  0  0  -0.519372  0  2.033658  0  0  -0.210707  -0.481881  0  2.047011  0
O  O125  1  0.58488643  0.81541794  0.79673743  1  0  -0.508729  0  1.799488  0  0  -0.497514  0  2.041996  0  0  -0.519351  0  2.033706  0  0  -0.210715  -0.481864  0  2.047063  0
O  O126  1  0.08488533  0.81541890  0.70326219  1  0  -0.508736  0  1.799431  0  0  -0.497516  0  2.041954  0  0  -0.519354  0  2.033667  0  0  -0.210701  -0.481863  0  2.047016  0
O  O127  1  0.41511202  0.18458288  0.20326367  1  0  -0.508792  0  1.799462  0  0  -0.497555  0  2.04197  0  0  -0.519393  0  2.03368  0  0  -0.210749  -0.481902  0  2.047036  0
O  O128  1  0.79686058  0.99749315  0.29162866  1  0  -0.423029  0  1.768718  0  0  -0.414228  0  1.976149  0  0  -0.428359  0  1.969516  0  0  -0.162682  -0.403835  0  1.980619  0
O  O129  1  0.70313802  0.00250670  0.79162665  1  0  -0.422965  0  1.768757  0  0  -0.414153  0  1.976164  0  0  -0.428286  0  1.969532  0  0  -0.162633  -0.40375  0  1.980622  0
O  O130  1  0.20313955  0.00250578  0.70837243  1  0  -0.422979  0  1.768749  0  0  -0.414179  0  1.976182  0  0  -0.42831  0  1.969551  0  0  -0.162657  -0.403786  0  1.980652  0
O  O131  1  0.29686224  0.99749317  0.20837163  1  0  -0.423014  0  1.768763  0  0  -0.414178  0  1.97618  0  0  -0.428309  0  1.969547  0  0  -0.162644  -0.403777  0  1.98064  0
O  O132  1  0.22700806  0.16179495  0.38157284  1  0  -0.452347  0  1.824426  0  0  -0.411317  0  2.067877  0  0  -0.438062  0  2.062246  0  0  -0.185242  -0.392675  0  2.071725  0
O  O133  1  0.27299276  0.83820420  0.88157277  1  0  -0.45235  0  1.824414  0  0  -0.411291  0  2.06786  0  0  -0.438035  0  2.062229  0  0  -0.185226  -0.392646  0  2.071711  0
O  O134  1  0.77299219  0.83820492  0.61842755  1  0  -0.452375  0  1.824414  0  0  -0.411322  0  2.067854  0  0  -0.438064  0  2.062219  0  0  -0.185233  -0.392676  0  2.071698  0
O  O135  1  0.72700845  0.16179567  0.11842763  1  0  -0.452386  0  1.824485  0  0  -0.411317  0  2.067929  0  0  -0.43806  0  2.062295  0  0  -0.185238  -0.392671  0  2.071778  0
O  O136  1  0.29277156  0.36782573  0.39087427  1  0  -0.444233  0  1.766405  0  0  -0.433283  0  1.982714  0  0  -0.449359  0  1.97834  0  0  -0.174403  -0.421936  0  1.985835  0
O  O137  1  0.20722829  0.63217343  0.89087407  1  0  -0.444264  0  1.766407  0  0  -0.43333  0  1.982716  0  0  -0.449406  0  1.978343  0  0  -0.174429  -0.42198  0  1.985838  0
O  O138  1  0.70722881  0.63217509  0.60912612  1  0  -0.444236  0  1.766453  0  0  -0.433311  0  1.982735  0  0  -0.449392  0  1.978365  0  0  -0.174418  -0.421965  0  1.985857  0
O  O139  1  0.79276907  0.36782644  0.10912351  1  0  -0.444246  0  1.766372  0  0  -0.433301  0  1.982674  0  0  -0.449375  0  1.9783  0  0  -0.174415  -0.42195  0  1.985793  0
O  O140  1  0.33399531  0.23949783  0.50568023  1  0  -0.397155  0  1.7555  0  0  -0.390436  0  1.960993  0  0  -0.403132  0  1.957425  0  0  -0.149937  -0.381246  0  1.962957  0
O  O141  1  0.16600733  0.76049994  0.00568069  1  0  -0.397146  0  1.75559  0  0  -0.39041  0  1.961062  0  0  -0.403103  0  1.957495  0  0  -0.149914  -0.381213  0  1.963025  0
O  O142  1  0.66600675  0.76050109  0.49431946  1  0  -0.397125  0  1.755558  0  0  -0.390433  0  1.961023  0  0  -0.403127  0  1.957454  0  0  -0.149952  -0.381243  0  1.962989  0
O  O143  1  0.83399556  0.23949804  0.99431970  1  0  -0.397153  0  1.7555  0  0  -0.390447  0  1.960991  0  0  -0.403142  0  1.957426  0  0  -0.149941  -0.381254  0  1.962956  0
