# generated using pymatgen
data_CdH16C16N4O7
_symmetry_space_group_name_H-M   'P 1'
_cell_length_a   8.10653646
_cell_length_b   11.34372023
_cell_length_c   22.10480354
_cell_angle_alpha   90.00017649
_cell_angle_beta   90.00020482
_cell_angle_gamma   93.00612039
_symmetry_Int_Tables_number   1
_chemical_formula_structural   CdH16C16N4O7
_chemical_formula_sum   'Cd4 H64 C64 N16 O28'
_cell_volume   2029.92260384
_cell_formula_units_Z   4
loop_
 _symmetry_equiv_pos_site_id
 _symmetry_equiv_pos_as_xyz
  1  'x, y, z'
loop_
 _atom_site_type_symbol
 _atom_site_label
 _atom_site_symmetry_multiplicity
 _atom_site_fract_x
 _atom_site_fract_y
 _atom_site_fract_z
 _atom_site_occupancy
 _atom_site_pbe_bader_charge
 _atom_site_pbe_bader_spin_density
 _atom_site_pbe_cm5_charge
 _atom_site_pbe_ddec_charge
 _atom_site_pbe_ddec_spin_density
 _atom_site_pbe_ddec_sum_bond_order
 _atom_site_pbe_magmom
Cd  Cd0  1  0.79007106  0.34958446  0.96414462  1  1.32114  0  0.754072  1.036109  0  1.997794  0
Cd  Cd1  1  0.70991168  0.15041924  0.46414388  1  1.321193  0  0.754056  1.036182  0  1.997728  0
Cd  Cd2  1  0.20992963  0.65041530  0.03585430  1  1.321187  0  0.754046  1.036049  0  1.997802  0
Cd  Cd3  1  0.29007635  0.84958568  0.53585549  1  1.321225  0  0.754064  1.036121  0  1.997693  0
H  H4  1  0.52719373  0.78583893  0.89738461  1  0.44331  0  0.308883  0.271891  0  0.971072  0
H  H5  1  0.97280340  0.71414366  0.39738236  1  0.443173  0  0.308845  0.271793  0  0.971097  0
H  H6  1  0.47280656  0.21415196  0.10261612  1  0.443246  0  0.308883  0.271843  0  0.971075  0
H  H7  1  0.02720318  0.28584777  0.60261792  1  0.443147  0  0.30886  0.271804  0  0.97113  0
H  H8  1  0.32435735  0.77571479  0.88898821  1  0.497066  0  0.29414  0.272323  0  1.018214  0
H  H9  1  0.17563913  0.72427963  0.38898526  1  0.496719  0  0.29418  0.272414  0  1.018138  0
H  H10  1  0.67564244  0.22428680  0.11101207  1  0.497143  0  0.294182  0.27234  0  1.018183  0
H  H11  1  0.82436891  0.27571972  0.61101411  1  0.49679  0  0.294166  0.272412  0  1.018052  0
H  H12  1  0.20663650  0.59753769  0.85543464  1  0.112046  0  0.107967  0.112466  0  1.027882  0
H  H13  1  0.29335976  0.90245348  0.35543487  1  0.112102  0  0.107975  0.112522  0  1.027814  0
H  H14  1  0.79335929  0.40246235  0.14456564  1  0.112  0  0.107954  0.112455  0  1.02786  0
H  H15  1  0.70663368  0.09754047  0.64456586  1  0.112096  0  0.107995  0.112535  0  1.027842  0
H  H16  1  0.74434200  0.52948925  0.76555140  1  0.093364  0  0.100866  0.102458  0  1.031435  0
H  H17  1  0.75565426  0.97050692  0.26555252  1  0.093411  0  0.100864  0.102512  0  1.031325  0
H  H18  1  0.25565943  0.47050780  0.23444571  1  0.093352  0  0.100876  0.102493  0  1.031441  0
H  H19  1  0.24434178  0.02948777  0.73445093  1  0.093296  0  0.100863  0.102474  0  1.031383  0
H  H20  1  0.83655789  0.66536910  0.68066981  1  0.045789  0  0.098783  0.095623  0  1.011236  0
H  H21  1  0.66344192  0.83462452  0.18067010  1  0.045854  0  0.098775  0.095604  0  1.011188  0
H  H22  1  0.16344966  0.33462760  0.31932685  1  0.045891  0  0.098782  0.095645  0  1.011254  0
H  H23  1  0.33656073  0.16537246  0.81933153  1  0.045726  0  0.098787  0.09562  0  1.01118  0
H  H24  1  0.11377402  0.77034360  0.68576948  1  0.115544  0  0.107526  0.115145  0  1.017898  0
H  H25  1  0.38622786  0.72964789  0.18576880  1  0.115481  0  0.107496  0.115069  0  1.017951  0
H  H26  1  0.88623263  0.22965493  0.31422899  1  0.115588  0  0.107546  0.11515  0  1.017954  0
H  H27  1  0.61377414  0.27034557  0.81423057  1  0.115518  0  0.107535  0.115151  0  1.01795  0
H  H28  1  0.74766369  0.71988923  0.88913844  1  0.106649  0  0.111333  0.117726  0  1.015929  0
H  H29  1  0.75233088  0.78011424  0.38913257  1  0.106692  0  0.111332  0.117753  0  1.015959  0
H  H30  1  0.25233298  0.28012232  0.11086410  1  0.106583  0  0.111356  0.117746  0  1.015779  0
H  H31  1  0.24768002  0.21988049  0.61086816  1  0.106686  0  0.111361  0.117761  0  1.015843  0
H  H32  1  0.16616492  0.96701643  0.89099220  1  0.062572  0  0.103841  0.106951  0  1.00367  0
H  H33  1  0.33383592  0.53298123  0.39099352  1  0.062443  0  0.10383  0.106906  0  1.003667  0
H  H34  1  0.83384132  0.03298657  0.10900808  1  0.062581  0  0.10385  0.106954  0  1.003761  0
H  H35  1  0.66616329  0.46702395  0.60900856  1  0.062503  0  0.103849  0.106924  0  1.003692  0
H  H36  1  0.06284251  0.06195911  0.79717870  1  0.072144  0  0.104191  0.102658  0  1.033866  0
H  H37  1  0.43715573  0.43803175  0.29718161  1  0.072036  0  0.104221  0.102703  0  1.03379  0
H  H38  1  0.93716643  0.93803840  0.20281931  1  0.071956  0  0.104199  0.102718  0  1.033835  0
H  H39  1  0.56284128  0.56196822  0.70282093  1  0.072071  0  0.104215  0.102668  0  1.033747  0
H  H40  1  0.80596644  0.98030069  0.74757269  1  0.097235  0  0.105846  0.107113  0  1.029973  0
H  H41  1  0.69402728  0.51969092  0.24757298  1  0.097216  0  0.105881  0.10713  0  1.030128  0
H  H42  1  0.19404298  0.01969946  0.25242442  1  0.097241  0  0.105791  0.106995  0  1.030079  0
H  H43  1  0.30596983  0.48030282  0.75242866  1  0.097193  0  0.105849  0.107098  0  1.030037  0
H  H44  1  0.46913420  0.26690836  0.92916486  1  0.607103  0  0.324668  0.404385  0  0.876703  0
H  H45  1  0.03085410  0.23309086  0.42916523  1  0.607142  0  0.324741  0.404406  0  0.876734  0
H  H46  1  0.53086527  0.73309147  0.07082999  1  0.60721  0  0.32467  0.404416  0  0.87655  0
H  H47  1  0.96913882  0.76691379  0.57083097  1  0.607236  0  0.324709  0.404441  0  0.876522  0
H  H48  1  0.42608279  0.37820080  0.96720437  1  0.645305  0  0.295683  0.400542  0  0.920812  0
H  H49  1  0.07390662  0.12180592  0.46720828  1  0.645453  0  0.295669  0.400514  0  0.920874  0
H  H50  1  0.57391774  0.62179808  0.03279183  1  0.645267  0  0.29565  0.400486  0  0.920893  0
H  H51  1  0.92608728  0.87820401  0.53279110  1  0.645292  0  0.295665  0.400485  0  0.920888  0
H  H52  1  0.80077282  0.59008533  0.99495350  1  0.668673  0  0.2987  0.400241  0  0.933192  0
H  H53  1  0.69922962  0.90991930  0.49495295  1  0.668736  0  0.298743  0.400304  0  0.933105  0
H  H54  1  0.19922681  0.40991538  0.00504541  1  0.668702  0  0.298706  0.400249  0  0.93318  0
H  H55  1  0.30076747  0.09008778  0.50504914  1  0.668677  0  0.298697  0.400221  0  0.933196  0
H  H56  1  0.81813675  0.52375062  0.05472169  1  0.655278  0  0.294304  0.397343  0  0.937277  0
H  H57  1  0.68186778  0.97625250  0.55472138  1  0.655293  0  0.294319  0.397317  0  0.937331  0
H  H58  1  0.18186411  0.47625002  0.94527768  1  0.655248  0  0.294287  0.397291  0  0.937355  0
H  H59  1  0.31812180  0.02375411  0.44527980  1  0.655345  0  0.294281  0.397351  0  0.937337  0
H  H60  1  0.85861293  0.22102425  0.85512766  1  0.653683  0  0.277722  0.335348  0  1.035519  0
H  H61  1  0.64139127  0.27897674  0.35512679  1  0.653762  0  0.277757  0.335447  0  1.035378  0
H  H62  1  0.14138483  0.77897301  0.14487216  1  0.653813  0  0.277728  0.335396  0  1.035459  0
H  H63  1  0.35860991  0.72102566  0.64487304  1  0.653754  0  0.277706  0.335343  0  1.035518  0
H  H64  1  0.86678730  0.12505017  0.90789792  1  0.601566  0  0.306709  0.391113  0  0.905069  0
H  H65  1  0.63321658  0.37495520  0.40789422  1  0.601549  0  0.30669  0.391107  0  0.905005  0
H  H66  1  0.13321062  0.87494797  0.09210235  1  0.601578  0  0.306719  0.39115  0  0.905085  0
H  H67  1  0.36678402  0.62505079  0.59210334  1  0.601599  0  0.306692  0.391084  0  0.905045  0
C  C68  1  0.34926109  0.73956507  0.76625899  1  0.8762  0  0.219058  0.16965  0  3.983052  0
C  C69  1  0.15074115  0.76043067  0.26625833  1  0.875731  0  0.218955  0.169617  0  3.983396  0
C  C70  1  0.65074156  0.26043191  0.23374038  1  0.876193  0  0.219113  0.169752  0  3.98304  0
C  C71  1  0.84926933  0.23956853  0.73374195  1  0.875874  0  0.218999  0.169567  0  3.983545  0
C  C72  1  0.60389162  0.80672111  0.78521319  1  0.902051  0  0.213754  0.161646  0  4.017965  0
C  C73  1  0.89610028  0.69327550  0.28520797  1  0.902324  0  0.213737  0.161953  0  4.017729  0
C  C74  1  0.39610499  0.19328332  0.21478709  1  0.902021  0  0.213703  0.161668  0  4.017826  0
C  C75  1  0.10390295  0.30671789  0.71479140  1  0.902902  0  0.213707  0.161955  0  4.017588  0
C  C76  1  0.18047000  0.68877128  0.76997960  1  0.046064  0  -0.00679  0.021147  0  4.036533  0
C  C77  1  0.31951952  0.81121528  0.26998135  1  0.046095  0  -0.006806  0.021114  0  4.036592  0
C  C78  1  0.81952866  0.31122415  0.23002023  1  0.046327  0  -0.006873  0.021037  0  4.036539  0
C  C79  1  0.68047743  0.18877758  0.73001847  1  0.046253  0  -0.006844  0.021086  0  4.036678  0
C  C80  1  0.12597740  0.61433960  0.81737832  1  -0.065422  0  -0.082596  -0.13562  0  3.923678  0
C  C81  1  0.37401953  0.88565376  0.31737831  1  -0.06517  0  -0.082595  -0.13577  0  3.923757  0
C  C82  1  0.87401856  0.38566132  0.18262059  1  -0.065456  0  -0.082507  -0.13551  0  3.923497  0
C  C83  1  0.62598051  0.11434248  0.68262332  1  -0.065197  0  -0.082561  -0.135708  0  3.923764  0
C  C84  1  0.96757038  0.55968157  0.81567687  1  -0.024207  0  -0.017398  -0.020689  0  3.98574  0
C  C85  1  0.53241809  0.94031238  0.31567720  1  -0.024014  0  -0.017419  -0.020523  0  3.985798  0
C  C86  1  0.03242173  0.44031867  0.18432296  1  -0.023682  0  -0.017412  -0.020632  0  3.985707  0
C  C87  1  0.46757812  0.05968319  0.68432443  1  -0.024027  0  -0.017388  -0.020482  0  3.985655  0
C  C88  1  0.86591117  0.57493161  0.76552363  1  -0.004591  0  -0.085032  -0.093909  0  3.961855  0
C  C89  1  0.63408934  0.92506076  0.26552555  1  -0.0045  0  -0.085002  -0.094107  0  3.961835  0
C  C90  1  0.13409139  0.42507160  0.23447303  1  -0.0048  0  -0.08508  -0.093988  0  3.961814  0
C  C91  1  0.36591437  0.07493527  0.73447744  1  -0.004468  0  -0.085037  -0.094045  0  3.961865  0
C  C92  1  0.91901061  0.64925663  0.71842257  1  0.041318  0  -0.092282  -0.083999  0  4.027908  0
C  C93  1  0.58098166  0.85073786  0.21842491  1  0.041559  0  -0.092317  -0.08396  0  4.02784  0
C  C94  1  0.08099081  0.35074042  0.28157635  1  0.041137  0  -0.092289  -0.084037  0  4.02782  0
C  C95  1  0.41901683  0.14925668  0.78157718  1  0.04161  0  -0.092323  -0.083965  0  4.027651  0
C  C96  1  0.07366916  0.70830614  0.72106322  1  -0.117904  0  -0.077249  -0.091172  0  3.917785  0
C  C97  1  0.42633436  0.79168935  0.22106379  1  -0.118354  0  -0.077128  -0.090947  0  3.917711  0
C  C98  1  0.92633733  0.29169151  0.27893479  1  -0.118161  0  -0.077233  -0.09114  0  3.917972  0
C  C99  1  0.57367491  0.20830993  0.77893694  1  -0.118347  0  -0.0772  -0.091109  0  3.917539  0
C  C100  1  0.90228052  0.48794347  0.86785105  1  1.554252  0  0.194688  0.56805  0  4.222885  0
C  C101  1  0.59768995  0.01206076  0.36785172  1  1.553683  0  0.194925  0.568344  0  4.222681  0
C  C102  1  0.09771592  0.51206009  0.13214742  1  1.554215  0  0.194663  0.567941  0  4.223232  0
C  C103  1  0.40230046  0.98793691  0.63215037  1  1.55381  0  0.194688  0.567914  0  4.223072  0
C  C104  1  0.75444958  0.84929322  0.81619811  1  0.049719  0  -0.00214  0.033379  0  4.027967  0
C  C105  1  0.74553864  0.65070607  0.31619510  1  0.049803  0  -0.002069  0.033435  0  4.027769  0
C  C106  1  0.24555027  0.15071548  0.18380217  1  0.049896  0  -0.002122  0.033402  0  4.027777  0
C  C107  1  0.25446352  0.34928827  0.68380472  1  0.049708  0  -0.001996  0.03349  0  4.027525  0
C  C108  1  0.81106376  0.79797467  0.86954319  1  -0.092272  0  -0.082537  -0.146972  0  3.936953  0
C  C109  1  0.68893444  0.70203106  0.36954176  1  -0.092236  0  -0.082532  -0.14702  0  3.936808  0
C  C110  1  0.18893471  0.20203321  0.13045844  1  -0.092361  0  -0.082604  -0.14706  0  3.936855  0
C  C111  1  0.31107956  0.29796706  0.63045716  1  -0.092222  0  -0.082647  -0.147061  0  3.936879  0
C  C112  1  0.96016230  0.83938048  0.89575493  1  -0.066389  0  -0.021909  -0.031248  0  4.008669  0
C  C113  1  0.53983297  0.66061916  0.39575392  1  -0.066683  0  -0.021905  -0.031227  0  4.008739  0
C  C114  1  0.03983340  0.16062578  0.10424715  1  -0.066724  0  -0.021914  -0.031288  0  4.008574  0
C  C115  1  0.46016878  0.33937965  0.60424726  1  -0.066736  0  -0.021899  -0.031378  0  4.008838  0
C  C116  1  0.05072177  0.93516281  0.86989569  1  -0.030451  0  -0.089339  -0.114499  0  3.988599  0
C  C117  1  0.44928112  0.56483547  0.36989468  1  -0.030294  0  -0.089332  -0.11442  0  3.988694  0
C  C118  1  0.94927354  0.06483459  0.13010459  1  -0.030431  0  -0.089335  -0.114394  0  3.988466  0
C  C119  1  0.55072805  0.43517003  0.63010469  1  -0.030323  0  -0.089288  -0.114263  0  3.988195  0
C  C120  1  0.99403497  0.98675852  0.81705851  1  0.04094  0  -0.091025  -0.084723  0  4.017274  0
C  C121  1  0.50596349  0.51323571  0.31706057  1  0.041292  0  -0.091076  -0.084897  0  4.017279  0
C  C122  1  0.00596997  0.01323744  0.18294132  1  0.040949  0  -0.091006  -0.084909  0  4.01728  0
C  C123  1  0.49402831  0.48676278  0.68294423  1  0.040836  0  -0.091044  -0.084884  0  4.017305  0
C  C124  1  0.84895324  0.94299205  0.78967234  1  -0.06146  0  -0.073027  -0.080753  0  3.91027  0
C  C125  1  0.65104544  0.55700046  0.28967041  1  -0.061913  0  -0.073027  -0.080679  0  3.910308  0
C  C126  1  0.15105299  0.05701095  0.21032748  1  -0.061225  0  -0.072941  -0.080494  0  3.910024  0
C  C127  1  0.34895934  0.44299462  0.71032941  1  -0.061426  0  -0.073069  -0.080725  0  3.910445  0
C  C128  1  0.02810159  0.77385495  0.94811611  1  1.568606  0  0.198327  0.56546  0  4.239058  0
C  C129  1  0.47188579  0.72614235  0.44811175  1  1.568291  0  0.19838  0.565475  0  4.239112  0
C  C130  1  0.97189175  0.22614523  0.05188688  1  1.568191  0  0.198363  0.565493  0  4.23898  0
C  C131  1  0.52811890  0.27385897  0.55188762  1  1.568783  0  0.198384  0.565728  0  4.238857  0
N  N132  1  0.42640685  0.76491660  0.71383389  1  -0.705511  0  -0.210067  -0.221671  0  3.377245  0
N  N133  1  0.07359228  0.73508294  0.21383156  1  -0.705199  0  -0.209971  -0.221556  0  3.377055  0
N  N134  1  0.57359629  0.23508302  0.28616594  1  -0.705413  0  -0.210101  -0.221781  0  3.377229  0
N  N135  1  0.92640792  0.26491418  0.78616736  1  -0.705223  0  -0.209953  -0.221488  0  3.377165  0
N  N136  1  0.58367794  0.80592300  0.72527327  1  -0.657523  0  -0.22572  -0.248413  0  3.235127  0
N  N137  1  0.91631927  0.69407720  0.22526987  1  -0.657751  0  -0.225751  -0.248503  0  3.234969  0
N  N138  1  0.41632233  0.19408123  0.27472700  1  -0.657633  0  -0.225679  -0.24838  0  3.234995  0
N  N139  1  0.08368413  0.30591707  0.77473086  1  -0.657744  0  -0.225798  -0.248626  0  3.234846  0
N  N140  1  0.45923498  0.76469017  0.81230976  1  -0.857887  0  -0.130799  0.106898  0  3.745604  0
N  N141  1  0.04075786  0.73530182  0.31230790  1  -0.857618  0  -0.130874  0.106434  0  3.746049  0
N  N142  1  0.54076465  0.23531054  0.18768916  1  -0.857883  0  -0.130813  0.106847  0  3.745529  0
N  N143  1  0.95924309  0.26469259  0.68769283  1  -0.858258  0  -0.130834  0.106616  0  3.745919  0
N  N144  1  0.43355385  0.74276271  0.87395867  1  -0.754659  0  -0.48841  -0.484502  0  3.13419  0
N  N145  1  0.06644121  0.75722609  0.37395527  1  -0.754392  0  -0.488337  -0.484333  0  3.134289  0
N  N146  1  0.56644284  0.25723550  0.12604116  1  -0.754664  0  -0.488449  -0.484476  0  3.134207  0
N  N147  1  0.93356618  0.24276973  0.62604410  1  -0.75445  0  -0.488369  -0.484418  0  3.134132  0
O  O148  1  0.00205810  0.45910752  0.90983190  1  -1.183708  0  -0.330871  -0.595069  0  2.296706  0
O  O149  1  0.49791186  0.04090233  0.40982560  1  -1.183843  0  -0.330938  -0.595216  0  2.297092  0
O  O150  1  0.99793557  0.54089442  0.09016747  1  -1.183802  0  -0.330793  -0.594973  0  2.296976  0
O  O151  1  0.50207258  0.95909658  0.59017242  1  -1.183842  0  -0.330827  -0.594989  0  2.297045  0
O  O152  1  0.74911487  0.45872115  0.87023407  1  -1.164185  0  -0.334355  -0.563105  0  2.138706  0
O  O153  1  0.75086911  0.04128224  0.37023960  1  -1.163803  0  -0.334528  -0.563329  0  2.138475  0
O  O154  1  0.25088198  0.54127794  0.12976394  1  -1.164257  0  -0.33438  -0.563118  0  2.138887  0
O  O155  1  0.24911884  0.95871558  0.62976475  1  -1.164057  0  -0.334403  -0.563122  0  2.138537  0
O  O156  1  0.18461824  0.78660065  0.95782854  1  -1.171107  0  -0.32949  -0.565641  0  2.216483  0
O  O157  1  0.31538409  0.71340256  0.45782632  1  -1.171243  0  -0.329496  -0.565598  0  2.216797  0
O  O158  1  0.81537697  0.21340298  0.04217219  1  -1.17111  0  -0.329533  -0.565636  0  2.21648  0
O  O159  1  0.68462295  0.28660484  0.54217260  1  -1.171171  0  -0.329505  -0.565738  0  2.216595  0
O  O160  1  0.93399692  0.70686666  0.97995976  1  -1.185301  0  -0.324687  -0.578551  0  2.247134  0
O  O161  1  0.56601675  0.79314053  0.47995864  1  -1.184643  0  -0.32479  -0.578709  0  2.246739  0
O  O162  1  0.06599846  0.29313785  0.02003916  1  -1.184637  0  -0.324693  -0.578629  0  2.246992  0
O  O163  1  0.43400215  0.20685731  0.52004299  1  -1.1851  0  -0.324732  -0.578751  0  2.24671  0
O  O164  1  0.80774095  0.19333637  0.89531242  1  -1.251987  0  -0.586277  -0.764652  0  2.125762  0
O  O165  1  0.69225805  0.30666439  0.39531189  1  -1.252139  0  -0.586291  -0.764714  0  2.125602  0
O  O166  1  0.19225574  0.80666184  0.10468831  1  -1.252155  0  -0.586307  -0.764746  0  2.125784  0
O  O167  1  0.30774084  0.69333903  0.60468839  1  -1.252151  0  -0.586239  -0.764598  0  2.125704  0
O  O168  1  0.49999361  0.31066509  0.96563097  1  -1.211993  0  -0.574361  -0.739608  0  2.005214  0
O  O169  1  0.99999641  0.18934437  0.46563336  1  -1.212215  0  -0.574439  -0.739607  0  2.005269  0
O  O170  1  0.50000879  0.68933724  0.03436298  1  -1.212084  0  -0.574336  -0.739586  0  2.005133  0
O  O171  1  0.99999380  0.81066493  0.53436271  1  -1.212117  0  -0.57438  -0.739605  0  2.00509  0
O  O172  1  0.74107765  0.52701144  0.01917606  1  -1.270972  0  -0.564694  -0.75085  0  2.027125  0
O  O173  1  0.75892285  0.97299495  0.51917478  1  -1.271138  0  -0.564766  -0.750916  0  2.027153  0
O  O174  1  0.25892181  0.47298839  0.98082332  1  -1.270952  0  -0.564698  -0.750808  0  2.027186  0
O  O175  1  0.24106982  0.02701505  0.48082821  1  -1.271125  0  -0.564688  -0.750871  0  2.027064  0
