# generated using pymatgen
data_Lu2CuH18C22(NO9)2
_symmetry_space_group_name_H-M   'P 1'
_cell_length_a   6.59468484
_cell_length_b   7.93534045
_cell_length_c   13.02297265
_cell_angle_alpha   100.84794523
_cell_angle_beta   92.27975811
_cell_angle_gamma   102.74098392
_symmetry_Int_Tables_number   1
_chemical_formula_structural   Lu2CuH18C22(NO9)2
_chemical_formula_sum   'Lu2 Cu1 H18 C22 N2 O18'
_cell_volume   650.49224054
_cell_formula_units_Z   1
loop_
 _symmetry_equiv_pos_site_id
 _symmetry_equiv_pos_as_xyz
  1  'x, y, z'
loop_
 _atom_site_type_symbol
 _atom_site_label
 _atom_site_symmetry_multiplicity
 _atom_site_fract_x
 _atom_site_fract_y
 _atom_site_fract_z
 _atom_site_occupancy
 _atom_site_hle17_ddec_charge
 _atom_site_hle17_ddec_spin_density
 _atom_site_hle17_ddec_sum_bond_order
 _atom_site_hle17_magmom
 _atom_site_hse06_10hf_ddec_charge
 _atom_site_hse06_10hf_ddec_spin_density
 _atom_site_hse06_10hf_ddec_sum_bond_order
 _atom_site_hse06_10hf_magmom
 _atom_site_hse06_ddec_charge
 _atom_site_hse06_ddec_spin_density
 _atom_site_hse06_ddec_sum_bond_order
 _atom_site_hse06_magmom
 _atom_site_pbe_cm5_charge
 _atom_site_pbe_ddec_charge
 _atom_site_pbe_ddec_spin_density
 _atom_site_pbe_ddec_sum_bond_order
 _atom_site_pbe_magmom
Lu  Lu0  1  0.56030108  0.93044937  0.35326098  1  1.836601  0.000947  2.337153  0.001  1.673679  0.00087  2.817464  0.001  1.736211  0.000499  2.760226  0.001  1.359865  1.628931  0.001242  2.857247  0.002
Lu  Lu1  1  0.43969492  0.06954829  0.64673823  1  1.836468  0.000954  2.337438  0.001  1.673663  0.000862  2.817531  0.001  1.736194  0.000507  2.760293  0.001  1.359854  1.628915  0.001242  2.857322  0.002
Cu  Cu2  1  0.00000850  0.50000345  0.00000505  1  0.846613  0.70091  1.872129  0.521  0.810398  0.778068  2.277748  0.626  0.896934  0.838853  2.208721  0.705  0.768091  0.755751  0.734642  2.327386  0.574
H  H3  1  0.10210256  0.73014593  0.30148127  1  0.440494  6.1e-05  0.850501  0.0  0.406957  4.7e-05  0.917872  0.0  0.41962  4e-05  0.899316  0.0  0.300898  0.397968  5.3e-05  0.931005  0.0
H  H4  1  0.89789258  0.26985445  0.69851520  1  0.440558  6.1e-05  0.850407  0.0  0.406975  4.7e-05  0.91784  0.0  0.419634  3.9e-05  0.899289  0.0  0.300894  0.397983  5.3e-05  0.930978  0.0
H  H5  1  0.16261287  0.79700707  0.42666569  1  0.447788  2e-06  0.842683  0.0  0.413106  1e-06  0.911726  0.0  0.425241  1e-06  0.893841  0.0  0.310132  0.404427  1e-06  0.924513  0.0
H  H6  1  0.83738205  0.20298668  0.57333147  1  0.447778  1e-06  0.842695  0.0  0.413105  2e-06  0.911736  0.0  0.425241  0.0  0.893849  0.0  0.310107  0.404422  1e-06  0.924532  0.0
H  H7  1  0.67557697  0.25166847  0.17101001  1  0.12245  0.000106  0.931629  0.0  0.129824  -8.8e-05  0.993165  0.0  0.133304  -9.3e-05  0.990263  0.0  0.120935  0.12717  -7.4e-05  0.995499  0.0
H  H8  1  0.32442660  0.74832931  0.82898703  1  0.122451  9.8e-05  0.931631  0.0  0.129846  -8.9e-05  0.99315  0.0  0.133324  -9.1e-05  0.990246  0.0  0.120946  0.127188  -7.4e-05  0.995487  0.0
H  H9  1  0.37747141  0.03104217  0.06449669  1  0.124201  0.000775  0.957051  0.001  0.131314  0.000683  1.018036  0.001  0.13569  0.000502  1.015589  0.0  0.11719  0.128126  0.000835  1.020009  0.001
H  H10  1  0.62253348  0.96894896  0.93550183  1  0.124296  0.000776  0.957107  0.001  0.131331  0.000683  1.018167  0.001  0.135704  0.000502  1.015726  0.0  0.117182  0.128145  0.000835  1.020141  0.001
H  H11  1  0.08642374  0.14035308  0.98536612  1  0.103058  0.000987  0.922999  0.002  0.112503  0.000824  0.98069  0.002  0.11535  0.000609  0.977732  0.001  0.130874  0.110218  0.000996  0.983099  0.002
H  H12  1  0.91357580  0.85964056  0.01463571  1  0.103049  0.000984  0.922949  0.002  0.112519  0.000824  0.980634  0.002  0.115359  0.000609  0.977678  0.001  0.130874  0.110238  0.000995  0.983042  0.002
H  H13  1  0.37694461  0.48906969  0.43105173  1  0.12012  3e-06  0.928662  0.0  0.133891  0.0  0.991154  0.0  0.136063  3e-06  0.990552  0.0  0.112709  0.132297  1e-06  0.991702  0.0
H  H14  1  0.62305285  0.51093308  0.56895352  1  0.12015  9e-06  0.928835  0.0  0.133957  -0.0  0.991246  0.0  0.136131  0.0  0.990645  0.0  0.112737  0.132371  1e-06  0.99179  0.0
H  H15  1  0.21191058  0.37670496  0.51425440  1  0.115777  -0.0  0.935831  0.0  0.125636  -2e-06  1.000608  0.0  0.128962  -5e-06  0.998411  0.0  0.103808  0.123186  -1e-06  1.002314  0.0
H  H16  1  0.78808817  0.62329124  0.48575004  1  0.115696  3e-06  0.936005  0.0  0.125533  -1e-06  1.000797  0.0  0.128853  -1e-06  0.998607  0.0  0.103763  0.123085  -1e-06  1.002509  0.0
H  H17  1  0.01648253  0.45037755  0.36213374  1  0.112681  2.2e-05  0.925897  0.0  0.129629  1.5e-05  0.981394  0.0  0.131789  1.7e-05  0.980608  0.0  0.107797  0.128003  1.3e-05  0.982123  0.0
H  H18  1  0.98351526  0.54962658  0.63787016  1  0.112717  2.1e-05  0.925878  0.0  0.129672  1.4e-05  0.981373  0.0  0.131832  1.7e-05  0.980588  0.0  0.107828  0.128045  1.3e-05  0.982102  0.0
H  H19  1  0.14458509  0.32266546  0.27232363  1  0.113737  -2.4e-05  0.930999  0.0  0.125182  -1.2e-05  0.993659  0.0  0.126978  -1.2e-05  0.994172  0.0  0.103211  0.123985  -1.6e-05  0.993302  0.0
H  H20  1  0.85541048  0.67733603  0.72767990  1  0.113734  -2.3e-05  0.931048  0.0  0.125198  -1.2e-05  0.993687  0.0  0.126991  -9e-06  0.994204  0.0  0.103235  0.124001  -1.6e-05  0.993325  0.0
C  C21  1  0.37245550  0.52266726  0.11521617  1  0.06174  -0.007225  3.706588  -0.004  0.059125  -0.001808  3.951885  -0.001  0.062493  -0.003294  3.972758  -0.002  0.11335  0.056841  -0.000848  3.938309  0.0
C  C22  1  0.62753882  0.47731865  0.88477769  1  0.061555  -0.007156  3.706217  -0.004  0.059054  -0.001806  3.951421  -0.001  0.06249  -0.003279  3.97221  -0.002  0.113306  0.056769  -0.000844  3.937844  0.0
C  C23  1  0.54287959  0.47448093  0.15976269  1  -0.092724  0.004361  3.660544  0.004  -0.081211  0.001527  3.903453  0.002  -0.090231  0.001625  3.923188  0.002  0.007917  -0.075854  0.001528  3.891018  0.001
C  C24  1  0.45711121  0.52550894  0.84023085  1  -0.092779  0.004333  3.660496  0.004  -0.081303  0.001525  3.903397  0.002  -0.090336  0.001635  3.923106  0.002  0.007914  -0.075935  0.001527  3.89095  0.001
C  C25  1  0.54563147  0.29484542  0.13846250  1  0.022771  -0.011704  3.625069  -0.007  -0.010264  -0.004488  3.886178  -0.002  -0.003043  -0.005096  3.897447  -0.003  -0.044105  -0.01525  -0.004035  3.879276  -0.002
C  C26  1  0.45437985  0.70516419  0.86153846  1  0.022762  -0.011608  3.624753  -0.007  -0.010269  -0.00449  3.885825  -0.002  -0.003042  -0.005094  3.897091  -0.003  -0.044111  -0.015252  -0.004035  3.878918  -0.002
C  C27  1  0.38119320  0.17120185  0.07777968  1  -0.066578  0.00907  3.640034  0.01  -0.082727  0.003858  3.89614  0.005  -0.086833  0.003555  3.909436  0.004  -0.060081  -0.080317  0.004134  3.887533  0.005
C  C28  1  0.61880792  0.82880379  0.92221909  1  -0.066683  0.009014  3.640106  0.01  -0.082761  0.003856  3.896251  0.005  -0.086867  0.003548  3.90954  0.004  -0.060093  -0.080347  0.004133  3.887653  0.005
C  C29  1  0.21790314  0.22878089  0.03567091  1  0.147036  -0.00986  3.643136  -0.006  0.114725  -0.002564  3.902105  -0.002  0.124915  -0.004181  3.917363  -0.003  0.063403  0.108162  -0.001363  3.892054  -0.001
C  C30  1  0.78209623  0.77121816  0.96432699  1  0.147086  -0.009791  3.643022  -0.006  0.114714  -0.002563  3.902037  -0.002  0.124911  -0.00418  3.917288  -0.003  0.063396  0.108142  -0.001365  3.892001  -0.001
C  C31  1  0.34427842  0.70751122  0.12081710  1  0.641482  -0.004909  3.870304  -0.004  0.588704  -1.1e-05  4.173483  0.0  0.625488  -0.000513  4.166547  0.0  0.230314  0.56345  0.000374  4.177561  0.0
C  C32  1  0.65572586  0.29248917  0.87918105  1  0.64153  -0.004901  3.870201  -0.004  0.588659  -1.3e-05  4.173476  0.0  0.625436  -0.000508  4.166522  0.0  0.230262  0.563405  0.00037  4.177557  0.0
C  C33  1  0.72376593  0.59993883  0.23009860  1  0.699112  0.000807  3.872477  0.001  0.646736  0.000638  4.174042  0.001  0.682933  0.000426  4.163545  0.001  0.23367  0.622142  0.000841  4.180399  0.001
C  C34  1  0.27623705  0.40006818  0.76989883  1  0.699598  0.000797  3.872734  0.001  0.647222  0.000639  4.174267  0.001  0.683433  0.000426  4.163742  0.001  0.233895  0.622616  0.00084  4.180651  0.001
C  C35  1  0.37949205  0.21853707  0.41507423  1  0.732597  1e-06  3.767262  0.0  0.681303  -4e-06  4.06695  0.0  0.716035  -3.4e-05  4.05833  0.0  0.227842  0.657561  -2e-06  4.072228  0.0
C  C36  1  0.62050583  0.78146190  0.58492594  1  0.732612  4e-06  3.767353  0.0  0.681327  -4e-06  4.067045  0.0  0.716071  -2.2e-05  4.058416  0.0  0.227845  0.657587  -1e-06  4.072316  0.0
C  C37  1  0.26562463  0.36531403  0.43521651  1  -0.247219  -4e-06  3.65464  0.0  -0.289833  -8e-06  3.911898  0.0  -0.294648  3e-06  3.917105  0.0  -0.158314  -0.286477  4e-06  3.908373  0.0
C  C38  1  0.73436613  0.63468089  0.56478458  1  -0.247205  -4.2e-05  3.654811  0.0  -0.289808  -8e-06  3.912084  0.0  -0.294612  -1.9e-05  3.917279  0.0  -0.158288  -0.28646  4e-06  3.908571  0.0
C  C39  1  0.08699385  0.33549740  0.35047926  1  -0.230364  5e-06  3.668299  0.0  -0.270521  -4e-06  3.921959  0.0  -0.275011  3e-06  3.928742  0.0  -0.157382  -0.267369  7e-06  3.917136  0.0
C  C40  1  0.91301226  0.66450938  0.64952663  1  -0.230399  2e-06  3.668244  0.0  -0.270586  -3e-06  3.921954  0.0  -0.275077  -7e-06  3.928727  0.0  -0.157442  -0.267435  7e-06  3.917126  0.0
C  C41  1  0.91546364  0.17543794  0.35151587  1  0.697992  -2e-06  3.810396  0.0  0.650676  -3e-06  4.111463  0.0  0.683274  -1.5e-05  4.105469  0.0  0.205186  0.628477  -1e-06  4.114847  0.0
C  C42  1  0.08453412  0.82456629  0.64848497  1  0.697863  7e-06  3.810608  0.0  0.650558  -2e-06  4.111705  0.0  0.683176  -8e-06  4.105688  0.0  0.205142  0.628365  -1e-06  4.115075  0.0
N  N43  1  0.21691606  0.40026042  0.05419381  1  -0.313382  0.07317  3.401916  0.095  -0.273894  0.049476  3.706587  0.068  -0.30332  0.040945  3.72838  0.06  -0.357171  -0.255867  0.054353  3.693706  0.071
N  N44  1  0.78310045  0.59973989  0.94580989  1  -0.313367  0.073134  3.401414  0.095  -0.273895  0.049473  3.706113  0.068  -0.303355  0.040946  3.727887  0.06  -0.357094  -0.255863  0.054351  3.693231  0.071
O  O45  1  0.21970153  0.78631134  0.35680907  1  -0.869985  2e-05  1.885775  0.0  -0.81127  6e-06  2.08282  0.0  -0.833553  2e-06  2.046999  0.0  -0.623768  -0.795322  2e-05  2.10791  0.0
O  O46  1  0.78029610  0.21368106  0.64318950  1  -0.86999  2e-05  1.88572  0.0  -0.811269  6e-06  2.082795  0.0  -0.833543  3e-06  2.046977  0.0  -0.623729  -0.795321  2e-05  2.107889  0.0
O  O47  1  0.19909877  0.72487256  0.05796837  1  -0.559752  0.082153  2.065193  0.115  -0.533039  0.056456  2.348054  0.085  -0.573806  0.043485  2.339689  0.071  -0.306962  -0.505823  0.065069  2.354072  0.093
O  O48  1  0.80090034  0.27511997  0.94202640  1  -0.559699  0.082151  2.065036  0.115  -0.532973  0.056453  2.347901  0.085  -0.573761  0.043478  2.339549  0.071  -0.306902  -0.505756  0.065068  2.35391  0.093
O  O49  1  0.46129602  0.83668949  0.18199128  1  -0.610413  0.009835  2.110467  0.013  -0.548281  0.005871  2.35206  0.009  -0.577188  0.002966  2.343801  0.005  -0.355337  -0.52746  0.009058  2.356895  0.012
O  O50  1  0.53870218  0.16331086  0.81800677  1  -0.61049  0.009829  2.110393  0.013  -0.548288  0.005869  2.351934  0.009  -0.577187  0.002958  2.343677  0.005  -0.355369  -0.527473  0.009056  2.356779  0.012
O  O51  1  0.90493448  0.59624569  0.20497820  1  -0.611511  0.000238  1.962892  0.002  -0.57128  -0.000662  2.201592  0.0  -0.599026  -0.001041  2.190628  0.0  -0.291304  -0.551817  -0.000146  2.208821  0.001
O  O52  1  0.09507005  0.40377342  0.79501310  1  -0.611649  0.000235  1.962702  0.002  -0.571473  -0.000661  2.2015  0.0  -0.599216  -0.001044  2.190528  0.0  -0.291404  -0.552007  -0.000146  2.208744  0.001
O  O53  1  0.68164628  0.69223859  0.31480060  1  -0.691738  0.000806  2.06998  0.001  -0.632833  0.00047  2.325029  0.001  -0.661517  0.000293  2.312106  0.0  -0.401972  -0.612315  0.000718  2.333098  0.001
O  O54  1  0.31834775  0.30776294  0.68520138  1  -0.691945  0.000802  2.070349  0.001  -0.633014  0.000473  2.325299  0.001  -0.661748  0.000279  2.312455  0.0  -0.402038  -0.612492  0.000718  2.333378  0.001
O  O55  1  0.42426593  0.14127750  0.48857718  1  -0.72149  1e-06  2.142898  0.0  -0.649014  4e-06  2.396521  0.0  -0.679696  -6e-06  2.387066  0.0  -0.406118  -0.627424  8e-06  2.402276  0.0
O  O56  1  0.57573134  0.85871361  0.51142045  1  -0.721464  5e-06  2.142927  0.0  -0.648974  3e-06  2.396542  0.0  -0.679722  8e-06  2.387121  0.0  -0.406105  -0.627403  8e-06  2.402334  0.0
O  O57  1  0.43051637  0.16753469  0.32373431  1  -0.63619  -0.000149  2.001209  0.0  -0.576531  -0.000111  2.23284  0.0  -0.604471  -0.000108  2.22724  0.0  -0.34858  -0.557028  -9.3e-05  2.236222  0.0
O  O58  1  0.56947916  0.83246691  0.67626539  1  -0.636162  -0.000143  2.0012  0.0  -0.576553  -0.000111  2.232861  0.0  -0.604484  -0.000108  2.22725  0.0  -0.348601  -0.557044  -9.3e-05  2.236236  0.0
O  O59  1  0.82686370  0.07614955  0.26615242  1  -0.627159  -1.6e-05  1.934942  0.0  -0.578725  -2.6e-05  2.163077  0.0  -0.603596  -1.9e-05  2.154165  0.0  -0.358079  -0.561326  -2.5e-05  2.168692  0.0
O  O60  1  0.17313547  0.92385993  0.73384987  1  -0.627049  -2.5e-05  1.934956  0.0  -0.578657  -2.3e-05  2.163103  0.0  -0.603546  -1.4e-05  2.154184  0.0  -0.358059  -0.561255  -2.5e-05  2.168713  0.0
O  O61  1  0.85099783  0.14099093  0.43930777  1  -0.68443  3.1e-05  2.000083  0.0  -0.618777  1.6e-05  2.230005  0.0  -0.64685  1e-05  2.220635  0.0  -0.363986  -0.599177  3.1e-05  2.236026  0.0
O  O62  1  0.14899700  0.85900802  0.56069236  1  -0.68434  3.1e-05  2.000148  0.0  -0.618699  1.6e-05  2.230059  0.0  -0.646773  9e-06  2.220683  0.0  -0.363977  -0.599104  3.1e-05  2.236077  0.0
