# generated using pymatgen
data_AlH11(C2O)6
_symmetry_space_group_name_H-M   'P 1'
_cell_length_a   6.65036883
_cell_length_b   11.01424767
_cell_length_c   15.29370737
_cell_angle_alpha   85.77571436
_cell_angle_beta   77.57116058
_cell_angle_gamma   72.38022812
_symmetry_Int_Tables_number   1
_chemical_formula_structural   AlH11(C2O)6
_chemical_formula_sum   'Al2 H22 C24 O12'
_cell_volume   1042.62500791
_cell_formula_units_Z   2
loop_
 _symmetry_equiv_pos_site_id
 _symmetry_equiv_pos_as_xyz
  1  'x, y, z'
loop_
 _atom_site_type_symbol
 _atom_site_label
 _atom_site_symmetry_multiplicity
 _atom_site_fract_x
 _atom_site_fract_y
 _atom_site_fract_z
 _atom_site_occupancy
 _atom_site_pbe_bader_charge
 _atom_site_pbe_bader_spin_density
 _atom_site_pbe_cm5_charge
 _atom_site_pbe_ddec_charge
 _atom_site_pbe_ddec_spin_density
 _atom_site_pbe_ddec_sum_bond_order
 _atom_site_pbe_magmom
Al  Al0  1  0.50601889  0.49486387  0.49855349  1  2.503558  0  0.396992  1.644664  0  2.583181  0
Al  Al1  1  0.99952395  0.50382965  0.50150968  1  2.504083  0  0.396643  1.642808  0  2.583586  0
H  H2  1  0.28337053  0.36128000  0.56546735  1  0.626576  0  0.35371  0.428052  0  0.85905  0
H  H3  1  0.70403091  0.64285736  0.44205037  1  0.598052  0  0.35121  0.425095  0  0.864398  0
H  H4  1  0.84203300  0.60430376  0.77866288  1  0.112137  0  0.109926  0.128444  0  0.999254  0
H  H5  1  0.05057952  0.52838021  0.23223326  1  0.102967  0  0.110326  0.13051  0  1.0029  0
H  H6  1  0.73123644  0.40869803  0.22579918  1  0.081167  0  0.104861  0.113913  0  1.004721  0
H  H7  1  0.80198524  0.41306242  0.05822227  1  0.068799  0  0.101915  0.102276  0  1.012384  0
H  H8  1  0.37045921  0.41622707  0.76447884  1  0.060735  0  0.105707  0.116287  0  1.001899  0
H  H9  1  0.29111661  0.39707844  0.93113352  1  0.071192  0  0.103289  0.109202  0  0.997851  0
H  H10  1  0.08460968  0.88477772  0.35568861  1  0.024904  0  0.09186  0.086683  0  0.978053  0
H  H11  1  0.82876684  0.89537652  0.42343501  1  0.024654  0  0.091802  0.08905  0  0.994902  0
H  H12  1  0.74696558  0.11733380  0.40765012  1  0.062675  0  0.094939  0.095777  0  0.991305  0
H  H13  1  0.01581284  0.10548145  0.35447220  1  0.020181  0  0.093211  0.089857  0  0.972565  0
H  H14  1  0.65015380  0.10293488  0.57581038  1  0.05716  0  0.091958  0.08897  0  0.993891  0
H  H15  1  0.83071590  0.11423032  0.64234714  1  0.021396  0  0.092166  0.086579  0  0.979154  0
H  H16  1  0.77777759  0.88105003  0.59126159  1  0.050262  0  0.09438  0.093527  0  0.988315  0
H  H17  1  0.98353126  0.89373697  0.64336842  1  0.021665  0  0.092636  0.088716  0  0.975546  0
H  H18  1  0.38524346  0.89754912  0.43085199  1  0.022223  0  0.088764  0.082004  0  0.987013  0
H  H19  1  0.35621707  0.88276682  0.54794476  1  0.030866  0  0.092142  0.089931  0  0.988456  0
H  H20  1  0.21511570  0.10346915  0.56580363  1  0.018435  0  0.088421  0.08157  0  0.989505  0
H  H21  1  0.28506535  0.11855920  0.44870825  1  0.045794  0  0.093657  0.092418  0  0.983979  0
H  H22  1  0.87935819  0.63538636  0.92079169  1  0.619471  0  0.33852  0.371077  0  0.868914  0
H  H23  1  0.95129736  0.56667937  0.09508367  1  0.597464  0  0.331577  0.365822  0  0.889614  0
C  C24  1  0.86998706  0.26858304  0.49964153  1  1.568631  0  0.275981  0.639921  0  4.023531  0
C  C25  1  0.66736247  0.51394630  0.66215059  1  1.528851  0  0.261344  0.633587  0  4.110267  0
C  C26  1  0.14420410  0.73065906  0.49927518  1  1.560008  0  0.275945  0.641625  0  4.019438  0
C  C27  1  0.33834684  0.47681136  0.33829436  1  1.538098  0  0.261272  0.63114  0  4.113046  0
C  C28  1  0.61196834  0.51036320  0.76192000  1  0.061184  0  -0.019879  -0.017177  0  4.02145  0
C  C29  1  0.38635225  0.47045442  0.23854891  1  0.060758  0  -0.019063  -0.01501  0  4.0178  0
C  C30  1  0.71941618  0.56008708  0.81273819  1  -0.026161  0  -0.106095  -0.249536  0  3.998208  0
C  C31  1  0.66723603  0.55514094  0.90613343  1  0.406781  0  0.081179  0.26479  0  4.065294  0
C  C32  1  0.21542199  0.50458682  0.19327392  1  -0.012405  0  -0.103787  -0.244782  0  3.986316  0
C  C33  1  0.25505383  0.51287557  0.09994389  1  0.408042  0  0.080946  0.267568  0  4.066385  0
C  C34  1  0.59921633  0.43737294  0.18980494  1  -0.037076  0  -0.103287  -0.137691  0  4.033418  0
C  C35  1  0.63721757  0.44170192  0.09678297  1  -0.027936  0  -0.094094  -0.121059  0  4.027863  0
C  C36  1  0.45351980  0.45401074  0.80496448  1  -0.06493  0  -0.101998  -0.134572  0  4.028871  0
C  C37  1  0.40876519  0.44484746  0.89785910  1  0.002264  0  -0.092827  -0.117438  0  4.020735  0
C  C38  1  0.51387278  0.49421981  0.95077082  1  0.059924  0  -0.014405  -0.008489  0  3.942532  0
C  C39  1  0.46830117  0.48265789  0.04954759  1  -0.019823  0  -0.013629  -0.008931  0  3.942085  0
C  C40  1  0.97292792  0.92690520  0.41736972  1  0.010038  0  -0.156694  -0.170618  0  3.863213  0
C  C41  1  0.91564781  0.07400182  0.41336022  1  -0.076505  0  -0.155879  -0.172264  0  3.855159  0
C  C42  1  0.95161853  0.12403643  0.49877758  1  0.040504  0  -0.015842  0.012915  0  3.817039  0
C  C43  1  0.82053246  0.07195372  0.58104749  1  -0.065645  0  -0.154876  -0.170076  0  3.857894  0
C  C44  1  0.90836036  0.92484964  0.58489623  1  -0.020341  0  -0.154425  -0.168498  0  3.852727  0
C  C45  1  0.07774502  0.87539338  0.49886655  1  0.058579  0  -0.014622  0.011548  0  3.816498  0
C  C46  1  0.27026172  0.92693177  0.49444670  1  -0.050666  0  -0.163801  -0.180087  0  3.890931  0
C  C47  1  0.19188115  0.07382598  0.50245566  1  -0.00877  0  -0.163307  -0.179418  0  3.89112  0
O  O48  1  0.67472611  0.31972375  0.49264647  1  -1.268021  0  -0.235074  -0.59482  0  2.34979  0
O  O49  1  0.84902718  0.52969171  0.62529078  1  -1.255663  0  -0.241712  -0.592252  0  2.325125  0
O  O50  1  0.99947204  0.67813112  0.49614962  1  -1.272866  0  -0.235913  -0.599526  0  2.350121  0
O  O51  1  0.48966194  0.48270422  0.37525927  1  -1.258088  0  -0.238898  -0.592192  0  2.343116  0
O  O52  1  0.33906509  0.67127946  0.50212299  1  -1.276754  0  -0.230604  -0.588466  0  2.363134  0
O  O53  1  0.14757324  0.48056643  0.37812680  1  -1.26521  0  -0.240259  -0.591335  0  2.35458  0
O  O54  1  0.99925612  0.32915792  0.50878490  1  -1.275827  0  -0.232197  -0.593007  0  2.370628  0
O  O55  1  0.52881743  0.49788860  0.62169460  1  -1.26246  0  -0.239226  -0.598431  0  2.36654  0
O  O56  1  0.25823034  0.44670217  0.54052576  1  -1.432138  0  -0.449867  -0.992885  0  2.214288  0
O  O57  1  0.74452915  0.55388466  0.45985984  1  -1.405342  0  -0.449898  -0.990711  0  2.206869  0
O  O58  1  0.75883524  0.61089775  0.95786200  1  -1.141461  0  -0.352263  -0.453861  0  2.335935  0
O  O59  1  0.09045821  0.55380096  0.05416398  1  -1.125984  0  -0.352865  -0.463193  0  2.361132  0
