# generated using pymatgen
data_CaH10(C3O4)2
_symmetry_space_group_name_H-M   'P 1'
_cell_length_a   11.18510330
_cell_length_b   11.21917473
_cell_length_c   12.97500000
_cell_angle_alpha   76.02457836
_cell_angle_beta   75.98113827
_cell_angle_gamma   61.45169053
_symmetry_Int_Tables_number   1
_chemical_formula_structural   CaH10(C3O4)2
_chemical_formula_sum   'Ca6 H60 C36 O48'
_cell_volume   1372.45253107
_cell_formula_units_Z   6
loop_
 _symmetry_equiv_pos_site_id
 _symmetry_equiv_pos_as_xyz
  1  'x, y, z'
loop_
 _atom_site_type_symbol
 _atom_site_label
 _atom_site_symmetry_multiplicity
 _atom_site_fract_x
 _atom_site_fract_y
 _atom_site_fract_z
 _atom_site_occupancy
 _atom_site_hle17_bader_spin_density
 _atom_site_hle17_ddec_charge
 _atom_site_hle17_ddec_spin_density
 _atom_site_hle17_ddec_sum_bond_order
 _atom_site_hle17_magmom
 _atom_site_hse06_10hf_bader_spin_density
 _atom_site_hse06_10hf_ddec_charge
 _atom_site_hse06_10hf_ddec_spin_density
 _atom_site_hse06_10hf_ddec_sum_bond_order
 _atom_site_hse06_10hf_magmom
 _atom_site_hse06_bader_spin_density
 _atom_site_hse06_ddec_charge
 _atom_site_hse06_ddec_spin_density
 _atom_site_hse06_ddec_sum_bond_order
 _atom_site_hse06_magmom
 _atom_site_pbe_bader_charge
 _atom_site_pbe_bader_spin_density
 _atom_site_pbe_cm5_charge
 _atom_site_pbe_ddec_charge
 _atom_site_pbe_ddec_spin_density
 _atom_site_pbe_ddec_sum_bond_order
 _atom_site_pbe_magmom
Ca  Ca0  1  0.53670942  0.73273894  0.97485066  1  0  1.60115  0  0.988716  0  0  1.474489  0  1.325147  0  0  1.514845  0  1.280416  0  1.661531  0  0.85709  1.444117  0  1.356953  0
Ca  Ca1  1  0.26722298  0.46384735  0.52508126  1  0  1.601632  0  0.986571  0  0  1.47492  0  1.322764  0  0  1.515239  0  1.278071  0  1.662315  0  0.856362  1.444554  0  1.354567  0
Ca  Ca2  1  0.46329197  0.26726036  0.02514935  1  0  1.601143  0  0.988727  0  0  1.474511  0  1.325114  0  0  1.514846  0  1.280423  0  1.661539  0  0.857083  1.44414  0  1.356919  0
Ca  Ca3  1  0.73277658  0.53615195  0.47491991  1  0  1.601647  0  0.986533  0  0  1.474955  0  1.322698  0  0  1.515265  0  1.278029  0  1.662317  0  0.856372  1.444594  0  1.354499  0
Ca  Ca4  1  0.99999971  0.50000016  0.99999995  1  0  1.549487  0  1.014288  0  0  1.421718  0  1.342272  0  0  1.46479  0  1.298839  0  1.643437  0  0.842069  1.389377  0  1.373083  0
Ca  Ca5  1  0.49999970  0.00000000  0.50000029  1  0  1.547853  0  1.020484  0  0  1.421081  0  1.347842  0  0  1.464121  0  1.30445  0  1.642358  0  0.844656  1.38876  0  1.378626  0
H  H6  1  0.75414460  0.19182257  0.12670887  1  0  0.108752  0  0.9497  0  0  0.115654  0  1.017104  0  0  0.120073  0  1.012839  0  0.11549  0  0.116499  0.112463  0  1.020154  0
H  H7  1  0.80774919  0.24562448  0.37337113  1  0  0.108213  0  0.94942  0  0  0.114838  0  1.017173  0  0  0.119364  0  1.012808  0  0.113551  0  0.115873  0.111583  0  1.020296  0
H  H8  1  0.24585725  0.80817570  0.87329126  1  0  0.108786  0  0.949741  0  0  0.115698  0  1.017134  0  0  0.120118  0  1.012867  0  0.115441  0  0.11653  0.112506  0  1.020185  0
H  H9  1  0.19224991  0.75437584  0.62662915  1  0  0.108192  0  0.949348  0  0  0.114792  0  1.017133  0  0  0.119317  0  1.012772  0  0.113532  0  0.115854  0.111537  0  1.020257  0
H  H10  1  0.96451855  0.75033367  0.17936942  1  0  0.101198  0  0.971247  0  0  0.104655  0  1.048532  0  0  0.109416  0  1.043187  0  0.130943  0  0.111224  0.101217  0  1.052362  0
H  H11  1  0.25072513  0.03519562  0.32067510  1  0  0.101536  0  0.971322  0  0  0.105001  0  1.048436  0  0  0.109723  0  1.043116  0  0.125845  0  0.111452  0.10156  0  1.052309  0
H  H12  1  0.03548423  0.24966460  0.82063052  1  0  0.101246  0  0.971236  0  0  0.104666  0  1.048568  0  0  0.109426  0  1.043223  0  0.13095  0  0.111228  0.101232  0  1.052388  0
H  H13  1  0.74927489  0.96480471  0.67932575  1  0  0.101528  0  0.971359  0  0  0.105002  0  1.048453  0  0  0.109724  0  1.043135  0  0.125839  0  0.111461  0.101563  0  1.052328  0
H  H14  1  0.19626232  0.98306014  0.08745225  1  0  0.10246  0  0.947877  0  0  0.111038  0  1.013345  0  0  0.115147  0  1.009319  0  0.113786  0  0.115673  0.10805  0  1.016268  0
H  H15  1  0.01647057  0.80497069  0.41243929  1  0  0.10136  0  0.949037  0  0  0.110543  0  1.013926  0  0  0.114615  0  1.010004  0  0.078846  0  0.115112  0.107554  0  1.016829  0
H  H16  1  0.80374046  0.01693813  0.91254615  1  0  0.102448  0  0.947943  0  0  0.111035  0  1.013397  0  0  0.115143  0  1.009373  0  0.11379  0  0.115662  0.108046  0  1.016321  0
H  H17  1  0.98352852  0.19502963  0.58756098  1  0  0.101455  0  0.948915  0  0  0.110601  0  1.013838  0  0  0.114658  0  1.009936  0  0.078815  0  0.115145  0.107608  0  1.016748  0
H  H18  1  0.60002563  0.97242738  0.89629117  1  0  0.423169  0  0.882034  0  0  0.394007  0  0.943187  0  0  0.404805  0  0.927255  0  0.636723  0  0.294951  0.386313  0  0.954524  0
H  H19  1  0.02742516  0.39967635  0.60367946  1  0  0.422996  0  0.882427  0  0  0.393481  0  0.944116  0  0  0.404286  0  0.928174  0  0.635835  0  0.294436  0.385785  0  0.955456  0
H  H20  1  0.39997438  0.02757294  0.10370891  1  0  0.423176  0  0.882023  0  0  0.394017  0  0.94317  0  0  0.404814  0  0.927238  0  0.63673  0  0.294956  0.386323  0  0.954508  0
H  H21  1  0.97257393  0.60032398  0.39632004  1  0  0.422994  0  0.882431  0  0  0.393485  0  0.944111  0  0  0.404291  0  0.928167  0  0.635837  0  0.294441  0.385788  0  0.955452  0
H  H22  1  0.74588126  0.84266343  0.91611158  1  0  0.438541  0  0.866372  0  0  0.406306  0  0.932092  0  0  0.417804  0  0.915285  0  0.658696  0  0.296517  0.398153  0  0.943978  0
H  H23  1  0.15768278  0.25425359  0.58386673  1  0  0.439311  0  0.864732  0  0  0.407477  0  0.929799  0  0  0.418905  0  0.91306  0  0.65644  0  0.297242  0.399362  0  0.941656  0
H  H24  1  0.25411876  0.15733690  0.08388851  1  0  0.438541  0  0.866373  0  0  0.406304  0  0.932097  0  0  0.417802  0  0.915289  0  0.658697  0  0.296518  0.398152  0  0.943981  0
H  H25  1  0.84231631  0.74574673  0.41613431  1  0  0.439467  0  0.864505  0  0  0.407588  0  0.929653  0  0  0.41902  0  0.912913  0  0.656446  0  0.297286  0.399464  0  0.941519  0
H  H26  1  0.71405271  0.45406304  0.09233737  1  0  0.438904  0  0.867153  0  0  0.407033  0  0.93222  0  0  0.418321  0  0.915687  0  0.659585  0  0.301968  0.399023  0  0.943945  0
H  H27  1  0.54600027  0.28600208  0.40768899  1  0  0.439491  0  0.86606  0  0  0.407561  0  0.931205  0  0  0.41887  0  0.914641  0  0.658663  0  0.302218  0.399535  0  0.942954  0
H  H28  1  0.28594731  0.54593728  0.90766194  1  0  0.438895  0  0.867166  0  0  0.407021  0  0.932239  0  0  0.41831  0  0.915704  0  0.659582  0  0.301959  0.399011  0  0.943963  0
H  H29  1  0.45399975  0.71399824  0.59231032  1  0  0.439538  0  0.865998  0  0  0.407629  0  0.9311  0  0  0.418937  0  0.914537  0  0.658662  0  0.302262  0.399605  0  0.942843  0
H  H30  1  0.55931455  0.48051054  0.12734568  1  0  0.416588  0  0.89008  0  0  0.386337  0  0.953561  0  0  0.397415  0  0.93719  0  0.614503  0  0.295152  0.37841  0  0.965264  0
H  H31  1  0.52016222  0.44033094  0.37251865  1  0  0.416904  0  0.889763  0  0  0.386196  0  0.953878  0  0  0.397323  0  0.937456  0  0.610973  0  0.294971  0.378258  0  0.965576  0
H  H32  1  0.44068454  0.51948979  0.87265460  1  0  0.416588  0  0.890082  0  0  0.386337  0  0.953561  0  0  0.397414  0  0.93719  0  0.614358  0  0.29515  0.378409  0  0.965265  0
H  H33  1  0.47983641  0.55967041  0.62748073  1  0  0.416894  0  0.889776  0  0  0.386186  0  0.95389  0  0  0.397314  0  0.937468  0  0.610973  0  0.294965  0.378249  0  0.965588  0
H  H34  1  0.57434637  0.85267447  0.14672336  1  0  0.422624  0  0.88065  0  0  0.388293  0  0.948926  0  0  0.400148  0  0.931616  0  0.651184  0  0.300632  0.37989  0  0.961183  0
H  H35  1  0.14761307  0.42563755  0.35307675  1  0  0.422941  0  0.879907  0  0  0.388818  0  0.947855  0  0  0.400673  0  0.930537  0  0.647989  0  0.301233  0.380412  0  0.960123  0
H  H36  1  0.42565272  0.14732585  0.85327692  1  0  0.422612  0  0.880666  0  0  0.388292  0  0.948923  0  0  0.400148  0  0.931611  0  0.651189  0  0.300617  0.37989  0  0.961179  0
H  H37  1  0.85238603  0.57436277  0.64692352  1  0  0.422957  0  0.879883  0  0  0.38883  0  0.947836  0  0  0.400686  0  0.930515  0  0.647987  0  0.301232  0.380425  0  0.960102  0
H  H38  1  0.44414897  0.82576530  0.19462003  1  0  0.428054  0  0.872581  0  0  0.393729  0  0.940945  0  0  0.404423  0  0.925526  0  0.65162  0  0.300921  0.38616  0  0.951843  0
H  H39  1  0.17426657  0.55574929  0.30523826  1  0  0.428261  0  0.872331  0  0  0.393919  0  0.940689  0  0  0.404633  0  0.925238  0  0.642104  0  0.301129  0.386336  0  0.951608  0
H  H40  1  0.55585012  0.17423502  0.80538025  1  0  0.428088  0  0.872528  0  0  0.393762  0  0.940892  0  0  0.404456  0  0.925474  0  0.651621  0  0.30094  0.386194  0  0.951788  0
H  H41  1  0.82573252  0.44425103  0.69476202  1  0  0.428264  0  0.872329  0  0  0.39392  0  0.940691  0  0  0.404634  0  0.92524  0  0.642106  0  0.301127  0.386337  0  0.95161  0
H  H42  1  0.52937371  0.64202400  0.75955414  1  0  0.430682  0  0.843927  0  0  0.403418  0  0.910344  0  0  0.414219  0  0.894314  0  0.643516  0  0.310283  0.395585  0  0.921978  0
H  H43  1  0.35775243  0.47086370  0.74040999  1  0  0.431098  0  0.84311  0  0  0.403622  0  0.910201  0  0  0.414447  0  0.894124  0  0.645471  0  0.310375  0.395785  0  0.921844  0
H  H44  1  0.47062630  0.35797632  0.24044595  1  0  0.430682  0  0.843925  0  0  0.40342  0  0.910339  0  0  0.41422  0  0.894311  0  0.643514  0  0.310281  0.395587  0  0.921974  0
H  H45  1  0.64224712  0.52913560  0.25958964  1  0  0.431057  0  0.843187  0  0  0.403574  0  0.910279  0  0  0.414399  0  0.894201  0  0.645466  0  0.310352  0.395737  0  0.921922  0
H  H46  1  0.62944572  0.51948774  0.83330032  1  0  0.412273  0  0.905975  0  0  0.375976  0  0.977667  0  0  0.388637  0  0.959367  0  0.632413  0  0.295966  0.367054  0  0.990536  0
H  H47  1  0.48046215  0.37067428  0.66668524  1  0  0.412803  0  0.905098  0  0  0.376288  0  0.977128  0  0  0.388936  0  0.958858  0  0.634026  0  0.296077  0.367368  0  0.989988  0
H  H48  1  0.37055384  0.48051156  0.16669930  1  0  0.412288  0  0.905949  0  0  0.375992  0  0.977643  0  0  0.388652  0  0.959343  0  0.632414  0  0.295968  0.367071  0  0.990511  0
H  H49  1  0.51953648  0.62932707  0.33331492  1  0  0.41278  0  0.905127  0  0  0.376263  0  0.97716  0  0  0.388912  0  0.95889  0  0.634014  0  0.296055  0.367344  0  0.990019  0
H  H50  1  0.81420012  0.63665120  0.83146875  1  0  0.425589  0  0.874811  0  0  0.394031  0  0.939877  0  0  0.404277  0  0.924986  0  0.64791  0  0.309754  0.386758  0  0.950445  0
H  H51  1  0.36302016  0.18598707  0.66843223  1  0  0.425463  0  0.875051  0  0  0.393657  0  0.94042  0  0  0.403901  0  0.925544  0  0.6467  0  0.309529  0.386381  0  0.950986  0
H  H52  1  0.18579805  0.36334913  0.16853172  1  0  0.425585  0  0.874821  0  0  0.394035  0  0.939871  0  0  0.404281  0  0.924981  0  0.647923  0  0.309769  0.386761  0  0.95044  0
H  H53  1  0.63697986  0.81401326  0.33156708  1  0  0.425467  0  0.875043  0  0  0.393666  0  0.940405  0  0  0.403913  0  0.925525  0  0.647174  0  0.309533  0.386391  0  0.950969  0
H  H54  1  0.80455142  0.49986166  0.88519388  1  0  0.423042  0  0.881864  0  0  0.390601  0  0.948767  0  0  0.400912  0  0.93373  0  0.63973  0  0.309953  0.383279  0  0.959433  0
H  H55  1  0.50021232  0.19539486  0.61475657  1  0  0.422696  0  0.882576  0  0  0.39008  0  0.94968  0  0  0.400404  0  0.934646  0  0.640005  0  0.309683  0.382777  0  0.960301  0
H  H56  1  0.19544722  0.50013764  0.11480594  1  0  0.423047  0  0.881858  0  0  0.390612  0  0.94875  0  0  0.400924  0  0.933711  0  0.639744  0  0.309979  0.383292  0  0.959415  0
H  H57  1  0.49978678  0.80460546  0.38524370  1  0  0.422726  0  0.882535  0  0  0.390097  0  0.949665  0  0  0.400423  0  0.93463  0  0.640002  0  0.309672  0.382792  0  0.960293  0
H  H58  1  0.10762449  0.47086165  0.76462314  1  0  0.426661  0  0.874637  0  0  0.39634  0  0.93811  0  0  0.407083  0  0.922291  0  0.657115  0  0.303027  0.3887  0  0.949359  0
H  H59  1  0.52897059  0.89259553  0.73534606  1  0  0.426739  0  0.874977  0  0  0.396408  0  0.938486  0  0  0.407141  0  0.922683  0  0.656932  0  0.302814  0.388781  0  0.949715  0
H  H60  1  0.89237507  0.52913970  0.23537605  1  0  0.426665  0  0.874638  0  0  0.396346  0  0.938107  0  0  0.407089  0  0.922286  0  0.657123  0  0.303026  0.388706  0  0.949355  0
H  H61  1  0.47102850  0.10740480  0.26465422  1  0  0.4267  0  0.875024  0  0  0.39638  0  0.938513  0  0  0.407112  0  0.922712  0  0.656938  0  0.302802  0.388754  0  0.949741  0
H  H62  1  0.17749508  0.31756795  0.82526009  1  0  0.435183  0  0.864299  0  0  0.401774  0  0.932172  0  0  0.412795  0  0.915912  0  0.653227  0  0.300909  0.393927  0  0.943736  0
H  H63  1  0.68255987  0.82250181  0.67458993  1  0  0.434439  0  0.865982  0  0  0.401234  0  0.933475  0  0  0.41225  0  0.91723  0  0.652599  0  0.300593  0.393419  0  0.944981  0
H  H64  1  0.82250356  0.68243340  0.17474006  1  0  0.435149  0  0.864345  0  0  0.40174  0  0.93222  0  0  0.412762  0  0.915959  0  0.653272  0  0.300889  0.393894  0  0.943783  0
H  H65  1  0.31743923  0.17749851  0.32540957  1  0  0.434392  0  0.866036  0  0  0.401242  0  0.933454  0  0  0.412259  0  0.917208  0  0.652594  0  0.300591  0.393427  0  0.94496  0
C  C66  1  0.97560749  0.10276861  0.10899009  1  0  -0.083784  0  3.758405  0  0  -0.054397  0  3.992429  0  0  -0.065946  0  4.017294  0  -0.013183  0  -0.015062  -0.047206  0  3.975819  0
C  C67  1  0.89684240  0.02485422  0.39098948  1  0  -0.084204  0  3.761964  0  0  -0.054489  0  3.995632  0  0  -0.066055  0  4.020588  0  0.056261  0  -0.015271  -0.047303  0  3.978969  0
C  C68  1  0.02439299  0.89723069  0.89100934  1  0  -0.083756  0  3.758409  0  0  -0.054372  0  3.992434  0  0  -0.065921  0  4.0173  0  -0.013229  0  -0.015049  -0.04718  0  3.975822  0
C  C69  1  0.10315624  0.97514713  0.60901067  1  0  -0.084266  0  3.762075  0  0  -0.054529  0  3.995692  0  0  -0.066092  0  4.020636  0  0.056158  0  -0.015285  -0.047345  0  3.979035  0
C  C70  1  0.84934075  0.09722653  0.13117700  1  0  -0.03359  0  3.662876  0  0  -0.075064  0  3.91543  0  0  -0.069324  0  3.931497  0  -0.080162  0  -0.060917  -0.078323  0  3.904381  0
C  C71  1  0.90253623  0.15062833  0.36888763  1  0  -0.032239  0  3.661089  0  0  -0.073617  0  3.913737  0  0  -0.067961  0  3.929753  0  -0.07745  0  -0.060172  -0.07682  0  3.902722  0
C  C72  1  0.15066433  0.90277072  0.86882266  1  0  -0.033676  0  3.662903  0  0  -0.075176  0  3.915477  0  0  -0.069437  0  3.931543  0  -0.080083  0  -0.060993  -0.078434  0  3.904429  0
C  C73  1  0.09746240  0.84937302  0.63111253  1  0  -0.032185  0  3.66104  0  0  -0.073546  0  3.913683  0  0  -0.067893  0  3.929701  0  -0.077405  0  -0.06016  -0.07675  0  3.902668  0
C  C74  1  0.84435845  0.97102698  0.15506698  1  0  -0.094338  0  3.749323  0  0  -0.069567  0  3.996186  0  0  -0.081303  0  4.019653  0  0.004277  0  -0.019476  -0.062227  0  3.980522  0
C  C75  1  0.02923001  0.15544508  0.34500069  1  0  -0.094752  0  3.745272  0  0  -0.070188  0  3.992401  0  0  -0.081912  0  4.01585  0  0.001294  0  -0.019408  -0.062851  0  3.976736  0
C  C76  1  0.15564479  0.02897026  0.84493230  1  0  -0.094321  0  3.749291  0  0  -0.069547  0  3.996139  0  0  -0.08128  0  4.019602  0  0.004461  0  -0.01948  -0.062209  0  3.980476  0
C  C77  1  0.97076909  0.84455524  0.65499959  1  0  -0.094715  0  3.745277  0  0  -0.070145  0  3.992416  0  0  -0.08187  0  4.015867  0  0.001293  0  -0.019386  -0.062807  0  3.976751  0
C  C78  1  0.96695033  0.84911654  0.16009616  1  0  -0.03349  0  3.664487  0  0  -0.078146  0  3.924536  0  0  -0.072553  0  3.941107  0  -0.012626  0  -0.066348  -0.081277  0  3.913092  0
C  C79  1  0.15149864  0.03299602  0.33997478  1  0  -0.033828  0  3.660594  0  0  -0.078063  0  3.920406  0  0  -0.072444  0  3.936994  0  -0.011971  0  -0.066236  -0.081238  0  3.909011  0
C  C80  1  0.03305153  0.15088173  0.83990319  1  0  -0.033462  0  3.66449  0  0  -0.078083  0  3.924513  0  0  -0.072493  0  3.941094  0  -0.013126  0  -0.066287  -0.081214  0  3.913069  0
C  C81  1  0.84850045  0.96700431  0.66002626  1  0  -0.0338  0  3.660602  0  0  -0.078052  0  3.920437  0  0  -0.072426  0  3.937008  0  -0.011984  0  -0.066231  -0.081232  0  3.909046  0
C  C82  1  0.09356913  0.85357318  0.13495288  1  0  -0.099412  0  3.766232  0  0  -0.07229  0  4.006531  0  0  -0.084202  0  4.030595  0  -0.005102  0  -0.01989  -0.064805  0  3.99043  0
C  C83  1  0.14668098  0.90686931  0.36513848  1  0  -0.099282  0  3.766304  0  0  -0.072208  0  4.006832  0  0  -0.084117  0  4.030875  0  -0.005603  0  -0.019841  -0.064719  0  3.990715  0
C  C84  1  0.90643411  0.14642611  0.86504675  1  0  -0.099502  0  3.766344  0  0  -0.072393  0  4.006664  0  0  -0.084306  0  4.030729  0  -0.005049  0  -0.019933  -0.064905  0  3.990565  0
C  C85  1  0.85331903  0.09313101  0.63486006  1  0  -0.099374  0  3.766394  0  0  -0.072289  0  4.006919  0  0  -0.084202  0  4.030959  0  -0.00561  0  -0.019881  -0.064799  0  3.9908  0
C  C86  1  0.09718927  0.98044709  0.10927636  1  0  -0.032837  0  3.683159  0  0  -0.070431  0  3.929597  0  0  -0.065252  0  3.947786  0  -0.044152  0  -0.059832  -0.073334  0  3.917147  0
C  C87  1  0.01932083  0.90359659  0.39069293  1  0  -0.031972  0  3.687478  0  0  -0.070231  0  3.933693  0  0  -0.06508  0  3.951913  0  -0.07373  0  -0.059799  -0.073093  0  3.921215  0
C  C88  1  0.90281259  0.01955118  0.89072223  1  0  -0.032789  0  3.68319  0  0  -0.070378  0  3.929608  0  0  -0.0652  0  3.947802  0  -0.044122  0  -0.059802  -0.073283  0  3.91716  0
C  C89  1  0.98067827  0.09640373  0.60930811  1  0  -0.032055  0  3.6875  0  0  -0.070282  0  3.93371  0  0  -0.065121  0  3.951925  0  -0.073598  0  -0.059821  -0.073144  0  3.921231  0
C  C90  1  0.98149390  0.23774533  0.07625500  1  0  0.656685  0  3.926649  0  0  0.603117  0  4.222957  0  0  0.63641  0  4.217528  0  1.563593  0  0.213415  0.580598  0  4.225809  0
C  C91  1  0.76166863  0.01873454  0.42364102  1  0  0.65553  0  3.928752  0  0  0.60176  0  4.225277  0  0  0.635026  0  4.219872  0  1.559029  0  0.212947  0.579268  0  4.228097  0
C  C92  1  0.01850750  0.76225397  0.92374424  1  0  0.656656  0  3.926722  0  0  0.60309  0  4.223022  0  0  0.636384  0  4.217594  0  1.563589  0  0.213431  0.580571  0  4.225873  0
C  C93  1  0.23833138  0.98126578  0.57636060  1  0  0.655535  0  3.928777  0  0  0.601758  0  4.225324  0  0  0.635024  0  4.219925  0  1.559027  0  0.212913  0.579268  0  4.228142  0
C  C94  1  0.70889492  0.96869607  0.16740942  1  0  0.694611  0  3.841238  0  0  0.635464  0  4.140177  0  0  0.670437  0  4.13146  0  1.568631  0  0.237775  0.611739  0  4.145482  0
C  C95  1  0.03147569  0.29066904  0.33254418  1  0  0.694847  0  3.839987  0  0  0.636055  0  4.138664  0  0  0.671023  0  4.129953  0  1.567051  0  0.237209  0.61232  0  4.143976  0
C  C96  1  0.29110647  0.03130323  0.83259058  1  0  0.694556  0  3.841317  0  0  0.635415  0  4.140239  0  0  0.670385  0  4.131526  0  1.568693  0  0.237765  0.611691  0  4.145544  0
C  C97  1  0.96852340  0.70933128  0.66745609  1  0  0.694825  0  3.839999  0  0  0.635995  0  4.138715  0  0  0.670963  0  4.130005  0  1.567055  0  0.237191  0.612257  0  4.144031  0
C  C98  1  0.22580793  0.72488338  0.12605762  1  0  0.705966  0  3.849397  0  0  0.646782  0  4.149728  0  0  0.682049  0  4.140238  0  1.570466  0  0.233604  0.622795  0  4.155587  0
C  C99  1  0.27514865  0.77444614  0.37393982  1  0  0.706024  0  3.849081  0  0  0.646538  0  4.149929  0  0  0.68181  0  4.140423  0  1.563086  0  0.234102  0.622553  0  4.155786  0
C  C100  1  0.77419485  0.27511489  0.87394232  1  0  0.706052  0  3.849322  0  0  0.646874  0  4.149644  0  0  0.682142  0  4.140151  0  1.570338  0  0.233632  0.622884  0  4.155509  0
C  C101  1  0.72484952  0.22555213  0.62605953  1  0  0.706086  0  3.849077  0  0  0.646592  0  4.149929  0  0  0.681866  0  4.140423  0  1.562798  0  0.234134  0.622606  0  4.155786  0
O  O102  1  0.87211949  0.34816534  0.06096922  1  0  -0.687195  0  2.020379  0  0  -0.622295  0  2.25213  0  0  -0.649363  0  2.243333  0  -1.223649  0  -0.33411  -0.603231  0  2.257576  0
O  O103  1  0.65083371  0.12771312  0.43903291  1  0  -0.686216  0  2.02198  0  0  -0.621225  0  2.253813  0  0  -0.648347  0  2.245154  0  -1.224159  0  -0.334713  -0.602128  0  2.259162  0
O  O104  1  0.12788144  0.65183293  0.93903110  1  0  -0.6872  0  2.020405  0  0  -0.622297  0  2.252149  0  0  -0.649367  0  2.243353  0  -1.223679  0  -0.33414  -0.603233  0  2.257596  0
O  O105  1  0.34916400  0.87228823  0.56096667  1  0  -0.686226  0  2.022038  0  0  -0.62123  0  2.253842  0  0  -0.648354  0  2.245184  0  -1.224137  0  -0.334704  -0.602135  0  2.259189  0
O  O106  1  0.09670421  0.24159257  0.05983020  1  0  -0.676874  0  2.007764  0  0  -0.61139  0  2.2381  0  0  -0.63903  0  2.230534  0  -1.207736  0  -0.332058  -0.59195  0  2.242687  0
O  O107  1  0.75815678  0.90372586  0.43986350  1  0  -0.677563  0  2.006959  0  0  -0.612297  0  2.237328  0  0  -0.639962  0  2.229913  0  -1.205636  0  -0.333973  -0.592834  0  2.241799  0
O  O108  1  0.90329719  0.75840673  0.94016903  1  0  -0.676832  0  2.007783  0  0  -0.611348  0  2.238121  0  0  -0.638988  0  2.230555  0  -1.207711  0  -0.332034  -0.591908  0  2.242708  0
O  O109  1  0.24184369  0.09627344  0.56014132  1  0  -0.677514  0  2.006982  0  0  -0.612279  0  2.237359  0  0  -0.639915  0  2.229886  0  -1.205648  0  -0.333957  -0.592819  0  2.24183  0
O  O110  1  0.33167624  0.73302005  0.07121710  1  0  -0.686578  0  1.970348  0  0  -0.628294  0  2.223637  0  0  -0.655518  0  2.213273  0  -1.216519  0  -0.361964  -0.609  0  2.230172  0
O  O111  1  0.26640025  0.66905628  0.42854845  1  0  -0.68683  0  1.965515  0  0  -0.628831  0  2.218706  0  0  -0.655959  0  2.208275  0  -1.213505  0  -0.361205  -0.60961  0  2.225302  0
O  O112  1  0.66832792  0.26697720  0.92878354  1  0  -0.686598  0  1.970314  0  0  -0.628352  0  2.223654  0  0  -0.65556  0  2.213263  0  -1.216365  0  -0.36198  -0.609059  0  2.230192  0
O  O113  1  0.73359701  0.33094610  0.57145255  1  0  -0.686868  0  1.965438  0  0  -0.628878  0  2.218648  0  0  -0.656004  0  2.208217  0  -1.213474  0  -0.361226  -0.609656  0  2.225244  0
O  O114  1  0.22399632  0.61040478  0.17406591  1  0  -0.683031  0  2.060658  0  0  -0.603872  0  2.275303  0  0  -0.63096  0  2.262407  0  -1.212563  0  -0.309355  -0.58503  0  2.283868  0
O  O115  1  0.39020972  0.77565264  0.32582682  1  0  -0.682672  0  2.063851  0  0  -0.603028  0  2.27849  0  0  -0.630095  0  2.265626  0  -1.204916  0  -0.309211  -0.584194  0  2.287015  0
O  O116  1  0.77600508  0.38959657  0.82593290  1  0  -0.683071  0  2.060638  0  0  -0.603891  0  2.27527  0  0  -0.630982  0  2.262373  0  -1.21257  0  -0.309354  -0.585048  0  2.283835  0
O  O117  1  0.60979029  0.22434563  0.67417370  1  0  -0.68269  0  2.063916  0  0  -0.603044  0  2.278551  0  0  -0.630112  0  2.265689  0  -1.204669  0  -0.309228  -0.584212  0  2.287076  0
O  O118  1  0.60318448  0.08217201  0.15101046  1  0  -0.704429  0  2.001333  0  0  -0.637355  0  2.24235  0  0  -0.66467  0  2.231535  0  -1.230401  0  -0.347548  -0.618091  0  2.249255  0
O  O119  1  0.91765236  0.39615124  0.34893079  1  0  -0.704896  0  1.999712  0  0  -0.638142  0  2.240714  0  0  -0.665465  0  2.229898  0  -1.232182  0  -0.347896  -0.618862  0  2.247629  0
O  O120  1  0.39681738  0.91782832  0.84899001  1  0  -0.704422  0  2.001355  0  0  -0.637349  0  2.242381  0  0  -0.664666  0  2.231567  0  -1.230221  0  -0.347545  -0.618085  0  2.249284  0
O  O121  1  0.08234765  0.60384908  0.65106852  1  0  -0.704873  0  1.999705  0  0  -0.638105  0  2.240719  0  0  -0.665432  0  2.229905  0  -1.232174  0  -0.347888  -0.618823  0  2.247636  0
O  O122  1  0.70433604  0.85261189  0.19322766  1  0  -0.670625  0  2.028846  0  0  -0.593469  0  2.241888  0  0  -0.61958  0  2.229162  0  -1.200368  0  -0.300178  -0.575332  0  2.250361  0
O  O123  1  0.14787226  0.29534524  0.30653602  1  0  -0.67039  0  2.029388  0  0  -0.593688  0  2.242281  0  0  -0.6198  0  2.229589  0  -1.19462  0  -0.299364  -0.575563  0  2.250756  0
O  O124  1  0.29566674  0.14738638  0.80677304  1  0  -0.670637  0  2.028903  0  0  -0.593464  0  2.241908  0  0  -0.619583  0  2.229199  0  -1.200373  0  -0.300192  -0.575324  0  2.250369  0
O  O125  1  0.85212683  0.70465508  0.69346426  1  0  -0.670426  0  2.0294  0  0  -0.593667  0  2.242283  0  0  -0.619773  0  2.229584  0  -1.194634  0  -0.29935  -0.575542  0  2.250759  0
O  O126  1  0.65018446  0.87077806  0.90527793  1  0  -0.924253  0  1.811957  0  0  -0.867967  0  2.004138  0  0  -0.889328  0  1.970896  0  -1.325733  0  -0.654945  -0.852478  0  2.027362  0
O  O127  1  0.12943402  0.34971962  0.59449758  1  0  -0.923713  0  1.810789  0  0  -0.867377  0  2.002674  0  0  -0.88868  0  1.969579  0  -1.323054  0  -0.653683  -0.851901  0  2.025746  0
O  O128  1  0.34981555  0.12922226  0.09472215  1  0  -0.924267  0  1.811961  0  0  -0.867983  0  2.004143  0  0  -0.889342  0  1.970903  0  -1.325735  0  -0.654951  -0.852494  0  2.027367  0
O  O129  1  0.87056554  0.65028173  0.40550162  1  0  -0.923836  0  1.810597  0  0  -0.86748  0  2.002494  0  0  -0.888797  0  1.969409  0  -1.323055  0  -0.653723  -0.851994  0  2.02559  0
O  O130  1  0.61923562  0.52808607  0.10934017  1  0  -0.905644  0  1.797546  0  0  -0.847202  0  1.974096  0  0  -0.868764  0  1.940541  0  -1.29577  0  -0.614698  -0.831579  0  1.997566  0
O  O131  1  0.47220156  0.38077868  0.39068479  1  0  -0.906423  0  1.796354  0  0  -0.847501  0  1.973474  0  0  -0.869137  0  1.939769  0  -1.291429  0  -0.615065  -0.831835  0  1.997023  0
O  O132  1  0.38076440  0.47191425  0.89065991  1  0  -0.905646  0  1.797544  0  0  -0.847207  0  1.974106  0  0  -0.868767  0  1.940551  0  -1.29563  0  -0.614693  -0.831586  0  1.997578  0
O  O133  1  0.52779845  0.61922164  0.60931452  1  0  -0.906452  0  1.79631  0  0  -0.84756  0  1.973465  0  0  -0.869193  0  1.939759  0  -1.291432  0  -0.615103  -0.831895  0  1.997013  0
O  O134  1  0.49469803  0.85095090  0.12534507  1  0  -0.880215  0  1.865485  0  0  -0.816788  0  2.052631  0  0  -0.839186  0  2.019272  0  -1.306523  0  -0.601034  -0.800716  0  2.075853  0
O  O135  1  0.14921169  0.50510417  0.37443585  1  0  -0.880075  0  1.867066  0  0  -0.816568  0  2.053781  0  0  -0.838956  0  2.020377  0  -1.293208  0  -0.600825  -0.800511  0  2.077046  0
O  O136  1  0.50530153  0.14904839  0.87465532  1  0  -0.880222  0  1.865469  0  0  -0.816808  0  2.052612  0  0  -0.839204  0  2.019255  0  -1.306526  0  -0.601027  -0.800732  0  2.075821  0
O  O137  1  0.85078832  0.49489615  0.62556424  1  0  -0.880089  0  1.867023  0  0  -0.816581  0  2.053748  0  0  -0.838969  0  2.020343  0  -1.293216  0  -0.600829  -0.800525  0  2.077013  0
O  O138  1  0.54030577  0.60808515  0.83600552  1  0  -0.876652  0  1.843697  0  0  -0.813248  0  2.030046  0  0  -0.834891  0  1.99508  0  -1.295175  0  -0.592035  -0.797731  0  2.054629  0
O  O139  1  0.39188201  0.45989751  0.66394362  1  0  -0.878195  0  1.844517  0  0  -0.814174  0  2.031194  0  0  -0.835903  0  1.996315  0  -1.298358  0  -0.592569  -0.798605  0  2.055704  0
O  O140  1  0.45969378  0.39191415  0.16399487  1  0  -0.876673  0  1.843687  0  0  -0.813279  0  2.030035  0  0  -0.834918  0  1.995071  0  -1.295174  0  -0.592035  -0.797762  0  2.054618  0
O  O141  1  0.60811755  0.54010383  0.33605557  1  0  -0.878153  0  1.844583  0  0  -0.81413  0  2.031245  0  0  -0.835856  0  1.99637  0  -1.298345  0  -0.592537  -0.79856  0  2.055754  0
O  O142  1  0.79742645  0.58464364  0.90250400  1  0  -0.895532  0  1.877896  0  0  -0.835213  0  2.068362  0  0  -0.858377  0  2.039233  0  -1.296763  0  -0.605391  -0.818453  0  2.088529  0
O  O143  1  0.41509475  0.20280414  0.59738934  1  0  -0.894678  0  1.875975  0  0  -0.834166  0  2.067157  0  0  -0.857275  0  2.03788  0  -1.29587  0  -0.60457  -0.817441  0  2.087344  0
O  O144  1  0.20257125  0.41535566  0.09749678  1  0  -0.895546  0  1.87791  0  0  -0.835223  0  2.068344  0  0  -0.858384  0  2.039214  0  -1.296791  0  -0.605435  -0.818465  0  2.088508  0
O  O145  1  0.58490527  0.79719618  0.40260997  1  0  -0.894716  0  1.875944  0  0  -0.834199  0  2.067103  0  0  -0.857309  0  2.037833  0  -1.296335  0  -0.604552  -0.817473  0  2.087292  0
O  O146  1  0.12060418  0.41477293  0.83639529  1  0  -0.898001  0  1.784968  0  0  -0.842537  0  1.969062  0  0  -0.862914  0  1.935785  0  -1.330633  0  -0.631024  -0.827833  0  1.992354  0
O  O147  1  0.58510606  0.87962570  0.66345958  1  0  -0.898643  0  1.785575  0  0  -0.843507  0  1.969782  0  0  -0.863919  0  1.93664  0  -1.330111  0  -0.63235  -0.828773  0  1.992912  0
O  O148  1  0.87939537  0.58522842  0.16360467  1  0  -0.897975  0  1.785009  0  0  -0.842512  0  1.969105  0  0  -0.862891  0  1.935827  0  -1.330684  0  -0.63101  -0.827806  0  1.992397  0
O  O149  1  0.41489396  0.12037463  0.33653973  1  0  -0.898577  0  1.785654  0  0  -0.843489  0  1.969768  0  0  -0.8639  0  1.936624  0  -1.330109  0  -0.632348  -0.828754  0  1.992894  0
