# generated using pymatgen
data_ZnH9C19(NO2)5
_symmetry_space_group_name_H-M   'P 1'
_cell_length_a   12.99863164
_cell_length_b   16.07487412
_cell_length_c   17.28124806
_cell_angle_alpha   84.88035648
_cell_angle_beta   88.57471579
_cell_angle_gamma   83.95677537
_symmetry_Int_Tables_number   1
_chemical_formula_structural   ZnH9C19(NO2)5
_chemical_formula_sum   'Zn2 H18 C38 N10 O20'
_cell_volume   3576.11108658
_cell_formula_units_Z   2
loop_
 _symmetry_equiv_pos_site_id
 _symmetry_equiv_pos_as_xyz
  1  'x, y, z'
loop_
 _atom_site_type_symbol
 _atom_site_label
 _atom_site_symmetry_multiplicity
 _atom_site_fract_x
 _atom_site_fract_y
 _atom_site_fract_z
 _atom_site_occupancy
 _atom_site_pbe_bader_charge
 _atom_site_pbe_bader_spin_density
 _atom_site_pbe_cm5_charge
 _atom_site_pbe_ddec_charge
 _atom_site_pbe_ddec_spin_density
 _atom_site_pbe_ddec_sum_bond_order
 _atom_site_pbe_magmom
Zn  Zn0  1  0.49916299  0.59107529  0.49640929  1  1.304316  0  0.683521  0.84812  0  2.382022  0
Zn  Zn1  1  0.50084670  0.40892419  0.50358918  1  1.304908  0  0.683606  0.848228  0  2.381852  0
H  H2  1  0.18972215  0.42187884  0.45134615  1  0.109224  0  0.118399  0.130402  0  0.976118  0
H  H3  1  0.81029074  0.57809736  0.54865986  1  0.109314  0  0.118384  0.130416  0  0.97624  0
H  H4  1  0.03010096  0.35770357  0.41711034  1  0.117401  0  0.121458  0.134882  0  0.97262  0
H  H5  1  0.96990344  0.64227740  0.58290068  1  0.117857  0  0.121467  0.134876  0  0.972545  0
H  H6  1  0.38219280  0.58024182  0.74679070  1  0.107766  0  0.113647  0.128133  0  0.989583  0
H  H7  1  0.61780564  0.41976934  0.25320304  1  0.10793  0  0.113593  0.128097  0  0.989656  0
H  H8  1  0.38709510  0.57581263  0.89223614  1  0.117952  0  0.112581  0.11514  0  1.001808  0
H  H9  1  0.61289459  0.42420018  0.10775708  1  0.118179  0  0.112542  0.115159  0  1.001673  0
H  H10  1  0.36207748  0.62227526  0.10621181  1  0.135696  0  0.122695  0.139039  0  0.97864  0
H  H11  1  0.63789802  0.37773075  0.89379843  1  0.135987  0  0.122648  0.139074  0  0.978613  0
H  H12  1  0.55927860  0.89982423  0.39719290  1  0.131049  0  0.122953  0.136592  0  0.994054  0
H  H13  1  0.44069594  0.10018250  0.60279821  1  0.131082  0  0.123038  0.136733  0  0.993973  0
H  H14  1  0.60092514  0.13659904  0.38266317  1  0.140288  0  0.128841  0.140323  0  0.965037  0
H  H15  1  0.39908638  0.86338973  0.61734189  1  0.139718  0  0.128835  0.140305  0  0.965117  0
H  H16  1  0.57966236  0.29236662  0.39800622  1  0.168657  0  0.132334  0.112837  0  0.987284  0
H  H17  1  0.42036353  0.70762825  0.60199806  1  0.168853  0  0.132327  0.112801  0  0.987408  0
H  H18  1  0.60249727  0.73998443  0.26511764  1  0.622656  0  0.355267  0.393773  0  0.833234  0
H  H19  1  0.39749496  0.26003160  0.73487758  1  0.622709  0  0.355229  0.393585  0  0.833316  0
C  C20  1  0.49627067  0.50998932  0.34864191  1  1.626214  0  0.218685  0.602746  0  4.189584  0
C  C21  1  0.50374289  0.49001909  0.65135636  1  1.626351  0  0.218633  0.602526  0  4.190115  0
C  C22  1  0.69786309  0.47118254  0.49410565  1  1.597348  0  0.219658  0.603163  0  4.177597  0
C  C23  1  0.30214808  0.52880817  0.50589058  1  1.596805  0  0.219475  0.603074  0  4.177265  0
C  C24  1  0.18700271  0.52948633  0.51440871  1  0.018086  0  0.00123  -0.051293  0  3.92264  0
C  C25  1  0.81300103  0.47049844  0.48559625  1  0.018013  0  0.001226  -0.051278  0  3.922807  0
C  C26  1  0.98339142  0.40614287  0.44649082  1  0.079618  0  -0.068805  -0.16821  0  3.928208  0
C  C27  1  0.01662290  0.59383400  0.55351569  1  0.079521  0  -0.068918  -0.168482  0  3.928219  0
C  C28  1  0.87722935  0.40870808  0.44817098  1  0.145094  0  0.089239  0.064808  0  3.924647  0
C  C29  1  0.12278202  0.59129075  0.55183792  1  0.145826  0  0.089395  0.06494  0  3.925189  0
C  C30  1  0.85982601  0.53084161  0.51992311  1  0.071351  0  -0.059059  -0.099721  0  3.882763  0
C  C31  1  0.14018313  0.46914770  0.48008658  1  0.070998  0  -0.05907  -0.099743  0  3.882866  0
C  C32  1  0.96836575  0.53190240  0.51858997  1  -0.056709  0  0.006848  0.091575  0  4.00017  0
C  C33  1  0.03164252  0.46807370  0.48141094  1  0.003705  0  0.006544  0.091358  0  4.000232  0
C  C34  1  0.49058253  0.51536392  0.26158891  1  0.024487  0  0.004683  -0.047138  0  3.910647  0
C  C35  1  0.50942196  0.48464358  0.73841368  1  0.024023  0  0.00464  -0.046919  0  3.910425  0
C  C36  1  0.56102584  0.46276488  0.22025316  1  -0.003175  0  -0.072145  -0.072452  0  3.940306  0
C  C37  1  0.43897401  0.53724254  0.77974084  1  -0.003317  0  -0.072167  -0.072581  0  3.93992  0
C  C38  1  0.55893927  0.46546174  0.13982837  1  -0.034642  0  -0.073258  -0.126533  0  3.925052  0
C  C39  1  0.44104903  0.53455478  0.86016980  1  -0.035356  0  -0.07323  -0.126258  0  3.924154  0
C  C40  1  0.48556985  0.52211478  0.09844589  1  0.341244  0  0.089441  0.177845  0  4.048038  0
C  C41  1  0.51440999  0.47789266  0.90155490  1  0.341315  0  0.089432  0.177723  0  4.047796  0
C  C42  1  0.41764228  0.57756159  0.13833898  1  0.043279  0  -0.069786  -0.188366  0  3.922991  0
C  C43  1  0.58233409  0.42244381  0.86166957  1  0.043121  0  -0.069797  -0.188305  0  3.923268  0
C  C44  1  0.42027140  0.57256338  0.21892910  1  0.199097  0  0.081591  0.05744  0  3.937657  0
C  C45  1  0.57972497  0.42743757  0.78107706  1  0.199741  0  0.081563  0.057103  0  3.937605  0
C  C46  1  0.46059910  0.22771656  0.55889989  1  0.511341  0  0.137896  0.155011  0  3.903406  0
C  C47  1  0.53939874  0.77228451  0.44109233  1  0.511329  0  0.137812  0.154833  0  3.903657  0
C  C48  1  0.47035252  0.14117799  0.55587243  1  0.09282  0  -0.06044  -0.195341  0  3.866557  0
C  C49  1  0.52963207  0.85882397  0.44411942  1  0.092755  0  -0.060274  -0.195071  0  3.866346  0
C  C50  1  0.51848400  0.10781036  0.49035416  1  0.281148  0  0.112468  0.209807  0  4.033774  0
C  C51  1  0.48151087  0.89218556  0.50964084  1  0.2807  0  0.112336  0.209704  0  4.033244  0
C  C52  1  0.56034314  0.16161494  0.43282118  1  -0.057192  0  -0.05468  -0.164762  0  3.879682  0
C  C53  1  0.43965691  0.83838236  0.56718055  1  -0.056608  0  -0.0546  -0.164634  0  3.879446  0
C  C54  1  0.54828262  0.24746365  0.44092801  1  0.537315  0  0.072223  0.129324  0  3.869705  0
C  C55  1  0.45172617  0.75253200  0.55907251  1  0.537268  0  0.072256  0.129418  0  3.869947  0
C  C56  1  0.59992460  0.73450514  0.37487167  1  1.559028  0  0.238799  0.545692  0  4.137658  0
C  C57  1  0.40006034  0.26549935  0.62512056  1  1.558898  0  0.238678  0.54555  0  4.137258  0
N  N58  1  0.47356295  0.52856363  0.01705975  1  -0.478282  0  -0.148397  -0.135771  0  3.273925  0
N  N59  1  0.52641415  0.47144627  0.98293917  1  -0.516108  0  -0.148412  -0.13591  0  3.274024  0
N  N60  1  0.49757528  0.28025370  0.50188758  1  -1.2414  0  -0.296883  -0.21154  0  3.440964  0
N  N61  1  0.50242897  0.71975508  0.49811086  1  -1.241468  0  -0.296864  -0.21154  0  3.441335  0
N  N62  1  0.53014216  0.02110330  0.47907773  1  -0.443211  0  -0.122044  -0.105923  0  3.219445  0
N  N63  1  0.46984642  0.97890251  0.52092069  1  -0.39834  0  -0.121994  -0.10593  0  3.219031  0
N  N64  1  0.16804517  0.65209707  0.59660506  1  0.414836  0  0.058692  0.525269  0  4.222823  0
N  N65  1  0.83195631  0.34788265  0.40339108  1  0.417213  0  0.058817  0.525073  0  4.221407  0
N  N66  1  0.34127596  0.62747161  0.25853198  1  0.417789  0  0.059323  0.52304  0  4.216106  0
N  N67  1  0.65871888  0.37252930  0.74147421  1  0.418555  0  0.059298  0.523004  0  4.21632  0
O  O68  1  0.49357001  0.57919496  0.37920657  1  -1.158911  0  -0.311967  -0.543688  0  2.345989  0
O  O69  1  0.50642004  0.42081591  0.62079662  1  -1.158604  0  -0.311835  -0.543533  0  2.346526  0
O  O70  1  0.50581123  0.43650167  0.38249639  1  -1.156298  0  -0.303956  -0.537015  0  2.322998  0
O  O71  1  0.49423487  0.56351460  0.61750175  1  -1.156658  0  -0.30397  -0.536961  0  2.322782  0
O  O72  1  0.64889387  0.54270514  0.50117755  1  -1.166484  0  -0.310611  -0.54331  0  2.397178  0
O  O73  1  0.35112120  0.45728953  0.49880729  1  -1.166016  0  -0.310472  -0.543175  0  2.397163  0
O  O74  1  0.65979335  0.40151589  0.49583646  1  -1.144153  0  -0.312061  -0.534836  0  2.324452  0
O  O75  1  0.34021957  0.59847410  0.50418352  1  -1.144319  0  -0.31192  -0.534764  0  2.324398  0
O  O76  1  0.23153555  0.62293453  0.64688190  1  -0.457814  0  -0.135104  -0.339658  0  1.915845  0
O  O77  1  0.13654200  0.72729201  0.58330106  1  -0.462016  0  -0.142939  -0.341174  0  1.851785  0
O  O78  1  0.76844339  0.37705580  0.35312950  1  -0.45889  0  -0.134989  -0.339592  0  1.915525  0
O  O79  1  0.86350051  0.27268637  0.41669143  1  -0.46279  0  -0.143123  -0.341141  0  1.851215  0
O  O80  1  0.33144834  0.70284396  0.23470616  1  -0.467599  0  -0.143167  -0.338198  0  1.856056  0
O  O81  1  0.28876792  0.59378025  0.31059185  1  -0.430596  0  -0.126835  -0.31647  0  1.894915  0
O  O82  1  0.66855750  0.29716035  0.76530880  1  -0.467741  0  -0.143147  -0.338189  0  1.85629  0
O  O83  1  0.71121778  0.40621538  0.68940916  1  -0.431076  0  -0.1268  -0.316358  0  1.894916  0
O  O84  1  0.67694037  0.68506726  0.38345577  1  -1.086846  0  -0.265274  -0.437095  0  2.10002  0
O  O85  1  0.56008268  0.76678639  0.30554388  1  -1.104092  0  -0.325063  -0.466442  0  2.217449  0
O  O86  1  0.32303564  0.31492628  0.61653288  1  -1.087062  0  -0.265257  -0.437113  0  2.099809  0
O  O87  1  0.43991106  0.23322526  0.69445224  1  -1.103998  0  -0.324935  -0.466134  0  2.217278  0
