# generated using pymatgen
data_UH14(C2O)8
_symmetry_space_group_name_H-M   'P 1'
_cell_length_a   6.17532439
_cell_length_b   7.06297908
_cell_length_c   17.76130036
_cell_angle_alpha   90.00027230
_cell_angle_beta   90.00012294
_cell_angle_gamma   89.21328963
_symmetry_Int_Tables_number   1
_chemical_formula_structural   UH14(C2O)8
_chemical_formula_sum   'U2 H28 C32 O16'
_cell_volume   774.60717245
_cell_formula_units_Z   2
loop_
 _symmetry_equiv_pos_site_id
 _symmetry_equiv_pos_as_xyz
  1  'x, y, z'
loop_
 _atom_site_type_symbol
 _atom_site_label
 _atom_site_symmetry_multiplicity
 _atom_site_fract_x
 _atom_site_fract_y
 _atom_site_fract_z
 _atom_site_occupancy
 _atom_site_hle17_bader_spin_density
 _atom_site_hle17_ddec_charge
 _atom_site_hle17_ddec_spin_density
 _atom_site_hle17_ddec_sum_bond_order
 _atom_site_hle17_magmom
 _atom_site_hse06_10hf_bader_spin_density
 _atom_site_hse06_10hf_ddec_charge
 _atom_site_hse06_10hf_ddec_spin_density
 _atom_site_hse06_10hf_ddec_sum_bond_order
 _atom_site_hse06_10hf_magmom
 _atom_site_hse06_bader_spin_density
 _atom_site_hse06_ddec_charge
 _atom_site_hse06_ddec_spin_density
 _atom_site_hse06_ddec_sum_bond_order
 _atom_site_hse06_magmom
 _atom_site_pbe_bader_spin_density
 _atom_site_pbe_cm5_charge
 _atom_site_pbe_ddec_charge
 _atom_site_pbe_ddec_spin_density
 _atom_site_pbe_ddec_sum_bond_order
 _atom_site_pbe_magmom
U  U0  1  0.99999538  0.49999970  0.49999988  1  0  2.400326  0  4.100114  0  0  2.450897  0  4.745398  0  0  2.560568  0  4.713097  0  0  2.153358  2.374081  0  4.768236  0
U  U1  1  0.99999985  0.99999292  0.00000225  1  0  2.40021  0  4.100463  0  0  2.450715  0  4.745817  0  0  2.56045  0  4.713424  0  0  2.15344  2.373911  0  4.768624  0
H  H2  1  0.36249198  0.83801805  0.82936582  1  0  0.107121  0  0.942479  0  0  0.116604  0  1.002867  0  0  0.120061  0  1.000172  0  0  0.112784  0.114112  0  1.004886  0
H  H3  1  0.63750522  0.66199875  0.32936519  1  0  0.107175  0  0.942443  0  0  0.116634  0  1.002843  0  0  0.12009  0  1.000146  0  0  0.112763  0.114141  0  1.004868  0
H  H4  1  0.63750254  0.16198301  0.17063256  1  0  0.107171  0  0.942445  0  0  0.116644  0  1.002834  0  0  0.120102  0  1.000138  0  0  0.112776  0.114152  0  1.004856  0
H  H5  1  0.36248322  0.33802089  0.67063544  1  0  0.107146  0  0.942439  0  0  0.116632  0  1.002824  0  0  0.120089  0  1.000129  0  0  0.112773  0.11414  0  1.004847  0
H  H6  1  0.76914625  0.97597430  0.59430220  1  0  0.105542  0  0.95224  0  0  0.115483  0  1.014343  0  0  0.118167  0  1.013342  0  0  0.110046  0.113717  0  1.015046  0
H  H7  1  0.23083435  0.52402159  0.09430107  1  0  0.105583  0  0.952244  0  0  0.115548  0  1.014343  0  0  0.118237  0  1.013333  0  0  0.110105  0.113777  0  1.015043  0
H  H8  1  0.23084678  0.02403247  0.40569843  1  0  0.105557  0  0.952287  0  0  0.115556  0  1.014322  0  0  0.118244  0  1.013315  0  0  0.110074  0.113786  0  1.015026  0
H  H9  1  0.76917765  0.47596340  0.90569505  1  0  0.105581  0  0.952276  0  0  0.115571  0  1.014334  0  0  0.11827  0  1.013322  0  0  0.110071  0.113795  0  1.015045  0
H  H10  1  0.19405309  0.77933649  0.70507639  1  0  0.108579  0  0.94511  0  0  0.119044  0  1.005459  0  0  0.122371  0  1.003993  0  0  0.108243  0.116505  0  1.006918  0
H  H11  1  0.80594921  0.72065452  0.20507372  1  0  0.108454  0  0.945309  0  0  0.118999  0  1.005567  0  0  0.122326  0  1.00411  0  0  0.10822  0.116459  0  1.007025  0
H  H12  1  0.80595873  0.22064000  0.29492537  1  0  0.108401  0  0.945345  0  0  0.118956  0  1.005604  0  0  0.122276  0  1.004154  0  0  0.108195  0.116422  0  1.007064  0
H  H13  1  0.19405038  0.27935631  0.79492803  1  0  0.10844  0  0.945392  0  0  0.118986  0  1.005629  0  0  0.122313  0  1.00419  0  0  0.10823  0.116447  0  1.007087  0
H  H14  1  0.94083177  0.03097102  0.71927874  1  0  0.101136  0  0.945442  0  0  0.113253  0  1.003358  0  0  0.116148  0  1.001883  0  0  0.108606  0.111041  0  1.004686  0
H  H15  1  0.05916090  0.46903755  0.21928337  1  0  0.10113  0  0.945389  0  0  0.113212  0  1.003358  0  0  0.116107  0  1.001882  0  0  0.108577  0.110999  0  1.00469  0
H  H16  1  0.05916456  0.96903848  0.28071851  1  0  0.101121  0  0.945441  0  0  0.113237  0  1.003367  0  0  0.116131  0  1.001892  0  0  0.108621  0.111025  0  1.004699  0
H  H17  1  0.94084160  0.53095762  0.78071613  1  0  0.101114  0  0.945411  0  0  0.113202  0  1.003371  0  0  0.116096  0  1.001897  0  0  0.10857  0.11099  0  1.004704  0
H  H18  1  0.22105367  0.91762413  0.55693365  1  0  0.08322  0  0.92074  0  0  0.097705  0  0.979835  0  0  0.097833  0  0.978236  0  0  0.118392  0.097708  0  0.981048  0
H  H19  1  0.77894812  0.58238908  0.05694592  1  0  0.083265  0  0.920621  0  0  0.097723  0  0.979785  0  0  0.097849  0  0.978185  0  0  0.118396  0.097725  0  0.980999  0
H  H20  1  0.77894794  0.08240505  0.44305797  1  0  0.08316  0  0.920627  0  0  0.097699  0  0.979796  0  0  0.097825  0  0.978198  0  0  0.118383  0.097704  0  0.98101  0
H  H21  1  0.22107684  0.41759553  0.94306090  1  0  0.083199  0  0.920536  0  0  0.097689  0  0.979731  0  0  0.097808  0  0.978127  0  0  0.118398  0.09769  0  0.980943  0
H  H22  1  0.48307090  0.85832426  0.52072800  1  0  0.066734  0  0.935534  0  0  0.077877  0  1.002306  0  0  0.07818  0  1.000903  0  0  0.10996  0.077803  0  1.003289  0
H  H23  1  0.51692979  0.64164888  0.02072726  1  0  0.066647  0  0.935686  0  0  0.077849  0  1.002413  0  0  0.078154  0  1.001001  0  0  0.109977  0.077775  0  1.003393  0
H  H24  1  0.51692992  0.14166813  0.47927263  1  0  0.066634  0  0.93556  0  0  0.077843  0  1.002372  0  0  0.078143  0  1.000972  0  0  0.109962  0.077773  0  1.003352  0
H  H25  1  0.48307834  0.35830648  0.97927618  1  0  0.066611  0  0.935563  0  0  0.077819  0  1.002347  0  0  0.078113  0  1.000938  0  0  0.109929  0.077742  0  1.00333  0
H  H26  1  0.43863244  0.55453586  0.57277232  1  0  0.395619  0  0.891635  0  0  0.375312  0  0.956207  0  0  0.387782  0  0.942815  0  0  0.313593  0.366442  0  0.965609  0
H  H27  1  0.56134339  0.94547121  0.07276597  1  0  0.395683  0  0.891682  0  0  0.375436  0  0.956113  0  0  0.387909  0  0.942712  0  0  0.313647  0.366564  0  0.965505  0
H  H28  1  0.56135621  0.44549369  0.42722267  1  0  0.395728  0  0.891708  0  0  0.375586  0  0.955962  0  0  0.38806  0  0.94255  0  0  0.313672  0.366717  0  0.965359  0
H  H29  1  0.43862296  0.05450091  0.92722171  1  0  0.395585  0  0.891817  0  0  0.37543  0  0.956118  0  0  0.387905  0  0.942707  0  0  0.313645  0.366553  0  0.965511  0
C  C30  1  0.46936649  0.87694973  0.64180811  1  0  0.070483  0  3.722899  0  0  0.087436  0  3.962974  0  0  0.087554  0  3.986809  0  0  -0.005539  0.087638  0  3.946663  0
C  C31  1  0.53063399  0.62305186  0.14180791  1  0  0.070467  0  3.722827  0  0  0.087366  0  3.96307  0  0  0.087482  0  3.986906  0  0  -0.005564  0.087565  0  3.946758  0
C  C32  1  0.53062510  0.12306558  0.35819421  1  0  0.07041  0  3.72283  0  0  0.08745  0  3.963013  0  0  0.087569  0  3.986844  0  0  -0.00552  0.087656  0  3.946704  0
C  C33  1  0.46938455  0.37693577  0.85819610  1  0  0.070395  0  3.722774  0  0  0.087373  0  3.962991  0  0  0.087481  0  3.986818  0  0  -0.005533  0.087572  0  3.946674  0
C  C34  1  0.66327880  0.93738640  0.78204514  1  0  -0.085197  0  3.792119  0  0  -0.06003  0  4.019297  0  0  -0.070213  0  4.043551  0  0  -0.019073  -0.053442  0  4.002876  0
C  C35  1  0.33672410  0.56260840  0.28204809  1  0  -0.085212  0  3.792117  0  0  -0.060064  0  4.019328  0  0  -0.070277  0  4.043624  0  0  -0.019125  -0.053474  0  4.002904  0
C  C36  1  0.33671911  0.06262164  0.21795718  1  0  -0.085313  0  3.792232  0  0  -0.060144  0  4.019401  0  0  -0.070371  0  4.043713  0  0  -0.019073  -0.053471  0  4.002868  0
C  C37  1  0.66328170  0.43738951  0.71795423  1  0  -0.085193  0  3.791918  0  0  -0.060055  0  4.019223  0  0  -0.070283  0  4.043539  0  0  -0.019126  -0.053382  0  4.002691  0
C  C38  1  0.45087964  0.86998533  0.77804024  1  0  -0.044348  0  3.716652  0  0  -0.070893  0  3.969709  0  0  -0.068771  0  3.989189  0  0  -0.07331  -0.071952  0  3.956181  0
C  C39  1  0.54911841  0.63001097  0.27804232  1  0  -0.044448  0  3.716714  0  0  -0.070943  0  3.969756  0  0  -0.068813  0  3.989247  0  0  -0.073302  -0.072003  0  3.956228  0
C  C40  1  0.54912133  0.13001413  0.22196151  1  0  -0.044351  0  3.716747  0  0  -0.070883  0  3.969816  0  0  -0.068752  0  3.989312  0  0  -0.073255  -0.07197  0  3.956278  0
C  C41  1  0.45087153  0.37000297  0.72195944  1  0  -0.044295  0  3.716392  0  0  -0.070843  0  3.969522  0  0  -0.068712  0  3.989023  0  0  -0.073188  -0.071932  0  3.955982  0
C  C42  1  0.67967868  0.94803391  0.64597573  1  0  -0.117069  0  3.720469  0  0  -0.139816  0  3.977158  0  0  -0.14507  0  4.000029  0  0  -0.083787  -0.13637  0  3.961469  0
C  C43  1  0.32031361  0.55196229  0.14597245  1  0  -0.117169  0  3.720432  0  0  -0.13994  0  3.977113  0  0  -0.145194  0  3.999983  0  0  -0.083806  -0.136484  0  3.961416  0
C  C44  1  0.32031291  0.05198139  0.35402715  1  0  -0.117188  0  3.720532  0  0  -0.139985  0  3.9772  0  0  -0.145239  0  4.000065  0  0  -0.083822  -0.13653  0  3.961505  0
C  C45  1  0.67970162  0.44802260  0.85402761  1  0  -0.117218  0  3.720506  0  0  -0.140001  0  3.977148  0  0  -0.145266  0  4.000023  0  0  -0.083807  -0.136546  0  3.961457  0
C  C46  1  0.77137003  0.95993220  0.85552405  1  0  0.638028  0  3.888289  0  0  0.596225  0  4.190079  0  0  0.632782  0  4.183347  0  0  0.211617  0.571328  0  4.193582  0
C  C47  1  0.22862712  0.54007361  0.35552520  1  0  0.637974  0  3.888241  0  0  0.596137  0  4.190107  0  0  0.6327  0  4.183377  0  0  0.211571  0.571243  0  4.193603  0
C  C48  1  0.22864390  0.04006689  0.14447545  1  0  0.638117  0  3.888085  0  0  0.596347  0  4.189823  0  0  0.632918  0  4.183094  0  0  0.211704  0.571426  0  4.193327  0
C  C49  1  0.77136139  0.45994887  0.64447430  1  0  0.638072  0  3.888194  0  0  0.596195  0  4.190097  0  0  0.632765  0  4.183364  0  0  0.211564  0.571275  0  4.193595  0
C  C50  1  0.35544233  0.83938606  0.70839719  1  0  -0.1061  0  3.703706  0  0  -0.125278  0  3.953931  0  0  -0.129817  0  3.974967  0  0  -0.082921  -0.1224  0  3.939913  0
C  C51  1  0.64455358  0.66060800  0.20839601  1  0  -0.105901  0  3.703906  0  0  -0.125119  0  3.954097  0  0  -0.129666  0  3.975141  0  0  -0.082833  -0.12224  0  3.940078  0
C  C52  1  0.64455378  0.16061354  0.29160400  1  0  -0.105922  0  3.703894  0  0  -0.125179  0  3.954075  0  0  -0.129718  0  3.975107  0  0  -0.082891  -0.122313  0  3.940074  0
C  C53  1  0.35545384  0.33938986  0.79160969  1  0  -0.106012  0  3.703934  0  0  -0.125222  0  3.954135  0  0  -0.129777  0  3.975185  0  0  -0.082987  -0.122345  0  3.940125  0
C  C54  1  0.77651982  0.97768838  0.71568689  1  0  -0.049145  0  3.721027  0  0  -0.074418  0  3.971558  0  0  -0.072556  0  3.99162  0  0  -0.076636  -0.075342  0  3.957963  0
C  C55  1  0.22348423  0.52230554  0.21568689  1  0  -0.049059  0  3.720803  0  0  -0.074289  0  3.971343  0  0  -0.07242  0  3.991418  0  0  -0.076599  -0.075212  0  3.957742  0
C  C56  1  0.22347641  0.02231688  0.28431542  1  0  -0.048994  0  3.720904  0  0  -0.074285  0  3.971477  0  0  -0.072409  0  3.991551  0  0  -0.076643  -0.075236  0  3.957856  0
C  C57  1  0.77651836  0.47769387  0.78431318  1  0  -0.049091  0  3.720971  0  0  -0.074307  0  3.971527  0  0  -0.072434  0  3.991609  0  0  -0.076609  -0.075257  0  3.957904  0
C  C58  1  0.36848082  0.83251165  0.56681015  1  0  0.097298  0  3.611972  0  0  0.038414  0  3.879833  0  0  0.049533  0  3.882012  0  0  -0.055373  0.030551  0  3.87787  0
C  C59  1  0.63151111  0.66749206  0.06680784  1  0  0.097424  0  3.611831  0  0  0.03842  0  3.879865  0  0  0.049547  0  3.882033  0  0  -0.055399  0.030568  0  3.877892  0
C  C60  1  0.63150583  0.16749954  0.43318991  1  0  0.097747  0  3.611528  0  0  0.038456  0  3.87993  0  0  0.049579  0  3.882105  0  0  -0.05545  0.030589  0  3.877974  0
C  C61  1  0.36849918  0.33248873  0.93319391  1  0  0.0977  0  3.611508  0  0  0.038559  0  3.879805  0  0  0.049725  0  3.881927  0  0  -0.055368  0.030713  0  3.87782  0
O  O62  1  0.30426941  0.63657913  0.56450551  1  0  -0.591695  0  2.227474  0  0  -0.56038  0  2.49338  0  0  -0.587958  0  2.485432  0  0  -0.442444  -0.539745  0  2.497796  0
O  O63  1  0.69570304  0.86342369  0.06450077  1  0  -0.591904  0  2.22747  0  0  -0.560505  0  2.493302  0  0  -0.588094  0  2.485348  0  0  -0.442533  -0.539871  0  2.497717  0
O  O64  1  0.69569945  0.36343399  0.43549681  1  0  -0.592005  0  2.227517  0  0  -0.560597  0  2.493338  0  0  -0.588171  0  2.485371  0  0  -0.442453  -0.539964  0  2.497769  0
O  O65  1  0.30428798  0.13656472  0.93549591  1  0  -0.591842  0  2.227649  0  0  -0.560518  0  2.493505  0  0  -0.588118  0  2.485537  0  0  -0.442491  -0.539881  0  2.497918  0
O  O66  1  0.97417779  0.98765412  0.85994780  1  0  -0.612441  0  1.993381  0  0  -0.596621  0  2.252206  0  0  -0.628806  0  2.249718  0  0  -0.334655  -0.573789  0  2.25294  0
O  O67  1  0.02581716  0.51232348  0.35994033  1  0  -0.612485  0  1.993244  0  0  -0.596631  0  2.252053  0  0  -0.62881  0  2.249565  0  0  -0.3346  -0.573796  0  2.252785  0
O  O68  1  0.02582330  0.01235100  0.14005170  1  0  -0.612507  0  1.993189  0  0  -0.59671  0  2.25201  0  0  -0.628898  0  2.249516  0  0  -0.334731  -0.573877  0  2.252755  0
O  O69  1  0.97417547  0.48766489  0.64005579  1  0  -0.612509  0  1.993367  0  0  -0.596643  0  2.252197  0  0  -0.62882  0  2.249701  0  0  -0.334584  -0.573808  0  2.252941  0
O  O70  1  0.66406344  0.94883381  0.91799916  1  0  -0.66198  0  2.056486  0  0  -0.629559  0  2.306319  0  0  -0.66174  0  2.301816  0  0  -0.335077  -0.606751  0  2.308451  0
O  O71  1  0.33592834  0.55120410  0.41800040  1  0  -0.662037  0  2.056518  0  0  -0.629604  0  2.306286  0  0  -0.661775  0  2.301776  0  0  -0.335101  -0.606798  0  2.308419  0
O  O72  1  0.33594404  0.05116689  0.08199921  1  0  -0.662003  0  2.056555  0  0  -0.629587  0  2.306423  0  0  -0.661753  0  2.301888  0  0  -0.335093  -0.606781  0  2.308567  0
O  O73  1  0.66405861  0.44882125  0.58199966  1  0  -0.662027  0  2.056459  0  0  -0.629563  0  2.306395  0  0  -0.661724  0  2.301862  0  0  -0.335079  -0.606756  0  2.308538  0
O  O74  1  0.89836864  0.74085348  0.49125777  1  0  -0.70578  0  1.544046  0  0  -0.705708  0  1.825096  0  0  -0.725677  0  1.812663  0  0  -0.761122  -0.694007  0  1.834328  0
O  O75  1  0.10163578  0.75914675  0.99125640  1  0  -0.705825  0  1.544212  0  0  -0.7057  0  1.825231  0  0  -0.725685  0  1.812786  0  0  -0.761168  -0.694002  0  1.834458  0
O  O76  1  0.10161092  0.25912959  0.50874229  1  0  -0.705918  0  1.544039  0  0  -0.705819  0  1.825072  0  0  -0.725792  0  1.812637  0  0  -0.761104  -0.694116  0  1.834305  0
O  O77  1  0.89840262  0.24086014  0.00874648  1  0  -0.705801  0  1.544157  0  0  -0.705679  0  1.825191  0  0  -0.725669  0  1.812749  0  0  -0.761085  -0.693977  0  1.834419  0
