# generated using pymatgen
data_Zn2H20C29N8
_symmetry_space_group_name_H-M   'P 1'
_cell_length_a   14.70003742
_cell_length_b   15.10661700
_cell_length_c   24.59956602
_cell_angle_alpha   90.37644215
_cell_angle_beta   89.88170338
_cell_angle_gamma   103.93516390
_symmetry_Int_Tables_number   1
_chemical_formula_structural   Zn2H20C29N8
_chemical_formula_sum   'Zn8 H80 C116 N32'
_cell_volume   5301.88168583
_cell_formula_units_Z   4
loop_
 _symmetry_equiv_pos_site_id
 _symmetry_equiv_pos_as_xyz
  1  'x, y, z'
loop_
 _atom_site_type_symbol
 _atom_site_label
 _atom_site_symmetry_multiplicity
 _atom_site_fract_x
 _atom_site_fract_y
 _atom_site_fract_z
 _atom_site_occupancy
 _atom_site_pbe_bader_charge
 _atom_site_pbe_bader_spin_density
 _atom_site_pbe_cm5_charge
 _atom_site_pbe_ddec_charge
 _atom_site_pbe_ddec_spin_density
 _atom_site_pbe_ddec_sum_bond_order
 _atom_site_pbe_magmom
Zn  Zn0  1  0.57099104  0.41602751  0.42472788  1  1.188512  0  0.738425  0.62807  0  2.365184  0
Zn  Zn1  1  0.41598296  0.53427876  0.43646614  1  1.186613  0  0.744919  0.622347  0  2.416764  0
Zn  Zn2  1  0.08001864  0.94968712  0.93795337  1  1.187071  0  0.745273  0.629631  0  2.391599  0
Zn  Zn3  1  0.93347373  0.07528173  0.92083552  1  1.185711  0  0.74153  0.62756  0  2.386397  0
Zn  Zn4  1  0.42276709  0.53562699  0.56933633  1  1.186878  0  0.744631  0.621964  0  2.419991  0
Zn  Zn5  1  0.56332884  0.39844987  0.56006847  1  1.186085  0  0.743801  0.618584  0  2.440499  0
Zn  Zn6  1  0.92795240  0.08840070  0.05639768  1  1.185488  0  0.742921  0.617258  0  2.441842  0
Zn  Zn7  1  0.06856187  0.95249222  0.07115287  1  1.186808  0  0.746285  0.62284  0  2.424552  0
H  H8  1  0.68820631  0.52682934  0.31435578  1  0.094996  0  0.115478  0.103282  0  1.00057  0
H  H9  1  0.14314647  0.28799963  0.67167655  1  0.048067  0  0.097319  0.097626  0  1.002097  0
H  H10  1  0.34804567  0.18779508  0.17203935  1  0.045443  0  0.097021  0.097191  0  1.003571  0
H  H11  1  0.71468984  0.92594020  0.25509980  1  0.039984  0  0.099119  0.09938  0  0.997584  0
H  H12  1  0.40979777  0.23356268  0.26307518  1  0.044397  0  0.094768  0.092068  0  1.011441  0
H  H13  1  0.60742140  0.80507581  0.30756651  1  0.04263  0  0.096253  0.092805  0  1.013955  0
H  H14  1  0.85982867  0.67991635  0.82175541  1  0.083936  0  0.096489  0.094972  0  1.01735  0
H  H15  1  0.08510562  0.24112188  0.76335153  1  0.044947  0  0.094367  0.091905  0  1.012549  0
H  H16  1  0.16472048  0.33228835  0.29967584  1  0.026087  0  0.097327  0.096682  0  1.005029  0
H  H17  1  0.69840276  0.59961092  0.21475856  1  0.079294  0  0.099367  0.099079  0  0.998007  0
H  H18  1  0.81439526  0.88076020  0.70844100  1  0.0493  0  0.100553  0.100178  0  0.996698  0
H  H19  1  0.24559562  0.40883075  0.37755603  1  0.089835  0  0.115338  0.101244  0  1.007114  0
H  H20  1  0.33814864  0.15531625  0.79708936  1  0.053283  0  0.097386  0.096708  0  1.005095  0
H  H21  1  0.69830123  0.76041146  0.65914100  1  0.036237  0  0.096522  0.093121  0  1.016552  0
H  H22  1  0.39624672  0.20258476  0.70559137  1  0.056408  0  0.095244  0.093028  0  1.009524  0
H  H23  1  0.10254039  0.28548757  0.20889727  1  0.042188  0  0.09606  0.094694  0  1.008907  0
H  H24  1  0.80476215  0.72085465  0.16156150  1  0.050068  0  0.095908  0.091815  0  1.020709  0
H  H25  1  0.67568907  0.07023278  0.56751145  1  0.052138  0  0.095105  0.092703  0  1.010491  0
H  H26  1  0.65471626  0.90398032  0.57262052  1  0.072372  0  0.095634  0.095466  0  1.006957  0
H  H27  1  0.83860696  0.58220570  0.07306028  1  0.034788  0  0.096233  0.096566  0  1.005652  0
H  H28  1  0.82029672  0.41628791  0.06617764  1  0.05175  0  0.096123  0.093824  0  1.009637  0
H  H29  1  0.55207888  0.87696031  0.40796335  1  0.05334  0  0.09552  0.092943  0  1.01552  0
H  H30  1  0.24814771  0.06384525  0.87118066  1  0.070203  0  0.115403  0.101364  0  1.001415  0
H  H31  1  0.57300590  0.04292502  0.40291141  1  0.052322  0  0.095494  0.093303  0  1.008739  0
H  H32  1  0.92211926  0.44633346  0.90129826  1  0.031106  0  0.095411  0.093369  0  1.008263  0
H  H33  1  0.94106123  0.61191070  0.90836857  1  0.038029  0  0.095007  0.091445  0  1.019812  0
H  H34  1  0.52440994  0.65966695  0.66992969  1  0.091378  0  0.117376  0.104748  0  0.996463  0
H  H35  1  0.43076205  0.21920778  0.60737623  1  0.064204  0  0.11471  0.10064  0  1.005945  0
H  H36  1  0.05958842  0.26332098  0.11333639  1  0.071758  0  0.115372  0.10002  0  1.004369  0
H  H37  1  0.96326919  0.83394177  0.17096736  1  0.088631  0  0.117148  0.103828  0  0.995992  0
H  H38  1  0.56421963  0.72081453  0.41045776  1  0.08383  0  0.111187  0.096252  0  1.048248  0
H  H39  1  0.62502076  0.21389189  0.39843036  1  0.097033  0  0.114013  0.100197  0  1.003168  0
H  H40  1  0.88248723  0.27863818  0.89508403  1  0.078413  0  0.114288  0.100348  0  1.003985  0
H  H41  1  0.82291166  0.97083939  0.80785421  1  0.09512  0  0.112504  0.100124  0  1.013761  0
H  H42  1  0.92745639  0.76562672  0.91220439  1  0.118118  0  0.11027  0.093207  0  1.057776  0
H  H43  1  0.73836669  0.56612383  0.59005830  1  0.074458  0  0.111579  0.100534  0  1.03996  0
H  H44  1  0.20860074  0.58373659  0.59390217  1  0.089927  0  0.115248  0.105562  0  0.996975  0
H  H45  1  0.28481074  0.90511054  0.09784223  1  0.068095  0  0.114658  0.105009  0  0.997438  0
H  H46  1  0.75203623  0.91453559  0.07894185  1  0.093165  0  0.111289  0.100295  0  1.042804  0
H  H47  1  0.54765473  0.74766784  0.58537962  1  0.05091  0  0.110629  0.091758  0  1.027792  0
H  H48  1  0.61421008  0.20264749  0.57397743  1  0.067141  0  0.114279  0.099735  0  1.004874  0
H  H49  1  0.87450105  0.28229631  0.07078178  1  0.082961  0  0.11455  0.099218  0  1.00536  0
H  H50  1  0.94590466  0.74033177  0.08675158  1  0.06775  0  0.11023  0.091741  0  1.027615  0
H  H51  1  0.75519744  0.58166791  0.41440840  1  0.114661  0  0.113237  0.100489  0  1.034823  0
H  H52  1  0.01879011  0.55034351  0.51789384  1  0.061209  0  0.095433  0.098836  0  1.017635  0
H  H53  1  0.21290317  0.58230943  0.41835975  1  0.075971  0  0.112877  0.099379  0  1.015902  0
H  H54  1  0.27722114  0.89337950  0.92224332  1  0.109668  0  0.115572  0.105119  0  1.011565  0
H  H55  1  0.74978883  0.91526965  0.90282736  1  0.098334  0  0.110483  0.097008  0  1.056222  0
H  H56  1  0.68938923  0.45850030  0.67199155  1  0.078585  0  0.117111  0.104624  0  0.993401  0
H  H57  1  0.24916855  0.40603343  0.61352998  1  0.10271  0  0.113774  0.098501  0  1.012924  0
H  H58  1  0.24545211  0.08037218  0.10996353  1  0.113789  0  0.113381  0.098542  0  1.019042  0
H  H59  1  0.78514352  0.02282708  0.16056403  1  0.096119  0  0.117187  0.103885  0  0.992931  0
H  H60  1  0.46232439  0.66399348  0.32612132  1  0.06038  0  0.116633  0.104063  0  0.996545  0
H  H61  1  0.45716114  0.25645234  0.35371734  1  0.089794  0  0.11235  0.09595  0  1.012797  0
H  H62  1  0.05477676  0.23805082  0.85869501  1  0.064365  0  0.112767  0.097438  0  1.011854  0
H  H63  1  0.91501512  0.62930812  0.55151243  1  0.027032  0  0.094402  0.094791  0  1.014022  0
H  H64  1  0.02437381  0.80817527  0.83213313  1  0.096327  0  0.117081  0.104598  0  0.995795  0
H  H65  1  0.14305989  0.69355338  0.37938640  1  0.037498  0  0.093232  0.086235  0  1.025376  0
H  H66  1  0.27416423  0.81928879  0.34921095  1  0.047968  0  0.09398  0.08702  0  1.003296  0
H  H67  1  0.33400387  0.95368955  0.40976987  1  0.068086  0  0.097187  0.091925  0  1.003981  0
H  H68  1  0.25880036  0.96225358  0.49962190  1  0.077839  0  0.101413  0.097164  0  0.99384  0
H  H69  1  0.12725241  0.83592570  0.52989677  1  0.036597  0  0.099364  0.098579  0  0.998873  0
H  H70  1  0.86056101  0.80767278  0.45517477  1  0.066794  0  0.101297  0.101572  0  0.999554  0
H  H71  1  0.82112681  0.86656628  0.36585230  1  0.057064  0  0.097718  0.093318  0  0.998066  0
H  H72  1  0.86307822  0.79859823  0.28016466  1  0.091015  0  0.089568  0.084333  0  1.074142  0
H  H73  1  0.94066850  0.66961165  0.28286634  1  0.047524  0  0.091826  0.085122  0  1.006153  0
H  H74  1  0.58448070  0.83259820  0.03811499  1  0.072152  0  0.096668  0.09982  0  1.00811  0
H  H75  1  0.98084438  0.61170178  0.37224045  1  0.048548  0  0.095488  0.09255  0  1.010726  0
H  H76  1  0.59764119  0.71300241  0.88778929  1  0.081114  0  0.105174  0.108894  0  0.984628  0
H  H77  1  0.63548300  0.73466583  0.78933221  1  0.063895  0  0.094392  0.092026  0  1.050912  0
H  H78  1  0.62954724  0.87983461  0.74431599  1  0.058661  0  0.092232  0.0864  0  1.018473  0
H  H79  1  0.58583561  0.00423541  0.79796028  1  0.036487  0  0.09622  0.092385  0  1.001219  0
H  H80  1  0.54599637  0.98107989  0.89621440  1  0.063556  0  0.101568  0.105105  0  0.991545  0
H  H81  1  0.40591724  0.80564074  0.85571229  1  0.061003  0  0.092912  0.094099  0  1.048112  0
H  H82  1  0.27056619  0.70317388  0.81102945  1  0.03756  0  0.095709  0.091357  0  0.999997  0
H  H83  1  0.15140393  0.59396472  0.86571854  1  0.04775  0  0.094652  0.088674  0  1.006317  0
H  H84  1  0.17258450  0.58596798  0.96591201  1  0.059063  0  0.101216  0.099723  0  0.992677  0
H  H85  1  0.47066296  0.92247839  0.02894152  1  0.038291  0  0.096063  0.100416  0  1.013923  0
H  H86  1  0.30952999  0.68861666  0.01081297  1  0.077204  0  0.099275  0.098592  0  1.000216  0
H  H87  1  0.74371002  0.56012471  0.77282969  1  0.037044  0  0.099828  0.101834  0  0.996831  0
C  C88  1  0.62464704  0.54878906  0.32343635  1  0.355711  0  0.004221  -0.056733  0  3.999043  0
C  C89  1  0.62336190  0.16654899  0.48540730  1  -0.018816  0  -0.038533  -0.039524  0  4.092534  0
C  C90  1  0.87780270  0.77776442  0.41720611  1  -0.001265  0  -0.087844  -0.124707  0  3.969242  0
C  C91  1  0.85603415  0.81055980  0.36729579  1  -0.109273  0  -0.093639  -0.076357  0  4.024338  0
C  C92  1  0.87957682  0.77238671  0.31901175  1  -0.017598  0  -0.100562  -0.088994  0  4.028019  0
C  C93  1  0.92353894  0.70021052  0.32067928  1  -0.144506  0  -0.103498  -0.093822  0  4.063191  0
C  C94  1  0.94616169  0.66787475  0.37057037  1  -0.027712  0  -0.097847  -0.143649  0  4.011035  0
C  C95  1  0.56937151  0.84548331  0.89820015  1  -0.094804  0  -0.003832  0.087766  0  3.991057  0
C  C96  1  0.59517529  0.77664261  0.86784162  1  -0.056222  0  -0.086243  -0.127137  0  3.953694  0
C  C97  1  0.61616947  0.78887527  0.81265759  1  -0.007593  0  -0.094491  -0.076554  0  4.019045  0
C  C98  1  0.61273123  0.87056348  0.78741196  1  -0.136445  0  -0.102743  -0.102225  0  4.052554  0
C  C99  1  0.58823851  0.94018402  0.81750171  1  -0.01852  0  -0.103583  -0.101665  0  4.074331  0
C  C100  1  0.87405747  0.32192811  0.98264915  1  0.029893  0  -0.03837  -0.040201  0  4.096146  0
C  C101  1  0.56605378  0.92741725  0.87254199  1  -0.005559  0  -0.093996  -0.142946  0  3.9877  0
C  C102  1  0.36794040  0.75482180  0.93687650  1  -0.074067  0  -0.008709  0.075417  0  3.972425  0
C  C103  1  0.35626422  0.75686369  0.88023040  1  -0.009928  0  -0.09918  -0.142168  0  3.988846  0
C  C104  1  0.27894989  0.69931191  0.85495314  1  -0.086884  0  -0.102983  -0.094168  0  4.064055  0
C  C105  1  0.21223294  0.63812068  0.88548597  1  -0.022422  0  -0.10281  -0.100884  0  4.059036  0
C  C106  1  0.22411768  0.63370938  0.94166299  1  -0.076715  0  -0.095807  -0.082472  0  4.039526  0
C  C107  1  0.30121674  0.69114644  0.96684953  1  -0.020618  0  -0.09118  -0.126123  0  3.97553  0
C  C108  1  0.91970956  0.70979649  0.99736355  1  -0.043268  0  -0.038805  -0.042824  0  4.085949  0
C  C109  1  0.78854724  0.59943188  0.50426052  1  0.029281  0  -0.038292  0.017948  0  4.089766  0
C  C110  1  0.17058911  0.59058301  0.50566656  1  0.004726  0  -0.041804  0.019348  0  4.125091  0
C  C111  1  0.32125009  0.89130566  0.00959582  1  0.035831  0  -0.041943  0.015612  0  4.131218  0
C  C112  1  0.70830356  0.88953284  0.99127165  1  0.046885  0  -0.038306  0.021352  0  4.084798  0
C  C113  1  0.05216199  0.67705584  0.47877963  1  -0.038582  0  -0.008195  0.019489  0  3.9915  0
C  C114  1  0.95188175  0.67594310  0.47241675  1  0.062538  0  -0.018457  0.003606  0  4.007228  0
C  C115  1  0.54328655  0.83248957  0.95656874  1  -0.027277  0  -0.018094  0.004249  0  4.002511  0
C  C116  1  0.30494894  0.37775465  0.37932193  1  0.377441  0  0.004434  -0.052346  0  3.965068  0
C  C117  1  0.44205706  0.82090292  0.96806625  1  0.029732  0  -0.008236  0.020313  0  3.969775  0
C  C118  1  0.07587882  0.60487154  0.50249205  1  -0.020683  0  -0.092849  -0.172476  0  3.977774  0
C  C119  1  0.88779727  0.64009842  0.51134794  1  -0.054523  0  -0.096071  -0.176375  0  4.01206  0
C  C120  1  0.60926480  0.84565939  0.99627554  1  -0.03374  0  -0.097529  -0.179936  0  4.025756  0
C  C121  1  0.41563786  0.87730782  0.00510398  1  -0.075881  0  -0.093426  -0.176579  0  3.983686  0
C  C122  1  0.76028595  0.63014317  0.75806372  1  -0.016445  0  -0.096111  -0.137336  0  4.010957  0
C  C123  1  0.18685522  0.25967357  0.69920110  1  0.002197  0  -0.098269  -0.136528  0  4.010158  0
C  C124  1  0.30682480  0.21893878  0.19996526  1  -0.032762  0  -0.098373  -0.136898  0  4.008669  0
C  C125  1  0.70978657  0.85436115  0.24534514  1  -0.030794  0  -0.094886  -0.135282  0  4.005671  0
C  C126  1  0.34160685  0.24448270  0.25178582  1  -0.028795  0  -0.098032  -0.133  0  4.004698  0
C  C127  1  0.19357778  0.10067838  0.87612476  1  0.414193  0  0.007338  -0.046287  0  3.963663  0
C  C128  1  0.64944802  0.78627774  0.27478623  1  -0.084029  0  -0.093435  -0.131367  0  3.999769  0
C  C129  1  0.82588633  0.69754445  0.78534418  1  -0.09999  0  -0.094457  -0.132388  0  3.997776  0
C  C130  1  0.15434555  0.23373166  0.75127817  1  -0.068511  0  -0.097664  -0.13211  0  4.004847  0
C  C131  1  0.29179890  0.28531448  0.28951490  1  -0.049339  0  -0.01317  0.082116  0  4.040215  0
C  C132  1  0.64695123  0.69356942  0.26592261  1  0.036059  0  -0.009833  0.084803  0  4.051809  0
C  C133  1  0.84432924  0.78932792  0.76910681  1  -0.019589  0  -0.009666  0.084622  0  4.053088  0
C  C134  1  0.20773741  0.19649468  0.78833028  1  -0.032127  0  -0.012539  0.082149  0  4.041965  0
C  C135  1  0.20591922  0.30084058  0.27194888  1  -0.004115  0  -0.097687  -0.134362  0  4.005139  0
C  C136  1  0.70235894  0.67124326  0.22381507  1  -0.029882  0  -0.093409  -0.130393  0  4.006441  0
C  C137  1  0.79848820  0.81049653  0.72270636  1  0.032295  0  -0.093092  -0.131623  0  4.013256  0
C  C138  1  0.88143477  0.94288619  0.81967998  1  0.424621  0  0.004274  -0.054812  0  3.996674  0
C  C139  1  0.29438036  0.18390971  0.76979905  1  -0.052913  0  -0.097207  -0.134806  0  4.009426  0
C  C140  1  0.73305145  0.74335371  0.69540165  1  -0.076695  0  -0.094692  -0.134181  0  4.004285  0
C  C141  1  0.32696734  0.20985272  0.71773096  1  -0.051541  0  -0.096488  -0.129876  0  4.003346  0
C  C142  1  0.17096389  0.27515418  0.22018142  1  -0.044188  0  -0.096935  -0.13299  0  4.004784  0
C  C143  1  0.76218332  0.73907915  0.19420422  1  -0.047685  0  -0.095445  -0.134053  0  4.007163  0
C  C144  1  0.55423249  0.60113732  0.66383234  1  0.359233  0  0.00621  -0.052701  0  4.001461  0
C  C145  1  0.39523842  0.27396405  0.60241429  1  0.354031  0  0.004128  -0.052657  0  3.970714  0
C  C146  1  0.09600653  0.20975099  0.10596062  1  0.462707  0  0.007632  -0.045041  0  3.962601  0
C  C147  1  0.93052896  0.88952827  0.16216495  1  0.414217  0  0.00624  -0.052493  0  3.999976  0
C  C148  1  0.71071316  0.65243556  0.71349343  1  -0.002697  0  -0.014044  0.075371  0  4.063193  0
C  C149  1  0.63745525  0.58566788  0.68517243  1  0.032364  0  -0.038942  -0.04581  0  4.107491  0
C  C150  1  0.27496411  0.24995135  0.68136364  1  -0.007334  0  -0.013207  0.07979  0  4.041495  0
C  C151  1  0.21980294  0.23242256  0.18295276  1  0.012221  0  -0.012217  0.082848  0  4.041148  0
C  C152  1  0.76991589  0.83198393  0.20588437  1  -0.045878  0  -0.01432  0.075377  0  4.064351  0
C  C153  1  0.64795593  0.02802189  0.53233680  1  -0.07492  0  -0.099256  -0.137262  0  4.015287  0
C  C154  1  0.63629105  0.93400028  0.53519807  1  -0.030415  0  -0.098522  -0.136047  0  4.011974  0
C  C155  1  0.85760536  0.55281096  0.03527739  1  -0.047473  0  -0.098001  -0.1358  0  4.008946  0
C  C156  1  0.84735117  0.45901158  0.03136451  1  -0.048029  0  -0.099514  -0.136738  0  4.012132  0
C  C157  1  0.59982335  0.87685365  0.49105177  1  0.012761  0  -0.011518  0.08562  0  4.044284  0
C  C158  1  0.62367112  0.06978710  0.48532686  1  0.024937  0  -0.015294  0.078751  0  4.056294  0
C  C159  1  0.87234503  0.41824227  0.98376371  1  0.031228  0  -0.01584  0.077714  0  4.059826  0
C  C160  1  0.31720189  0.29012562  0.63041455  1  0.078113  0  -0.034946  -0.034493  0  4.063548  0
C  C161  1  0.89343377  0.61057702  0.99165683  1  0.061361  0  -0.012137  0.084765  0  4.046987  0
C  C162  1  0.58120657  0.91921289  0.44286387  1  -0.079276  0  -0.095701  -0.131391  0  4.001412  0
C  C163  1  0.59275530  0.01319484  0.44007070  1  -0.077824  0  -0.098702  -0.136505  0  4.016163  0
C  C164  1  0.90221578  0.47533034  0.93896439  1  -0.112531  0  -0.098537  -0.135191  0  4.013936  0
C  C165  1  0.91250539  0.56904882  0.94287618  1  -0.004287  0  -0.096476  -0.133174  0  4.003765  0
C  C166  1  0.55279349  0.71246057  0.45388046  1  0.361305  0  0.005413  -0.046127  0  3.952952  0
C  C167  1  0.62076990  0.22592876  0.44185495  1  0.37946  0  0.002614  -0.056719  0  3.994495  0
C  C168  1  0.88210591  0.26474813  0.93837633  1  0.369646  0  0.003305  -0.057599  0  3.995197  0
C  C169  1  0.93948490  0.77445676  0.95555533  1  0.427403  0  0.00524  -0.045756  0  3.958954  0
C  C170  1  0.72758687  0.55983564  0.54645074  1  0.402886  0  0.007285  -0.045852  0  3.935422  0
C  C171  1  0.17568840  0.19356894  0.13197142  1  -0.055209  0  -0.034453  -0.034976  0  4.06234  0
C  C172  1  0.22483113  0.57998312  0.55096878  1  0.38217  0  0.000945  -0.071022  0  3.997323  0
C  C173  1  0.26810253  0.90586942  0.05485596  1  0.401275  0  0.00017  -0.071876  0  3.997827  0
C  C174  1  0.76609509  0.92488647  0.03585711  1  0.383679  0  0.005397  -0.049863  0  3.93681  0
C  C175  1  0.54603657  0.72555413  0.54322987  1  0.436457  0  0.005359  -0.050605  0  3.969696  0
C  C176  1  0.61698258  0.22068410  0.53122921  1  0.427327  0  0.003263  -0.058847  0  4.00794  0
C  C177  1  0.87665463  0.26615768  0.02777925  1  0.388989  0  0.003051  -0.057077  0  4.006073  0
C  C178  1  0.94721917  0.76207209  0.04472983  1  0.400163  0  0.005731  -0.050549  0  3.972968  0
C  C179  1  0.73652333  0.56795886  0.45671395  1  0.378131  0  0.012991  -0.035055  0  3.915955  0
C  C180  1  0.22759900  0.58016936  0.46147302  1  0.428146  0  0.004548  -0.058471  0  4.001399  0
C  C181  1  0.26342981  0.89916884  0.96532936  1  0.377711  0  0.008628  -0.049596  0  3.980641  0
C  C182  1  0.84227433  0.90039678  0.17855180  1  -0.016158  0  -0.038994  -0.046908  0  4.104334  0
C  C183  1  0.76393460  0.92536018  0.94589685  1  0.415766  0  0.008384  -0.042136  0  3.927418  0
C  C184  1  0.63732535  0.49790694  0.66609605  1  0.405558  0  0.002596  -0.061631  0  4.017546  0
C  C185  1  0.30203880  0.36846008  0.60499115  1  0.381328  0  0.004769  -0.048117  0  3.963805  0
C  C186  1  0.19147513  0.11739881  0.10380747  1  0.382011  0  0.002873  -0.051758  0  3.965969  0
C  C187  1  0.84044982  0.98646900  0.15817769  1  0.414102  0  0.004159  -0.057861  0  4.014468  0
C  C188  1  0.51052912  0.61994682  0.32997453  1  0.429441  0  0.001886  -0.064908  0  4.021414  0
C  C189  1  0.41310494  0.30084240  0.36693919  1  0.349236  0  0.0037  -0.052234  0  3.976204  0
C  C190  1  0.09424490  0.18834840  0.86925728  1  0.433659  0  0.001459  -0.055947  0  3.980163  0
C  C191  1  0.98269300  0.85862553  0.83286862  1  0.367964  0  0.001804  -0.064844  0  4.021006  0
C  C192  1  0.59493196  0.62353368  0.30241553  1  -0.009298  0  -0.038442  -0.043781  0  4.102324  0
C  C193  1  0.57282217  0.77754264  0.49597192  1  0.016088  0  -0.037103  -0.04153  0  4.079192  0
C  C194  1  0.33140703  0.31604984  0.34296253  1  0.053522  0  -0.033476  -0.030697  0  4.058966  0
C  C195  1  0.17053252  0.16678911  0.84224143  1  0.004891  0  -0.033186  -0.030114  0  4.063337  0
C  C196  1  0.90228539  0.86082596  0.80288566  1  -0.030425  0  -0.039929  -0.045518  0  4.101593  0
C  C197  1  0.12644588  0.75496562  0.45719083  1  -0.005346  0  -0.007512  0.079744  0  3.977921  0
C  C198  1  0.16835913  0.75210690  0.40610495  1  -0.034356  0  -0.095384  -0.133195  0  4.003618  0
C  C199  1  0.24217094  0.82314113  0.38897163  1  -0.030007  0  -0.101605  -0.091394  0  4.057884  0
C  C200  1  0.27551896  0.89864197  0.42266563  1  -0.05282  0  -0.098815  -0.092022  0  4.046397  0
C  C201  1  0.23329016  0.90329290  0.47316000  1  -0.094857  0  -0.094797  -0.081864  0  4.042865  0
C  C202  1  0.15923708  0.83228300  0.49012665  1  -0.049968  0  -0.090482  -0.129444  0  3.97513  0
C  C203  1  0.92410765  0.70676334  0.41934038  1  -0.021345  0  -0.010845  0.07895  0  4.008096  0
N  N204  1  0.56342002  0.50527808  0.36094254  1  -0.786394  0  -0.265981  -0.182451  0  3.518093  0
N  N205  1  0.61376093  0.30830256  0.46041859  1  -0.767452  0  -0.266154  -0.180557  0  3.519475  0
N  N206  1  0.88859746  0.18209195  0.95591798  1  -0.733597  0  -0.266675  -0.175898  0  3.527244  0
N  N207  1  0.97753551  0.85785097  0.97650367  1  -0.790925  0  -0.279686  -0.183252  0  3.602693  0
N  N208  1  0.64767581  0.50762203  0.52564915  1  -0.782092  0  -0.285595  -0.190557  0  3.627001  0
N  N209  1  0.30812906  0.56632395  0.53472532  1  -0.810039  0  -0.272059  -0.176233  0  3.565338  0
N  N210  1  0.18493187  0.91960742  0.03861043  1  -0.732341  0  -0.272052  -0.18261  0  3.549957  0
N  N211  1  0.84720841  0.97957630  0.01836769  1  -0.791194  0  -0.284051  -0.188258  0  3.625055  0
N  N212  1  0.51127913  0.63733280  0.52961221  1  -0.796108  0  -0.278658  -0.177451  0  3.614958  0
N  N213  1  0.61113149  0.30459022  0.51622469  1  -0.787084  0  -0.275885  -0.176323  0  3.566309  0
N  N214  1  0.88531257  0.18329590  0.01174346  1  -0.83548  0  -0.275271  -0.175974  0  3.567512  0
N  N215  1  0.36792868  0.39981741  0.42023717  1  -0.759786  0  -0.28526  -0.189759  0  3.548955  0
N  N216  1  0.98200469  0.85006979  0.03134453  1  -0.785916  0  -0.281248  -0.178569  0  3.629571  0
N  N217  1  0.65372224  0.51238009  0.47044999  1  -0.813092  0  -0.280258  -0.18314  0  3.642405  0
N  N218  1  0.30930827  0.56565701  0.47901699  1  -0.776475  0  -0.275532  -0.175848  0  3.569772  0
N  N219  1  0.18296206  0.91639012  0.98280611  1  -0.848622  0  -0.272821  -0.172471  0  3.565167  0
N  N220  1  0.84557866  0.97925251  0.96311131  1  -0.812325  0  -0.284032  -0.185853  0  3.661119  0
N  N221  1  0.56176692  0.46501758  0.63433732  1  -0.789842  0  -0.27464  -0.189558  0  3.492165  0
N  N222  1  0.36832127  0.39854802  0.56678078  1  -0.803591  0  -0.285706  -0.198126  0  3.560761  0
N  N223  1  0.12399989  0.08831263  0.06589199  1  -0.766869  0  -0.288724  -0.201429  0  3.553663  0
N  N224  1  0.91963956  0.02221316  0.13012024  1  -0.799832  0  -0.277231  -0.19012  0  3.507148  0
N  N225  1  0.49205081  0.54943063  0.36480232  1  -0.777082  0  -0.272432  -0.180007  0  3.528225  0
N  N226  1  0.13329846  0.08203896  0.91839648  1  -0.776457  0  -0.283291  -0.187946  0  3.557481  0
N  N227  1  0.43496585  0.35192255  0.41250587  1  -0.790923  0  -0.285243  -0.19109  0  3.563897  0
N  N228  1  0.07143155  0.13645307  0.91421578  1  -0.790689  0  -0.289065  -0.199193  0  3.547666  0
N  N229  1  0.00693334  0.93261265  0.86534559  1  -0.785103  0  -0.272688  -0.180003  0  3.526352  0
N  N230  1  0.94357164  0.98506739  0.85734757  1  -0.787237  0  -0.267545  -0.182954  0  3.506475  0
N  N231  1  0.50942083  0.52944407  0.63354805  1  -0.789837  0  -0.275497  -0.183011  0  3.538755  0
N  N232  1  0.42581851  0.33971269  0.56499893  1  -0.764663  0  -0.286761  -0.187095  0  3.56788  0
N  N233  1  0.06524645  0.14594737  0.06716840  1  -0.80113  0  -0.284127  -0.183394  0  3.570208  0
N  N234  1  0.97634405  0.96177814  0.13311449  1  -0.782167  0  -0.273721  -0.183239  0  3.517864  0
N  N235  1  0.51539771  0.62920664  0.47470488  1  -0.746656  0  -0.281546  -0.183594  0  3.612532  0
