# generated using pymatgen
data_Zn4H20C44O13F8
_symmetry_space_group_name_H-M   'P 1'
_cell_length_a   23.98144354
_cell_length_b   23.98276895
_cell_length_c   23.98118760
_cell_angle_alpha   66.92500091
_cell_angle_beta   72.30577946
_cell_angle_gamma   107.70372340
_symmetry_Int_Tables_number   1
_chemical_formula_structural   Zn4H20C44O13F8
_chemical_formula_sum   'Zn8 H40 C88 O26 F16'
_cell_volume   10586.05996977
_cell_formula_units_Z   2
loop_
 _symmetry_equiv_pos_site_id
 _symmetry_equiv_pos_as_xyz
  1  'x, y, z'
loop_
 _atom_site_type_symbol
 _atom_site_label
 _atom_site_symmetry_multiplicity
 _atom_site_fract_x
 _atom_site_fract_y
 _atom_site_fract_z
 _atom_site_occupancy
 _atom_site_pbe_bader_charge
 _atom_site_pbe_bader_spin_density
 _atom_site_pbe_cm5_charge
 _atom_site_pbe_ddec_charge
 _atom_site_pbe_ddec_spin_density
 _atom_site_pbe_ddec_sum_bond_order
 _atom_site_pbe_magmom
Zn  Zn0  1  0.05657770  0.95731405  0.48615950  1  1.320394  0  0.680259  0.967998  0  2.376919  0
Zn  Zn1  1  0.05657891  0.09926740  0.45727225  1  1.319158  0  0.68019  0.967887  0  2.376925  0
Zn  Zn2  1  0.94341771  0.98615730  0.45730688  1  1.320351  0  0.680147  0.967992  0  2.376715  0
Zn  Zn3  1  0.94343199  0.95726774  0.59926886  1  1.319192  0  0.680286  0.967996  0  2.376708  0
Zn  Zn4  1  0.94346379  0.54272780  0.01384110  1  1.321058  0  0.680176  0.96795  0  2.37699  0
Zn  Zn5  1  0.05654670  0.51384896  0.04273026  1  1.321039  0  0.680199  0.967943  0  2.37685  0
Zn  Zn6  1  0.94346170  0.40073273  0.04269052  1  1.320261  0  0.68029  0.967992  0  2.376725  0
Zn  Zn7  1  0.05652503  0.54268702  0.90073219  1  1.320258  0  0.680272  0.968084  0  2.376812  0
H  H8  1  0.92353167  0.71454495  0.17469651  1  0.090599  0  0.119162  0.149628  0  0.973675  0
H  H9  1  0.07645374  0.67468341  0.21459253  1  0.089829  0  0.119109  0.149651  0  0.973754  0
H  H10  1  0.92353692  0.82531336  0.28543413  1  0.090922  0  0.119114  0.149552  0  0.973699  0
H  H11  1  0.07640223  0.78538070  0.32539578  1  0.089834  0  0.11911  0.149761  0  0.973979  0
H  H12  1  0.07647283  0.40174014  0.70899922  1  0.135023  0  0.119186  0.149634  0  0.973966  0
H  H13  1  0.92354404  0.20895400  0.90178699  1  0.13514  0  0.119086  0.149599  0  0.973878  0
H  H14  1  0.07640796  0.29102229  0.59822182  1  0.13598  0  0.119088  0.14973  0  0.973963  0
H  H15  1  0.92353645  0.09822304  0.79101783  1  0.135555  0  0.119153  0.149548  0  0.973758  0
H  H16  1  0.61075978  0.40177016  0.17465720  1  0.093916  0  0.119152  0.14974  0  0.973897  0
H  H17  1  0.61075649  0.20897374  0.21458279  1  0.087645  0  0.119134  0.149655  0  0.973778  0
H  H18  1  0.38926372  0.29104329  0.28539619  1  0.08776  0  0.119147  0.149674  0  0.973853  0
H  H19  1  0.38925733  0.09825501  0.32525405  1  0.096699  0  0.119122  0.149579  0  0.9738  0
H  H20  1  0.38925388  0.67463219  0.90176528  1  0.092715  0  0.119165  0.149839  0  0.973699  0
H  H21  1  0.38923026  0.71456811  0.70896276  1  0.08801  0  0.119037  0.149523  0  0.973828  0
H  H22  1  0.61075493  0.78541173  0.79104616  1  0.087775  0  0.119129  0.149666  0  0.973826  0
H  H23  1  0.61072865  0.82527824  0.59825509  1  0.09316  0  0.119107  0.149596  0  0.973747  0
H  H24  1  0.85668480  0.75698020  0.82433426  1  0.028486  0  0.091417  0.12507  0  1.005786  0
H  H25  1  0.90842428  0.84169614  0.75028355  1  0.094769  0  0.093961  0.151462  0  1.067905  0
H  H26  1  0.91852962  0.81860071  0.82473608  1  0.025425  0  0.091065  0.124787  0  1.006465  0
H  H27  1  0.08132646  0.68103031  0.67565946  1  0.031126  0  0.091465  0.12515  0  1.005765  0
H  H28  1  0.09199059  0.65871803  0.74971647  1  0.096106  0  0.093975  0.151444  0  1.067914  0
H  H29  1  0.14334238  0.74327063  0.67527043  1  0.022767  0  0.09102  0.124718  0  1.006576  0
H  H30  1  0.91867613  0.74301252  0.90030067  1  0.0566  0  0.091443  0.125176  0  1.00575  0
H  H31  1  0.90801151  0.65829831  0.93327366  1  0.094323  0  0.094013  0.151519  0  1.067826  0
H  H32  1  0.85665916  0.68139725  0.90006698  1  0.051499  0  0.091071  0.124723  0  1.00661  0
H  H33  1  0.14332139  0.81897813  0.59970881  1  0.056229  0  0.091414  0.125077  0  1.005898  0
H  H34  1  0.09158127  0.84129376  0.56672704  1  0.095771  0  0.093975  0.15148  0  1.067928  0
H  H35  1  0.08147583  0.75674217  0.59992274  1  0.05024  0  0.091008  0.124716  0  1.006392  0
H  H36  1  0.85668287  0.09970797  0.31895654  1  0.054495  0  0.091395  0.12502  0  1.005837  0
H  H37  1  0.90842445  0.06673383  0.34127116  1  0.095307  0  0.093908  0.151483  0  1.067855  0
H  H38  1  0.91852965  0.09993729  0.25671655  1  0.050008  0  0.091095  0.124737  0  1.006592  0
H  H39  1  0.08132424  0.40028928  0.24304019  1  0.057338  0  0.09142  0.125051  0  1.005928  0
H  H40  1  0.09198387  0.43326935  0.15832210  1  0.094171  0  0.093962  0.151499  0  1.067961  0
H  H41  1  0.14334109  0.40007395  0.18141410  1  0.049671  0  0.09106  0.124766  0  1.006548  0
H  H42  1  0.91867839  0.17566876  0.18100733  1  0.031083  0  0.091402  0.125142  0  1.005648  0
H  H43  1  0.90801909  0.24972382  0.15869122  1  0.095973  0  0.093992  0.151523  0  1.067711  0
H  H44  1  0.85666058  0.17527358  0.24324310  1  0.022812  0  0.090997  0.124644  0  1.006502  0
H  H45  1  0.14331732  0.32433416  0.25700241  1  0.028375  0  0.091405  0.125126  0  1.005715  0
H  H46  1  0.09157586  0.25027828  0.34171608  1  0.094717  0  0.093973  0.151453  0  1.06774  0
H  H47  1  0.08147349  0.32472717  0.31862204  1  0.024711  0  0.090979  0.124617  0  1.006516  0
C  C48  1  0.18089538  0.09045588  0.40954904  1  1.590514  0  0.226734  0.637965  0  4.171424  0
C  C49  1  0.99999546  0.13792161  0.36208059  1  1.552013  0  0.238208  0.622918  0  4.097502  0
C  C50  1  0.99999312  0.90956832  0.40957476  1  1.609223  0  0.226311  0.637665  0  4.170952  0
C  C51  1  0.81910871  0.90954475  0.59046009  1  1.590913  0  0.226951  0.638316  0  4.170744  0
C  C52  1  0.00000578  0.86208134  0.63792224  1  1.550935  0  0.238348  0.623006  0  4.097237  0
C  C53  1  0.99999505  0.09042705  0.59043637  1  1.624831  0  0.226256  0.637727  0  4.171082  0
C  C54  1  0.00000263  0.59043767  0.09045298  1  1.611171  0  0.226817  0.638059  0  4.171057  0
C  C55  1  0.00000701  0.36208290  0.13791870  1  1.548419  0  0.238368  0.622984  0  4.097366  0
C  C56  1  0.81913785  0.40956123  0.09042596  1  1.590392  0  0.226429  0.637801  0  4.171071  0
C  C57  1  0.99999443  0.40954093  0.90956488  1  1.633512  0  0.226854  0.638088  0  4.171186  0
C  C58  1  0.99999248  0.63791829  0.86207868  1  1.547471  0  0.238253  0.622942  0  4.097658  0
C  C59  1  0.18086072  0.59042969  0.90955739  1  1.590857  0  0.226314  0.637753  0  4.170944  0
C  C60  1  0.00000512  0.80437178  0.69562998  1  -0.091525  0  -0.014912  -0.162523  0  3.853459  0
C  C61  1  0.99999805  0.69563069  0.80437001  1  -0.090646  0  -0.014867  -0.162465  0  3.853473  0
C  C62  1  0.95655461  0.77690603  0.76656133  1  0.032556  0  -0.001894  0.102484  0  3.867006  0
C  C63  1  0.04347066  0.72311904  0.73343765  1  0.030241  0  -0.001827  0.102536  0  3.867005  0
C  C64  1  0.95653154  0.72309385  0.82035210  1  0.018144  0  -0.001843  0.102466  0  3.867079  0
C  C65  1  0.04345177  0.77688720  0.67964857  1  0.019299  0  -0.001839  0.102489  0  3.866973  0
C  C66  1  0.99999908  0.19563154  0.30436973  1  -0.091524  0  -0.014811  -0.162352  0  3.853326  0
C  C67  1  0.00000388  0.30437242  0.19563005  1  -0.092186  0  -0.014952  -0.16252  0  3.853308  0
C  C68  1  0.95655365  0.17965068  0.27687786  1  0.018932  0  -0.001899  0.102387  0  3.867103  0
C  C69  1  0.04347013  0.32035283  0.22310078  1  -0.024542  0  -0.00182  0.102554  0  3.867107  0
C  C70  1  0.95653264  0.23344108  0.22310860  1  0.031033  0  -0.001791  0.102655  0  3.866675  0
C  C71  1  0.04344658  0.26656196  0.27691375  1  0.075465  0  -0.001727  0.102584  0  3.866753  0
C  C72  1  0.00000078  0.62789480  0.12791156  1  0.043592  0  -0.028357  -0.260982  0  3.902424  0
C  C73  1  0.95806760  0.65799681  0.13610814  1  0.463138  0  0.115469  0.314353  0  4.042126  0
C  C74  1  0.95723349  0.69280161  0.17054018  1  0.094008  0  -0.098003  -0.282141  0  3.942057  0
C  C75  1  0.99998869  0.69944442  0.19948110  1  0.086888  0  0.010833  0.203307  0  4.14083  0
C  C76  1  0.04274749  0.67051290  0.19284652  1  0.094716  0  -0.097874  -0.282316  0  3.942552  0
C  C77  1  0.04191865  0.63608332  0.15803974  1  0.463774  0  0.115589  0.314623  0  4.04246  0
C  C78  1  0.99998295  0.73474864  0.23479110  1  -0.27027  0  -0.032337  -0.09025  0  4.079716  0
C  C79  1  0.99997633  0.76520988  0.26527149  1  -0.054216  0  -0.032068  -0.089987  0  4.079832  0
C  C80  1  0.99997131  0.80051327  0.30058118  1  0.0872  0  0.010899  0.203413  0  4.141165  0
C  C81  1  0.95722777  0.82946489  0.30719852  1  0.09447  0  -0.097956  -0.282084  0  3.942249  0
C  C82  1  0.95806154  0.86390197  0.34199919  1  0.462348  0  0.115549  0.314475  0  4.042099  0
C  C83  1  0.99998270  0.87209895  0.37212388  1  0.044862  0  -0.028061  -0.260779  0  3.90179  0
C  C84  1  0.04187985  0.84194806  0.36397039  1  0.462319  0  0.115315  0.31448  0  4.042336  0
C  C85  1  0.04270705  0.80713428  0.32954731  1  0.095186  0  -0.097954  -0.2825  0  3.942854  0
C  C86  1  0.00000311  0.37208258  0.87210919  1  0.052805  0  -0.028308  -0.261062  0  3.902484  0
C  C87  1  0.04194351  0.40580911  0.80007688  1  0.459988  0  0.115605  0.314506  0  4.042239  0
C  C88  1  0.04277218  0.37220560  0.76444380  1  0.051586  0  -0.097911  -0.281985  0  3.942118  0
C  C89  1  0.00000663  0.30051646  0.80055969  1  0.083212  0  0.010678  0.203232  0  4.14078  0
C  C90  1  0.95725216  0.26440079  0.87225071  1  0.051915  0  -0.097865  -0.282223  0  3.942708  0
C  C91  1  0.95808548  0.30004000  0.90584641  1  0.45938  0  0.115585  0.314652  0  4.042372  0
C  C92  1  0.99999466  0.26521656  0.76524678  1  -0.272316  0  -0.032497  -0.090673  0  4.079851  0
C  C93  1  0.99998613  0.23475673  0.73476418  1  -0.055366  0  -0.032004  -0.089766  0  4.079583  0
C  C94  1  0.99997620  0.19945546  0.69945318  1  0.083185  0  0.010926  0.203427  0  4.14121  0
C  C95  1  0.04271272  0.23557387  0.62775693  1  0.05223  0  -0.097922  -0.282431  0  3.94265  0
C  C96  1  0.04188318  0.19993689  0.59415837  1  0.459011  0  0.115419  0.314386  0  4.042383  0
C  C97  1  0.99998495  0.12788989  0.62789229  1  0.052906  0  -0.028122  -0.260749  0  3.901574  0
C  C98  1  0.95806106  0.09416229  0.69993252  1  0.4594  0  0.115468  0.3143  0  4.04188  0
C  C99  1  0.95722816  0.12776313  0.73556835  1  0.051491  0  -0.097884  -0.281893  0  3.942211  0
C  C100  1  0.74421799  0.37210475  0.12789088  1  0.065869  0  -0.028151  -0.260723  0  3.901839  0
C  C101  1  0.70590656  0.40583495  0.13606578  1  0.446691  0  0.115416  0.314227  0  4.042733  0
C  C102  1  0.63667170  0.37223576  0.17049809  1  0.100489  0  -0.097898  -0.282262  0  3.942521  0
C  C103  1  0.60109391  0.30054061  0.19944908  1  0.113559  0  0.010921  0.203568  0  4.140928  0
C  C104  1  0.63666911  0.26442311  0.19282812  1  0.001347  0  -0.097926  -0.282323  0  3.942364  0
C  C105  1  0.70590592  0.30005938  0.15802816  1  0.558894  0  0.115502  0.314543  0  4.041945  0
C  C106  1  0.53048167  0.26524175  0.23474530  1  -0.028775  0  -0.032235  -0.090271  0  4.079754  0
C  C107  1  0.46953915  0.23478203  0.26519832  1  -0.345435  0  -0.032317  -0.090299  0  4.079619  0
C  C108  1  0.39892677  0.19948147  0.30049400  1  0.114725  0  0.010806  0.203402  0  4.140519  0
C  C109  1  0.36335193  0.23559575  0.30713613  1  0.000237  0  -0.098104  -0.282539  0  3.942787  0
C  C110  1  0.29411749  0.19995774  0.34194774  1  0.558876  0  0.115624  0.314714  0  4.042691  0
C  C111  1  0.25580877  0.12791415  0.37207747  1  0.065931  0  -0.028436  -0.261118  0  3.902647  0
C  C112  1  0.29411358  0.09418862  0.36385643  1  0.447245  0  0.115618  0.314292  0  4.042441  0
C  C113  1  0.36334967  0.12779111  0.32942079  1  0.09716  0  -0.097852  -0.281834  0  3.941717  0
C  C114  1  0.25578115  0.62788364  0.87209622  1  0.064717  0  -0.028004  -0.260742  0  3.901849  0
C  C115  1  0.29409983  0.63604791  0.90582921  1  0.447873  0  0.115324  0.314307  0  4.042519  0
C  C116  1  0.36333579  0.67047503  0.87222819  1  0.101601  0  -0.098112  -0.282632  0  3.94241  0
C  C117  1  0.39890928  0.69943370  0.80053066  1  0.114298  0  0.010925  0.203632  0  4.140797  0
C  C118  1  0.36332379  0.69281030  0.76441488  1  -0.000126  0  -0.097663  -0.281902  0  3.942004  0
C  C119  1  0.29408550  0.65800872  0.80005176  1  0.559896  0  0.115499  0.314448  0  4.041734  0
C  C120  1  0.46952230  0.73473541  0.76523266  1  -0.028567  0  -0.032276  -0.090539  0  4.079546  0
C  C121  1  0.53046491  0.76520351  0.73478341  1  -0.345535  0  -0.032255  -0.089962  0  4.079316  0
C  C122  1  0.60107820  0.80050962  0.69948360  1  0.114699  0  0.010663  0.203282  0  4.140844  0
C  C123  1  0.63666010  0.80715220  0.73559750  1  0.001029  0  -0.097815  -0.282379  0  3.94259  0
C  C124  1  0.70589625  0.84196096  0.69995803  1  0.558283  0  0.115581  0.314636  0  4.042141  0
C  C125  1  0.74419517  0.87208474  0.62791364  1  0.065134  0  -0.028305  -0.260982  0  3.902475  0
C  C126  1  0.70588176  0.86387866  0.59418676  1  0.448493  0  0.115534  0.314463  0  4.042085  0
C  C127  1  0.63664630  0.82944531  0.62778966  1  0.100671  0  -0.097848  -0.28206  0  3.941856  0
C  C128  1  0.90793555  0.80067351  0.79149920  1  -0.061753  0  -0.254075  -0.425624  0  3.981974  0
C  C129  1  0.09218061  0.69944195  0.70850086  1  -0.06221  0  -0.254075  -0.425572  0  3.982153  0
C  C130  1  0.90782050  0.69932225  0.89273887  1  -0.11371  0  -0.254156  -0.425677  0  3.98214  0
C  C131  1  0.09207054  0.80056808  0.60726043  1  -0.113277  0  -0.254041  -0.425569  0  3.981937  0
C  C132  1  0.90793513  0.10726806  0.30054670  1  -0.111156  0  -0.254019  -0.425514  0  3.982233  0
C  C133  1  0.09217844  0.39273655  0.19934341  1  -0.11255  0  -0.254088  -0.42564  0  3.982393  0
C  C134  1  0.90782444  0.20850717  0.19941960  1  -0.062407  0  -0.254131  -0.425746  0  3.981651  0
C  C135  1  0.09206566  0.29149493  0.30069184  1  -0.060598  0  -0.254089  -0.425565  0  3.98167  0
O  O136  1  0.00000036  0.00000164  0.49999997  1  -1.237048  0  -0.574873  -1.037201  0  2.566738  0
O  O137  1  0.15209439  0.02587794  0.43306500  1  -1.15555  0  -0.313916  -0.543188  0  2.357325  0
O  O138  1  0.03971394  0.15361765  0.38539182  1  -1.174426  0  -0.310589  -0.537576  0  2.42271  0
O  O139  1  0.95900922  0.93318913  0.41475310  1  -1.156178  0  -0.313624  -0.543152  0  2.35702  0
O  O140  1  0.15209630  0.12622674  0.41484459  1  -1.152065  0  -0.313835  -0.543011  0  2.357347  0
O  O141  1  0.04098054  0.91476127  0.43319040  1  -1.15662  0  -0.313582  -0.542959  0  2.357287  0
O  O142  1  0.96027135  0.07489393  0.38609781  1  -1.179781  0  -0.310565  -0.537753  0  2.422567  0
O  O143  1  0.84790394  0.93305759  0.52587393  1  -1.155394  0  -0.31399  -0.543408  0  2.356626  0
O  O144  1  0.96031110  0.88540709  0.65362086  1  -1.174071  0  -0.310634  -0.537646  0  2.422824  0
O  O145  1  0.84791336  0.91483826  0.62622509  1  -1.152829  0  -0.313982  -0.543174  0  2.357547  0
O  O146  1  0.03970748  0.88608187  0.57489310  1  -1.179488  0  -0.310707  -0.537816  0  2.422362  0
O  O147  1  0.04097444  0.12623260  0.52582795  1  -1.168011  0  -0.313655  -0.5432  0  2.35703  0
O  O148  1  0.95903060  0.02582608  0.62623403  1  -1.159575  0  -0.313513  -0.543049  0  2.357524  0
O  O149  1  0.00000099  0.50000041  0.00000010  1  -1.236911  0  -0.574905  -1.037279  0  2.566732  0
O  O150  1  0.95893062  0.58514070  0.06694645  1  -1.15655  0  -0.313863  -0.543125  0  2.357406  0
O  O151  1  0.03905027  0.42511129  0.11458250  1  -1.176595  0  -0.31074  -0.537855  0  2.422842  0
O  O152  1  0.84793906  0.37376839  0.08524684  1  -1.15282  0  -0.313631  -0.543031  0  2.357532  0
O  O153  1  0.04107320  0.56693541  0.08516125  1  -1.156631  0  -0.313925  -0.54318  0  2.357018  0
O  O154  1  0.84794376  0.47417283  0.06679268  1  -1.15503  0  -0.313695  -0.543297  0  2.35701  0
O  O155  1  0.96096996  0.34638361  0.11392728  1  -1.175349  0  -0.31055  -0.537557  0  2.422717  0
O  O156  1  0.95893507  0.37376890  0.97413628  1  -1.162184  0  -0.31399  -0.54314  0  2.357335  0
O  O157  1  0.03898784  0.61389009  0.84638108  1  -1.174903  0  -0.310611  -0.537671  0  2.422904  0
O  O158  1  0.04105396  0.47412024  0.87378436  1  -1.172895  0  -0.313892  -0.543205  0  2.357179  0
O  O159  1  0.96099032  0.61461524  0.92510618  1  -1.176661  0  -0.310615  -0.537702  0  2.422607  0
O  O160  1  0.15206450  0.56681446  0.97416165  1  -1.155663  0  -0.313709  -0.543195  0  2.356998  0
O  O161  1  0.15204995  0.58524389  0.87376269  1  -1.153291  0  -0.313549  -0.543025  0  2.357381  0
F  F162  1  0.91568506  0.65398558  0.10964901  1  -0.618669  0  -0.090408  -0.123539  0  1.354377  0
F  F163  1  0.08429912  0.60962827  0.15403770  1  -0.618743  0  -0.090459  -0.123533  0  1.354496  0
F  F164  1  0.91568776  0.89036626  0.34598932  1  -0.618855  0  -0.090488  -0.1236  0  1.354456  0
F  F165  1  0.08424061  0.84592979  0.39045858  1  -0.618575  0  -0.090472  -0.123658  0  1.35455  0
F  F166  1  0.08434143  0.47464387  0.76170384  1  -0.619767  0  -0.09051  -0.123641  0  1.354486  0
F  F167  1  0.91570920  0.26166881  0.97468286  1  -0.620019  0  -0.090435  -0.123545  0  1.354483  0
F  F168  1  0.08424526  0.23831405  0.52531679  1  -0.620054  0  -0.090475  -0.123538  0  1.35482  0
F  F169  1  0.91568242  0.02532609  0.73830821  1  -0.620037  0  -0.090447  -0.123557  0  1.354319  0
F  F170  1  0.73636999  0.47467457  0.10959717  1  -0.620862  0  -0.090552  -0.123552  0  1.354683  0
F  F171  1  0.73636613  0.26168234  0.15403626  1  -0.621428  0  -0.090463  -0.123578  0  1.354371  0
F  F172  1  0.26365342  0.23832888  0.34595230  1  -0.620868  0  -0.090368  -0.123505  0  1.354717  0
F  F173  1  0.26364989  0.02535490  0.39029486  1  -0.620257  0  -0.090498  -0.123534  0  1.354697  0
F  F174  1  0.26364235  0.60956934  0.97467294  1  -0.62062  0  -0.090487  -0.123546  0  1.35477  0
F  F175  1  0.26361765  0.65401631  0.76167446  1  -0.62176  0  -0.090533  -0.123634  0  1.354164  0
F  F176  1  0.73636620  0.84596788  0.73832940  1  -0.621324  0  -0.090392  -0.123489  0  1.354449  0
F  F177  1  0.73634018  0.89033074  0.52534734  1  -0.62047  0  -0.090524  -0.123641  0  1.354386  0
