# generated using pymatgen
data_CaH16(C3O4)3
_symmetry_space_group_name_H-M   'P 1'
_cell_length_a   5.54138454
_cell_length_b   11.90961892
_cell_length_c   11.90978323
_cell_angle_alpha   119.98103759
_cell_angle_beta   89.99630920
_cell_angle_gamma   89.99737644
_symmetry_Int_Tables_number   1
_chemical_formula_structural   CaH16(C3O4)3
_chemical_formula_sum   'Ca2 H32 C18 O24'
_cell_volume   680.82201741
_cell_formula_units_Z   2
loop_
 _symmetry_equiv_pos_site_id
 _symmetry_equiv_pos_as_xyz
  1  'x, y, z'
loop_
 _atom_site_type_symbol
 _atom_site_label
 _atom_site_symmetry_multiplicity
 _atom_site_fract_x
 _atom_site_fract_y
 _atom_site_fract_z
 _atom_site_occupancy
 _atom_site_hle17_bader_spin_density
 _atom_site_hle17_ddec_charge
 _atom_site_hle17_ddec_spin_density
 _atom_site_hle17_ddec_sum_bond_order
 _atom_site_hle17_magmom
 _atom_site_hse06_10hf_bader_spin_density
 _atom_site_hse06_10hf_ddec_charge
 _atom_site_hse06_10hf_ddec_spin_density
 _atom_site_hse06_10hf_ddec_sum_bond_order
 _atom_site_hse06_10hf_magmom
 _atom_site_hse06_bader_spin_density
 _atom_site_hse06_ddec_charge
 _atom_site_hse06_ddec_spin_density
 _atom_site_hse06_ddec_sum_bond_order
 _atom_site_hse06_magmom
 _atom_site_pbe_bader_spin_density
 _atom_site_pbe_cm5_charge
 _atom_site_pbe_ddec_charge
 _atom_site_pbe_ddec_spin_density
 _atom_site_pbe_ddec_sum_bond_order
 _atom_site_pbe_magmom
Ca  Ca0  1  0.00000972  0.16047429  0.16045470  1  0  1.546096  0  1.042647  0  0  1.41295  0  1.380417  0  0  1.454696  0  1.337175  0  0  0.854828  1.381362  0  1.411318  0
Ca  Ca1  1  0.00001682  0.66045448  0.66047422  1  0  1.546098  0  1.042648  0  0  1.412884  0  1.380531  0  0  1.454629  0  1.337288  0  0  0.85482  1.381299  0  1.411441  0
H  H2  1  0.98466654  0.40572345  0.90572371  1  0  0.089828  0  0.92685  0  0  0.103908  0  0.993381  0  0  0.105892  0  0.992181  0  0  0.096447  0.102417  0  0.994361  0
H  H3  1  0.01529884  0.90575171  0.40574714  1  0  0.089772  0  0.926811  0  0  0.103778  0  0.993424  0  0  0.105758  0  0.992235  0  0  0.096388  0.102283  0  0.994399  0
H  H4  1  0.78809162  0.52478307  0.02478246  1  0  0.093122  0  0.925004  0  0  0.108887  0  0.986863  0  0  0.110372  0  0.986687  0  0  0.096694  0.107744  0  0.987111  0
H  H5  1  0.21188348  0.02479692  0.52479434  1  0  0.092969  0  0.92522  0  0  0.108764  0  0.986989  0  0  0.11025  0  0.986813  0  0  0.096645  0.107611  0  0.987258  0
H  H6  1  0.47998466  0.35995056  0.97894881  1  0  0.103947  0  0.919498  0  0  0.117119  0  0.973804  0  0  0.119702  0  0.972609  0  0  0.113823  0.115259  0  0.974795  0
H  H7  1  0.52000451  0.97893799  0.35993966  1  0  0.103927  0  0.919475  0  0  0.117036  0  0.973796  0  0  0.119611  0  0.972603  0  0  0.113818  0.115169  0  0.974786  0
H  H8  1  0.52000190  0.85993990  0.47892961  1  0  0.1039  0  0.919639  0  0  0.11699  0  0.973961  0  0  0.119565  0  0.972773  0  0  0.113799  0.115128  0  0.974946  0
H  H9  1  0.47997825  0.47894670  0.85995537  1  0  0.103941  0  0.919447  0  0  0.117153  0  0.973706  0  0  0.119735  0  0.972511  0  0  0.113805  0.115289  0  0.974705  0
H  H10  1  0.84100218  0.88970133  0.08561319  1  0  0.431628  0  0.867314  0  0  0.39934  0  0.933178  0  0  0.409494  0  0.918341  0  0  0.304893  0.392129  0  0.943712  0
H  H11  1  0.15907190  0.08564103  0.88969212  1  0  0.431572  0  0.867447  0  0  0.399278  0  0.933319  0  0  0.409441  0  0.918469  0  0  0.304823  0.392065  0  0.943856  0
H  H12  1  0.15907316  0.38968678  0.58563853  1  0  0.431547  0  0.867477  0  0  0.399237  0  0.933385  0  0  0.409398  0  0.918542  0  0  0.304771  0.392028  0  0.943918  0
H  H13  1  0.84101715  0.58561696  0.38970466  1  0  0.431534  0  0.867421  0  0  0.399219  0  0.933342  0  0  0.409378  0  0.918504  0  0  0.304828  0.39201  0  0.943875  0
H  H14  1  0.44759383  0.16887421  0.77881380  1  0  0.110292  0  0.928444  0  0  0.115937  0  0.990545  0  0  0.119439  0  0.988385  0  0  0.110597  0.11337  0  0.992294  0
H  H15  1  0.55241317  0.77880444  0.16886283  1  0  0.110301  0  0.928377  0  0  0.115942  0  0.990484  0  0  0.119424  0  0.988357  0  0  0.110594  0.113375  0  0.992233  0
H  H16  1  0.55240173  0.66886880  0.27880129  1  0  0.110234  0  0.928476  0  0  0.115908  0  0.990548  0  0  0.119405  0  0.988401  0  0  0.110557  0.113342  0  0.992298  0
H  H17  1  0.44758361  0.27880890  0.66888158  1  0  0.110149  0  0.928467  0  0  0.115863  0  0.990537  0  0  0.119342  0  0.988407  0  0  0.11057  0.113295  0  0.992282  0
H  H18  1  0.75814812  0.40266678  0.38588843  1  0  0.434893  0  0.864725  0  0  0.404091  0  0.927574  0  0  0.415344  0  0.911062  0  0  0.301084  0.396084  0  0.939318  0
H  H19  1  0.24172447  0.38586722  0.40259983  1  0  0.434387  0  0.865421  0  0  0.403665  0  0.928144  0  0  0.414894  0  0.911676  0  0  0.300949  0.395663  0  0.939882  0
H  H20  1  0.24171570  0.90260606  0.88586999  1  0  0.434403  0  0.865419  0  0  0.403657  0  0.928161  0  0  0.414886  0  0.911695  0  0  0.300955  0.395654  0  0.939901  0
H  H21  1  0.75814583  0.88588546  0.90266762  1  0  0.434931  0  0.86467  0  0  0.404132  0  0.927517  0  0  0.415385  0  0.911005  0  0  0.301106  0.396124  0  0.939263  0
H  H22  1  0.60109622  0.97260951  0.10803120  1  0  0.432493  0  0.868564  0  0  0.398914  0  0.935944  0  0  0.410477  0  0.919273  0  0  0.299365  0.390701  0  0.94775  0
H  H23  1  0.39895806  0.10803686  0.97259332  1  0  0.432096  0  0.869141  0  0  0.398502  0  0.936529  0  0  0.410079  0  0.919846  0  0  0.29913  0.39028  0  0.948342  0
H  H24  1  0.39895525  0.47258918  0.60803820  1  0  0.432127  0  0.869097  0  0  0.398526  0  0.936506  0  0  0.410092  0  0.919832  0  0  0.299116  0.390312  0  0.948315  0
H  H25  1  0.60110265  0.60803305  0.47260957  1  0  0.432444  0  0.868633  0  0  0.398868  0  0.936013  0  0  0.410433  0  0.919339  0  0  0.299346  0.39066  0  0.947815  0
H  H26  1  0.61154548  0.28166121  0.37116326  1  0  0.425722  0  0.837381  0  0  0.403375  0  0.901301  0  0  0.412389  0  0.889304  0  0  0.323252  0.396851  0  0.909139  0
H  H27  1  0.38902908  0.37066631  0.28163832  1  0  0.42586  0  0.83737  0  0  0.403505  0  0.901326  0  0  0.412536  0  0.889239  0  0  0.323062  0.39697  0  0.909188  0
H  H28  1  0.38901437  0.78164055  0.87066672  1  0  0.425908  0  0.837372  0  0  0.403543  0  0.901343  0  0  0.412574  0  0.889212  0  0  0.323068  0.397006  0  0.909205  0
H  H29  1  0.61154011  0.87116103  0.78166295  1  0  0.425668  0  0.837388  0  0  0.403329  0  0.901298  0  0  0.412343  0  0.88935  0  0  0.323234  0.396805  0  0.909139  0
H  H30  1  0.88951471  0.93280970  0.62648953  1  0  0.417016  0  0.882622  0  0  0.381994  0  0.963848  0  0  0.395408  0  0.945035  0  0  0.30819  0.372594  0  0.976641  0
H  H31  1  0.11051493  0.62652155  0.93285253  1  0  0.417189  0  0.882392  0  0  0.382401  0  0.963207  0  0  0.395809  0  0.944399  0  0  0.308417  0.372998  0  0.975999  0
H  H32  1  0.11050735  0.43284641  0.12651257  1  0  0.41709  0  0.88247  0  0  0.382272  0  0.963379  0  0  0.395678  0  0.944575  0  0  0.308375  0.372871  0  0.976117  0
H  H33  1  0.88951171  0.12649450  0.43281417  1  0  0.417069  0  0.882535  0  0  0.382065  0  0.963739  0  0  0.395479  0  0.944924  0  0  0.308228  0.372661  0  0.976523  0
C  C34  1  0.79512583  0.43280653  0.93281263  1  0  -0.127272  0  3.639039  0  0  -0.183993  0  3.904662  0  0  -0.183193  0  3.915136  0  0  -0.168116  -0.184315  0  3.897479  0
C  C35  1  0.20484391  0.93282662  0.43282725  1  0  -0.127088  0  3.639343  0  0  -0.183712  0  3.904533  0  0  -0.182928  0  3.915025  0  0  -0.168016  -0.184024  0  3.897308  0
C  C36  1  0.66016814  0.32352633  0.93787056  1  0  -0.129554  0  3.622287  0  0  -0.136476  0  3.867872  0  0  -0.141435  0  3.879252  0  0  -0.084734  -0.13314  0  3.860167  0
C  C37  1  0.33981405  0.93788124  0.32353600  1  0  -0.129417  0  3.622004  0  0  -0.136182  0  3.867306  0  0  -0.141096  0  3.878595  0  0  -0.084697  -0.132853  0  3.859602  0
C  C38  1  0.33981334  0.82353602  0.43787520  1  0  -0.129555  0  3.622392  0  0  -0.136228  0  3.86755  0  0  -0.141154  0  3.878869  0  0  -0.084711  -0.132895  0  3.859842  0
C  C39  1  0.66016163  0.43786573  0.82353183  1  0  -0.129646  0  3.622139  0  0  -0.136508  0  3.867754  0  0  -0.141457  0  3.879117  0  0  -0.084703  -0.133173  0  3.86004  0
C  C40  1  0.62219115  0.21744657  0.79412725  1  0  -0.138724  0  3.528785  0  0  -0.150249  0  3.769154  0  0  -0.155163  0  3.780499  0  0  -0.074241  -0.146839  0  3.761509  0
C  C41  1  0.37779739  0.79412964  0.21744428  1  0  -0.138595  0  3.528341  0  0  -0.150251  0  3.768528  0  0  -0.155168  0  3.779895  0  0  -0.07426  -0.146834  0  3.76087  0
C  C42  1  0.37779571  0.71744860  0.29412275  1  0  -0.138356  0  3.528421  0  0  -0.150082  0  3.768643  0  0  -0.155001  0  3.779999  0  0  -0.074202  -0.146676  0  3.761014  0
C  C43  1  0.62219464  0.29411890  0.71745116  1  0  -0.138239  0  3.52853  0  0  -0.149839  0  3.768891  0  0  -0.15474  0  3.780249  0  0  -0.074157  -0.146419  0  3.761227  0
C  C44  1  0.76542405  0.27134915  0.01992812  1  0  0.685752  0  3.846091  0  0  0.629429  0  4.153123  0  0  0.663293  0  4.145213  0  0  0.220068  0.606357  0  4.157765  0
C  C45  1  0.23458548  0.01996928  0.27137844  1  0  0.685627  0  3.845636  0  0  0.629256  0  4.152675  0  0  0.663115  0  4.14477  0  0  0.219914  0.606177  0  4.157318  0
C  C46  1  0.23458367  0.77137991  0.51996299  1  0  0.685497  0  3.845525  0  0  0.629122  0  4.152571  0  0  0.662985  0  4.144667  0  0  0.219958  0.606047  0  4.157213  0
C  C47  1  0.76542202  0.51992594  0.77135156  1  0  0.685878  0  3.845958  0  0  0.62937  0  4.15326  0  0  0.663233  0  4.145361  0  0  0.220091  0.606302  0  4.157891  0
C  C48  1  0.81745202  0.11472296  0.74842739  1  0  0.683281  0  3.763953  0  0  0.626484  0  4.078441  0  0  0.658972  0  4.070129  0  0  0.236312  0.604381  0  4.083583  0
C  C49  1  0.18254520  0.74843450  0.11472169  1  0  0.682794  0  3.76453  0  0  0.626238  0  4.078595  0  0  0.658715  0  4.070283  0  0  0.236241  0.604135  0  4.083737  0
C  C50  1  0.18253144  0.61472570  0.24843319  1  0  0.682821  0  3.76452  0  0  0.626295  0  4.078567  0  0  0.658775  0  4.070254  0  0  0.23626  0.604193  0  4.083708  0
C  C51  1  0.81745496  0.24842596  0.61472055  1  0  0.683021  0  3.764128  0  0  0.626182  0  4.078688  0  0  0.65867  0  4.070375  0  0  0.236216  0.604077  0  4.083828  0
O  O52  1  0.66848943  0.17232109  0.01661598  1  0  -0.686225  0  1.964326  0  0  -0.623154  0  2.193355  0  0  -0.64988  0  2.183666  0  0  -0.333136  -0.604288  0  2.199458  0
O  O53  1  0.33156118  0.01669655  0.17237666  1  0  -0.685966  0  1.963785  0  0  -0.622952  0  2.192881  0  0  -0.649669  0  2.183188  0  0  -0.333115  -0.604105  0  2.198997  0
O  O54  1  0.33156629  0.67236664  0.51668558  1  0  -0.685889  0  1.963505  0  0  -0.622896  0  2.192643  0  0  -0.649612  0  2.182947  0  0  -0.333117  -0.604037  0  2.198759  0
O  O55  1  0.66849311  0.51662199  0.67232618  1  0  -0.686301  0  1.964177  0  0  -0.623177  0  2.193324  0  0  -0.649902  0  2.183634  0  0  -0.333184  -0.604313  0  2.19943  0
O  O56  1  0.76675892  0.95488349  0.06741383  1  0  -0.875974  0  1.836611  0  0  -0.811667  0  2.012538  0  0  -0.834201  0  1.981077  0  0  -0.591511  -0.795459  0  2.034517  0
O  O57  1  0.23330233  0.06742716  0.95485985  1  0  -0.875584  0  1.836823  0  0  -0.811254  0  2.012765  0  0  -0.833793  0  1.981271  0  0  -0.591325  -0.79504  0  2.03477  0
O  O58  1  0.23330724  0.45485565  0.56742365  1  0  -0.875597  0  1.836803  0  0  -0.81124  0  2.012704  0  0  -0.833768  0  1.981239  0  0  -0.591262  -0.795035  0  2.034676  0
O  O59  1  0.76675582  0.56741347  0.45488730  1  0  -0.875874  0  1.836723  0  0  -0.81152  0  2.012597  0  0  -0.834063  0  1.981128  0  0  -0.59143  -0.795311  0  2.034555  0
O  O60  1  0.94662725  0.32482332  0.09385615  1  0  -0.674899  0  2.070681  0  0  -0.613525  0  2.313294  0  0  -0.640781  0  2.301965  0  0  -0.342496  -0.594314  0  2.320341  0
O  O61  1  0.05333279  0.09389518  0.32484460  1  0  -0.675167  0  2.071137  0  0  -0.613683  0  2.31379  0  0  -0.640954  0  2.302472  0  0  -0.342332  -0.594503  0  2.320893  0
O  O62  1  0.05332511  0.82484536  0.59388529  1  0  -0.675067  0  2.071141  0  0  -0.613572  0  2.313824  0  0  -0.64084  0  2.302503  0  0  -0.34233  -0.594394  0  2.320942  0
O  O63  1  0.94662567  0.59385476  0.82482559  1  0  -0.675004  0  2.0706  0  0  -0.613579  0  2.313302  0  0  -0.640826  0  2.301953  0  0  -0.342517  -0.59437  0  2.320364  0
O  O64  1  0.75088004  0.30578547  0.33831251  1  0  -0.878685  0  1.826578  0  0  -0.825543  0  2.017584  0  0  -0.845407  0  1.987499  0  0  -0.621911  -0.811199  0  2.037847  0
O  O65  1  0.24855141  0.33855442  0.30573089  1  0  -0.878808  0  1.826856  0  0  -0.82575  0  2.017855  0  0  -0.845595  0  1.987706  0  0  -0.622292  -0.811415  0  2.038135  0
O  O66  1  0.24853974  0.80573283  0.83855315  1  0  -0.878898  0  1.826877  0  0  -0.825763  0  2.017892  0  0  -0.845613  0  1.987692  0  0  -0.622319  -0.811426  0  2.038173  0
O  O67  1  0.75088064  0.83831061  0.80578518  1  0  -0.878661  0  1.826516  0  0  -0.825532  0  2.01753  0  0  -0.845395  0  1.987493  0  0  -0.621907  -0.811186  0  2.037798  0
O  O68  1  0.02474506  0.13817996  0.79391313  1  0  -0.58575  0  1.983978  0  0  -0.53369  0  2.206563  0  0  -0.555205  0  2.19751  0  0  -0.287457  -0.518887  0  2.212566  0
O  O69  1  0.97525838  0.79396806  0.13820816  1  0  -0.585652  0  1.984084  0  0  -0.533652  0  2.206502  0  0  -0.55515  0  2.197437  0  0  -0.287438  -0.518848  0  2.212509  0
O  O70  1  0.97525496  0.63820473  0.29396785  1  0  -0.585564  0  1.984221  0  0  -0.533634  0  2.206699  0  0  -0.555131  0  2.19763  0  0  -0.287394  -0.518828  0  2.212706  0
O  O71  1  0.02474848  0.29391240  0.63818341  1  0  -0.585679  0  1.984116  0  0  -0.533586  0  2.206689  0  0  -0.5551  0  2.197633  0  0  -0.287424  -0.518785  0  2.212693  0
O  O72  1  0.74688440  0.99967709  0.65541218  1  0  -0.555998  0  2.091038  0  0  -0.503293  0  2.31584  0  0  -0.526376  0  2.298345  0  0  -0.321794  -0.487187  0  2.327156  0
O  O73  1  0.25308869  0.65538948  0.99970648  1  0  -0.555562  0  2.091884  0  0  -0.50302  0  2.316223  0  0  -0.526113  0  2.29878  0  0  -0.321654  -0.486944  0  2.327583  0
O  O74  1  0.25308014  0.49970294  0.15538279  1  0  -0.555639  0  2.091764  0  0  -0.503015  0  2.316069  0  0  -0.526115  0  2.29865  0  0  -0.321706  -0.486933  0  2.327389  0
O  O75  1  0.74688598  0.15541579  0.49968209  1  0  -0.555931  0  2.091132  0  0  -0.503194  0  2.31591  0  0  -0.526272  0  2.298411  0  0  -0.321747  -0.4871  0  2.32724  0
