# generated using pymatgen
data_ZnH3C7(N2O)3
_symmetry_space_group_name_H-M   'P 1'
_cell_length_a   6.90027109
_cell_length_b   8.52741252
_cell_length_c   16.57483885
_cell_angle_alpha   89.99976743
_cell_angle_beta   90.00070209
_cell_angle_gamma   113.85724967
_symmetry_Int_Tables_number   1
_chemical_formula_structural   ZnH3C7(N2O)3
_chemical_formula_sum   'Zn4 H12 C28 N24 O12'
_cell_volume   891.95519509
_cell_formula_units_Z   4
loop_
 _symmetry_equiv_pos_site_id
 _symmetry_equiv_pos_as_xyz
  1  'x, y, z'
loop_
 _atom_site_type_symbol
 _atom_site_label
 _atom_site_symmetry_multiplicity
 _atom_site_fract_x
 _atom_site_fract_y
 _atom_site_fract_z
 _atom_site_occupancy
 _atom_site_pbe_bader_spin_density
 _atom_site_pbe_cm5_charge
 _atom_site_pbe_ddec_charge
 _atom_site_pbe_ddec_spin_density
 _atom_site_pbe_ddec_sum_bond_order
 _atom_site_pbe_magmom
Zn  Zn0  1  0.07215348  0.14431680  0.89830560  1  0  0.720666  0.730629  0  2.42096  0
Zn  Zn1  1  0.42785030  0.85568247  0.39830573  1  0  0.720598  0.730586  0  2.421142  0
Zn  Zn2  1  0.57215472  0.14431790  0.60169405  1  0  0.720644  0.730633  0  2.420978  0
Zn  Zn3  1  0.92784510  0.85568228  0.10169418  1  0  0.720624  0.730622  0  2.421096  0
H  H4  1  0.23731225  0.47449070  0.77292346  1  0  0.120297  0.088214  0  1.005837  0
H  H5  1  0.26269067  0.52550831  0.27292404  1  0  0.120306  0.088208  0  1.00584  0
H  H6  1  0.73730792  0.47449077  0.72707635  1  0  0.120303  0.088211  0  1.005839  0
H  H7  1  0.76268553  0.52550967  0.22707512  1  0  0.120298  0.088215  0  1.005848  0
H  H8  1  0.39578781  0.79110623  0.79148721  1  0  0.105589  0.107564  0  1.072018  0
H  H9  1  0.10421195  0.20889410  0.29148644  1  0  0.105584  0.107575  0  1.072009  0
H  H10  1  0.89578438  0.79110627  0.70851334  1  0  0.105583  0.107544  0  1.072033  0
H  H11  1  0.60421077  0.20889285  0.20851257  1  0  0.105601  0.107589  0  1.071996  0
H  H12  1  0.45300028  0.90613185  0.93561474  1  0  0.122779  0.105248  0  0.976331  0
H  H13  1  0.04700028  0.09386750  0.43561391  1  0  0.12279  0.105262  0  0.976329  0
H  H14  1  0.95299460  0.90613287  0.56438587  1  0  0.122772  0.105221  0  0.976363  0
H  H15  1  0.54699814  0.09386980  0.06438505  1  0  0.12277  0.105238  0  0.976311  0
C  C16  1  0.18540539  0.37097653  0.03744419  1  0  0.218461  0.1763  0  4.045704  0
C  C17  1  0.31459334  0.62902199  0.53744489  1  0  0.218483  0.176379  0  4.045699  0
C  C18  1  0.68540588  0.37097838  0.46255550  1  0  0.218472  0.176352  0  4.045788  0
C  C19  1  0.81459465  0.62902256  0.96255439  1  0  0.218497  0.176327  0  4.045808  0
C  C20  1  0.24756456  0.49534670  0.97113897  1  0  0.251783  0.292782  0  4.022052  0
C  C21  1  0.25243497  0.50465144  0.47113954  1  0  0.251774  0.292718  0  4.02202  0
C  C22  1  0.74756071  0.49534764  0.52886024  1  0  0.251757  0.292722  0  4.021895  0
C  C23  1  0.75243547  0.50465239  0.02885961  1  0  0.251734  0.292661  0  4.0221  0
C  C24  1  0.26537611  0.53067251  0.83325770  1  0  0.071553  0.151288  0  3.888577  0
C  C25  1  0.23462653  0.46932534  0.33325825  1  0  0.071577  0.15137  0  3.888529  0
C  C26  1  0.76537061  0.53067374  0.66674153  1  0  0.071579  0.151349  0  3.888541  0
C  C27  1  0.73462457  0.46932786  0.16674148  1  0  0.071591  0.151324  0  3.888483  0
C  C28  1  0.35399344  0.70773958  0.84410550  1  0  -0.077924  -0.15813  0  3.915916  0
C  C29  1  0.14600727  0.29225957  0.34410537  1  0  -0.077902  -0.158119  0  3.915918  0
C  C30  1  0.85398906  0.70774079  0.65589441  1  0  -0.077898  -0.158068  0  3.915935  0
C  C31  1  0.64600515  0.29225950  0.15589368  1  0  -0.077922  -0.158124  0  3.915901  0
C  C32  1  0.38426723  0.76858496  0.92320855  1  0  0.068003  0.143091  0  3.894456  0
C  C33  1  0.11573377  0.23141308  0.42320779  1  0  0.067943  0.143034  0  3.894527  0
C  C34  1  0.88426337  0.76858601  0.57679200  1  0  0.06796  0.143055  0  3.894528  0
C  C35  1  0.61573409  0.23141669  0.07679184  1  0  0.067991  0.143078  0  3.89449  0
C  C36  1  0.25026368  0.13917608  0.71733658  1  0  0.175427  0.330134  0  4.164162  0
C  C37  1  0.24972950  0.86082410  0.21734302  1  0  0.175514  0.330244  0  4.163947  0
C  C38  1  0.38881032  0.13911600  0.78264195  1  0  0.175904  0.332193  0  4.163647  0
C  C39  1  0.11119835  0.86088815  0.28263742  1  0  0.175875  0.332123  0  4.163291  0
C  C40  1  0.74973200  0.86082301  0.28266018  1  0  0.175475  0.330148  0  4.164112  0
C  C41  1  0.75026908  0.13917499  0.78267064  1  0  0.175574  0.330244  0  4.164159  0
C  C42  1  0.61119535  0.86088564  0.21736206  1  0  0.175897  0.332137  0  4.163371  0
C  C43  1  0.88880232  0.13911221  0.71735272  1  0  0.175944  0.332205  0  4.163809  0
N  N44  1  0.10125442  0.20256846  0.01986510  1  0  -0.230544  -0.231135  0  3.494054  0
N  N45  1  0.39874379  0.79743001  0.51986527  1  0  -0.230567  -0.231172  0  3.494072  0
N  N46  1  0.60125544  0.20257035  0.48013451  1  0  -0.230567  -0.231165  0  3.494085  0
N  N47  1  0.89874707  0.79743062  0.98013408  1  0  -0.23058  -0.231193  0  3.494116  0
N  N48  1  0.06134986  0.12271775  0.09089744  1  0  -0.105762  -0.042701  0  3.530147  0
N  N49  1  0.43864387  0.87728216  0.59089705  1  0  -0.105728  -0.042694  0  3.530105  0
N  N50  1  0.56135680  0.12271821  0.40910274  1  0  -0.105707  -0.042657  0  3.530042  0
N  N51  1  0.93865227  0.87728261  0.90910234  1  0  -0.105705  -0.042596  0  3.530082  0
N  N52  1  0.11878140  0.23764196  0.14980242  1  0  -0.081723  -0.065896  0  3.232098  0
N  N53  1  0.38121330  0.76235935  0.64980257  1  0  -0.081659  -0.065775  0  3.231998  0
N  N54  1  0.61878802  0.23764230  0.35019721  1  0  -0.081668  -0.065809  0  3.231996  0
N  N55  1  0.88121927  0.76235841  0.85019676  1  0  -0.081716  -0.065918  0  3.232097  0
N  N56  1  0.19766442  0.39550219  0.11789566  1  0  -0.203574  -0.230335  0  3.152139  0
N  N57  1  0.30233157  0.60449778  0.61789634  1  0  -0.203616  -0.230427  0  3.152189  0
N  N58  1  0.69766765  0.39550259  0.38210404  1  0  -0.20361  -0.230415  0  3.152217  0
N  N59  1  0.80233480  0.60449818  0.88210352  1  0  -0.203586  -0.230317  0  3.15222  0
N  N60  1  0.21169884  0.42348937  0.89653370  1  0  -0.309135  -0.293848  0  3.448209  0
N  N61  1  0.28830489  0.57650989  0.39653431  1  0  -0.309136  -0.293871  0  3.448181  0
N  N62  1  0.71169288  0.42349047  0.60346608  1  0  -0.309153  -0.293863  0  3.448126  0
N  N63  1  0.78830184  0.57651100  0.10346488  1  0  -0.30912  -0.293787  0  3.448108  0
N  N64  1  0.33122084  0.66268408  0.98721216  1  0  -0.298616  -0.281132  0  3.234162  0
N  N65  1  0.16877918  0.33731410  0.48721205  1  0  -0.298631  -0.281129  0  3.234169  0
N  N66  1  0.83121860  0.66268627  0.51278773  1  0  -0.298625  -0.281143  0  3.234071  0
N  N67  1  0.66877775  0.33731501  0.01278702  1  0  -0.298645  -0.281132  0  3.234143  0
O  O68  1  0.28108325  0.13626580  0.64246776  1  0  -0.29723  -0.458767  0  2.407447  0
O  O69  1  0.21891123  0.86373550  0.14246559  1  0  -0.297245  -0.458799  0  2.406991  0
O  O70  1  0.35505710  0.13617538  0.85751379  1  0  -0.297362  -0.45954  0  2.406869  0
O  O71  1  0.14495446  0.86383021  0.35751968  1  0  -0.297363  -0.459561  0  2.406251  0
O  O72  1  0.71891598  0.86373457  0.35753564  1  0  -0.297197  -0.458719  0  2.407189  0
O  O73  1  0.78108317  0.13626102  0.85752877  1  0  -0.297191  -0.458664  0  2.407866  0
O  O74  1  0.64494647  0.86382498  0.14248238  1  0  -0.297319  -0.459511  0  2.406436  0
O  O75  1  0.85505249  0.13617400  0.64249097  1  0  -0.297369  -0.459511  0  2.40744  0
O  O76  1  0.57029015  0.14064184  0.74869699  1  0  -0.128716  -0.236152  0  2.846833  0
O  O77  1  0.92971295  0.85936506  0.24869893  1  0  -0.128619  -0.235959  0  2.846793  0
O  O78  1  0.07029207  0.14063531  0.75130447  1  0  -0.128683  -0.236065  0  2.846802  0
O  O79  1  0.42971035  0.85936109  0.25130279  1  0  -0.128663  -0.236018  0  2.846855  0
