# generated using pymatgen
data_ZnH14C20N(O2F3)2
_symmetry_space_group_name_H-M   'P 1'
_cell_length_a   19.19333903
_cell_length_b   19.19333701
_cell_length_c   27.69073603
_cell_angle_alpha   110.27715334
_cell_angle_beta   110.27693154
_cell_angle_gamma   89.99621487
_symmetry_Int_Tables_number   1
_chemical_formula_structural   ZnH14C20N(O2F3)2
_chemical_formula_sum   'Zn8 H112 C160 N8 O32 F48'
_cell_volume   8891.75688096
_cell_formula_units_Z   8
loop_
 _symmetry_equiv_pos_site_id
 _symmetry_equiv_pos_as_xyz
  1  'x, y, z'
loop_
 _atom_site_type_symbol
 _atom_site_label
 _atom_site_symmetry_multiplicity
 _atom_site_fract_x
 _atom_site_fract_y
 _atom_site_fract_z
 _atom_site_occupancy
 _atom_site_pbe_bader_charge
 _atom_site_pbe_bader_spin_density
 _atom_site_pbe_cm5_charge
 _atom_site_pbe_ddec_charge
 _atom_site_pbe_ddec_spin_density
 _atom_site_pbe_ddec_sum_bond_order
 _atom_site_pbe_magmom
Zn  Zn0  1  0.56753879  0.49441051  0.48885530  1  1.284571  0  0.671608  0.825153  0  2.357008  0
Zn  Zn1  1  0.49440928  0.56753786  0.98885443  1  1.284579  0  0.671604  0.825122  0  2.35711  0
Zn  Zn2  1  0.92134343  0.49442961  0.48885952  1  1.281757  0  0.671745  0.825758  0  2.355128  0
Zn  Zn3  1  0.50556993  0.07865707  0.01114145  1  1.281603  0  0.671722  0.825737  0  2.355204  0
Zn  Zn4  1  0.49442847  0.92134333  0.98885850  1  1.282673  0  0.671834  0.825772  0  2.35491  0
Zn  Zn5  1  0.50558903  0.43246190  0.01114488  1  1.285719  0  0.671636  0.825202  0  2.356869  0
Zn  Zn6  1  0.43246115  0.50558973  0.51114507  1  1.285728  0  0.671652  0.825249  0  2.35692  0
Zn  Zn7  1  0.07865660  0.50556952  0.51114094  1  1.282681  0  0.671774  0.825774  0  2.355064  0
H  H8  1  0.48037760  0.23116337  0.08612767  1  0.084947  0  0.113596  0.100277  0  0.966575  0
H  H9  1  0.17681548  0.24853506  0.80895210  1  0.08997  0  0.097738  0.108284  0  1.017645  0
H  H10  1  0.69382593  0.41753051  0.61738130  1  0.078678  0  0.101863  0.101704  0  1.011962  0
H  H11  1  0.36786506  0.75149572  0.19104837  1  0.09145  0  0.097822  0.108432  0  1.018024  0
H  H12  1  0.48041206  0.35493943  0.08615383  1  0.090407  0  0.113551  0.100373  0  0.966302  0
H  H13  1  0.65647892  0.83122508  0.79437179  1  0.066034  0  0.103717  0.111543  0  0.99672  0
H  H14  1  0.19946045  0.62015819  0.52272722  1  0.073046  0  0.11633  0.105346  0  0.95657  0
H  H15  1  0.59746498  0.67672836  0.97725933  1  0.076233  0  0.116485  0.10563  0  0.956378  0
H  H16  1  0.23116265  0.48037778  0.58612741  1  0.084934  0  0.113566  0.100204  0  0.966627  0
H  H17  1  0.63213420  0.24850523  0.80895244  1  0.091496  0  0.097825  0.108405  0  1.018031  0
H  H18  1  0.62017705  0.32322587  0.02273883  1  0.083242  0  0.116599  0.105387  0  0.955881  0
H  H19  1  0.80052873  0.59750016  0.47728095  1  0.074322  0  0.116528  0.105334  0  0.956764  0
H  H20  1  0.84874647  0.26266773  0.36830689  1  0.082972  0  0.105248  0.108546  0  0.997937  0
H  H21  1  0.48045994  0.73735789  0.63167432  1  0.078154  0  0.10516  0.108462  0  0.999165  0
H  H22  1  0.75146389  0.82318350  0.69104736  1  0.089993  0  0.097747  0.10829  0  1.017636  0
H  H23  1  0.13796467  0.46315025  0.79441360  1  0.083718  0  0.103755  0.111627  0  0.997038  0
H  H24  1  0.07635076  0.58241661  0.38256743  1  0.086729  0  0.101696  0.101573  0  1.012644  0
H  H25  1  0.67677319  0.37982287  0.47726144  1  0.083227  0  0.116582  0.105361  0  0.955822  0
H  H26  1  0.60571716  0.35493525  0.08615963  1  0.090876  0  0.113644  0.10041  0  0.966526  0
H  H27  1  0.73733254  0.15125525  0.13169319  1  0.08295  0  0.10525  0.108541  0  0.997936  0
H  H28  1  0.37984152  0.80053880  0.97727190  1  0.073066  0  0.116304  0.105322  0  0.956552  0
H  H29  1  0.51435106  0.28022638  0.93656814  1  0.071838  0  0.110606  0.098699  0  0.991863  0
H  H30  1  0.60564370  0.51951791  0.86830857  1  0.080868  0  0.10525  0.108309  0  0.998914  0
H  H31  1  0.15635401  0.51434401  0.43654511  1  0.068781  0  0.110602  0.098448  0  0.992651  0
H  H32  1  0.26264285  0.51954004  0.86832645  1  0.078148  0  0.105144  0.108463  0  0.999154  0
H  H33  1  0.24850510  0.63213445  0.30895306  1  0.091481  0  0.097827  0.108429  0  1.018054  0
H  H34  1  0.46314877  0.13796445  0.29441337  1  0.083728  0  0.103763  0.11164  0  0.99706  0
H  H35  1  0.06038006  0.17677208  0.30895523  1  0.093999  0  0.097891  0.108198  0  1.017855  0
H  H36  1  0.46311225  0.65642311  0.29440128  1  0.071694  0  0.103726  0.111527  0  0.998106  0
H  H37  1  0.40253510  0.32327069  0.02274062  1  0.076208  0  0.116496  0.105663  0  0.956428  0
H  H38  1  0.67672948  0.59746472  0.47725933  1  0.076221  0  0.11646  0.105567  0  0.956426  0
H  H39  1  0.51434445  0.15635362  0.93654570  1  0.068829  0  0.110613  0.098476  0  0.992652  0
H  H40  1  0.60567728  0.84872353  0.86828712  1  0.076804  0  0.105329  0.108849  0  0.998079  0
H  H41  1  0.86200721  0.16879206  0.20562381  1  0.078039  0  0.103337  0.111083  0  0.997534  0
H  H42  1  0.58241737  0.07635261  0.88256876  1  0.086779  0  0.101709  0.101572  0  1.012611  0
H  H43  1  0.39432261  0.15127852  0.13171432  1  0.076824  0  0.105362  0.108919  0  0.998003  0
H  H44  1  0.19947161  0.40250000  0.52271927  1  0.074324  0  0.116531  0.105323  0  0.956791  0
H  H45  1  0.69984076  0.69382710  0.11740527  1  0.053933  0  0.101697  0.10207  0  1.012073  0
H  H46  1  0.36782810  0.93961173  0.19104655  1  0.083055  0  0.097897  0.108489  0  1.01771  0
H  H47  1  0.07639369  0.30010723  0.38260441  1  0.060262  0  0.101648  0.101614  0  1.01267  0
H  H48  1  0.76884453  0.39430919  0.41386038  1  0.086199  0  0.113606  0.100166  0  0.966631  0
H  H49  1  0.16879236  0.86200723  0.70562434  1  0.078037  0  0.103342  0.11109  0  0.99752  0
H  H50  1  0.48564902  0.71977267  0.06343181  1  0.071822  0  0.1106  0.098683  0  0.991918  0
H  H51  1  0.35493881  0.48041144  0.58615342  1  0.089901  0  0.113548  0.100379  0  0.966316  0
H  H52  1  0.64506140  0.51958817  0.41384666  1  0.089899  0  0.11353  0.100359  0  0.966343  0
H  H53  1  0.15127700  0.39432247  0.63171330  1  0.076793  0  0.105356  0.108914  0  0.998013  0
H  H54  1  0.30010769  0.07639468  0.88260489  1  0.060273  0  0.101657  0.101601  0  1.012622  0
H  H55  1  0.32322702  0.62017674  0.52273864  1  0.083238  0  0.116592  0.105378  0  0.955807  0
H  H56  1  0.40249956  0.19947212  0.02271955  1  0.07432  0  0.116517  0.105308  0  0.956788  0
H  H57  1  0.86203450  0.53685006  0.20558656  1  0.083717  0  0.103759  0.111631  0  0.997025  0
H  H58  1  0.57778442  0.84363470  0.06346805  1  0.082862  0  0.110566  0.098739  0  0.991688  0
H  H59  1  0.34352061  0.16877523  0.20562873  1  0.066239  0  0.103707  0.111383  0  0.996696  0
H  H60  1  0.34357646  0.53688752  0.20559870  1  0.071856  0  0.103731  0.111526  0  0.998071  0
H  H61  1  0.24853510  0.17681634  0.30895318  1  0.089977  0  0.097732  0.108275  0  1.017631  0
H  H62  1  0.42221502  0.15636498  0.93653183  1  0.082841  0  0.110556  0.09873  0  0.991689  0
H  H63  1  0.17677123  0.06038102  0.80895575  1  0.093974  0  0.097885  0.10819  0  1.017895  0
H  H64  1  0.16877476  0.34351992  0.70562835  1  0.066243  0  0.103716  0.11139  0  0.996647  0
H  H65  1  0.83120785  0.13799238  0.29437574  1  0.078052  0  0.103336  0.111098  0  0.997498  0
H  H66  1  0.53685058  0.86203460  0.70558585  1  0.083729  0  0.103742  0.111634  0  0.997121  0
H  H67  1  0.84364543  0.48565567  0.56345477  1  0.06879  0  0.110594  0.098462  0  0.992652  0
H  H68  1  0.84363433  0.57778506  0.56346815  1  0.082851  0  0.110561  0.098722  0  0.991672  0
H  H69  1  0.15125428  0.73733235  0.63169317  1  0.082942  0  0.105239  0.108548  0  0.997987  0
H  H70  1  0.41758288  0.92364866  0.11743136  1  0.086788  0  0.1017  0.10155  0  1.012669  0
H  H71  1  0.30617223  0.30015939  0.38259523  1  0.054014  0  0.101687  0.102052  0  1.012087  0
H  H72  1  0.69382717  0.69984037  0.61740516  1  0.053923  0  0.101708  0.10208  0  1.012074  0
H  H73  1  0.39428287  0.64506388  0.91384083  1  0.09087  0  0.113648  0.100211  0  0.966468  0
H  H74  1  0.93962019  0.82322745  0.69104433  1  0.094011  0  0.097881  0.10818  0  1.017869  0
H  H75  1  0.28022687  0.51435058  0.43656795  1  0.07181  0  0.110603  0.098683  0  0.991892  0
H  H76  1  0.82322735  0.93961985  0.19104383  1  0.09401  0  0.097855  0.108134  0  1.017914  0
H  H77  1  0.92360656  0.69989230  0.61739516  1  0.059517  0  0.101658  0.101636  0  1.012654  0
H  H78  1  0.32327073  0.40253488  0.52274075  1  0.076232  0  0.116463  0.105583  0  0.956406  0
H  H79  1  0.30015945  0.30617076  0.88259425  1  0.053918  0  0.101702  0.102064  0  1.01208  0
H  H80  1  0.06038736  0.63217195  0.30895259  1  0.082976  0  0.097909  0.108516  0  1.017725  0
H  H81  1  0.13799273  0.83120818  0.79437656  1  0.078048  0  0.103341  0.11108  0  0.997504  0
H  H82  1  0.65642321  0.46311257  0.79440028  1  0.071835  0  0.103726  0.111493  0  0.998034  0
H  H83  1  0.75149385  0.36786468  0.69104632  1  0.091493  0  0.097845  0.108436  0  1.018058  0
H  H84  1  0.82318279  0.75146304  0.19104717  1  0.0897  0  0.097758  0.108316  0  1.017624  0
H  H85  1  0.51951694  0.60564317  0.36830839  1  0.081023  0  0.105246  0.108322  0  0.998865  0
H  H86  1  0.26266789  0.84874650  0.86830655  1  0.082947  0  0.105196  0.108519  0  0.998048  0
H  H87  1  0.69989269  0.92360714  0.11739536  1  0.059507  0  0.101653  0.1016  0  1.012706  0
H  H88  1  0.64506533  0.39428239  0.41384084  1  0.090903  0  0.113645  0.100192  0  0.966495  0
H  H89  1  0.62015856  0.19946025  0.02272805  1  0.073056  0  0.116297  0.105307  0  0.95653  0
H  H90  1  0.63217278  0.06038891  0.80895364  1  0.082968  0  0.097905  0.108521  0  1.017729  0
H  H91  1  0.39435619  0.48048337  0.13169119  1  0.080936  0  0.105233  0.10833  0  0.998734  0
H  H92  1  0.71977257  0.48564911  0.56343193  1  0.071806  0  0.110598  0.098673  0  0.9919  0
H  H93  1  0.59749997  0.80052819  0.97728097  1  0.074488  0  0.116526  0.105325  0  0.95677  0
H  H94  1  0.48048281  0.39435659  0.63169236  1  0.081003  0  0.105254  0.108329  0  0.998904  0
H  H95  1  0.42222460  0.28022179  0.93655444  1  0.073516  0  0.110513  0.098827  0  0.992136  0
H  H96  1  0.71977667  0.57777585  0.56344536  1  0.073493  0  0.110497  0.098775  0  0.99216  0
H  H97  1  0.41753077  0.69382676  0.11738234  1  0.078692  0  0.101873  0.101745  0  1.011922  0
H  H98  1  0.92364904  0.41758308  0.61743281  1  0.086743  0  0.1017  0.101562  0  1.012648  0
H  H99  1  0.51962275  0.76883679  0.91387254  1  0.084945  0  0.113561  0.100206  0  0.96665  0
H  H100  1  0.48565522  0.84364551  0.06345440  1  0.068782  0  0.110612  0.098483  0  0.992641  0
H  H101  1  0.93961154  0.36782725  0.69104731  1  0.082954  0  0.097893  0.10851  0  1.017741  0
H  H102  1  0.76883756  0.51962182  0.41387268  1  0.084944  0  0.113568  0.100215  0  0.966609  0
H  H103  1  0.23115545  0.60569097  0.58613948  1  0.086202  0  0.113604  0.100149  0  0.966654  0
H  H104  1  0.60568989  0.23115576  0.08614009  1  0.086187  0  0.113603  0.100168  0  0.966681  0
H  H105  1  0.53688755  0.34357657  0.70559895  1  0.071846  0  0.10371  0.111502  0  0.998125  0
H  H106  1  0.58247016  0.30617459  0.88261902  1  0.078369  0  0.101821  0.101621  0  1.011996  0
H  H107  1  0.15636511  0.42221463  0.43653172  1  0.082841  0  0.110561  0.098719  0  0.991647  0
H  H108  1  0.57777552  0.71977718  0.06344500  1  0.073523  0  0.110516  0.098831  0  0.992115  0
H  H109  1  0.51954068  0.26264164  0.36832561  1  0.07815  0  0.105164  0.108483  0  0.999185  0
H  H110  1  0.80053940  0.37984142  0.47727250  1  0.073041  0  0.116317  0.105333  0  0.95661  0
H  H111  1  0.39430991  0.76884393  0.91386015  1  0.086194  0  0.113596  0.100152  0  0.96667  0
H  H112  1  0.35493452  0.60571722  0.58615888  1  0.090901  0  0.113653  0.100204  0  0.966473  0
H  H113  1  0.51958815  0.64506018  0.91384625  1  0.090418  0  0.113544  0.10039  0  0.96629  0
H  H114  1  0.84872244  0.60567721  0.36828657  1  0.07679  0  0.105363  0.108923  0  0.998016  0
H  H115  1  0.28022201  0.42222391  0.43655431  1  0.073501  0  0.110502  0.098802  0  0.992131  0
H  H116  1  0.73735772  0.48045956  0.13167399  1  0.078134  0  0.105146  0.108441  0  0.999181  0
H  H117  1  0.83122504  0.65647976  0.29437189  1  0.066234  0  0.103727  0.111413  0  0.996687  0
H  H118  1  0.30617351  0.58246918  0.38261857  1  0.078657  0  0.101852  0.101691  0  1.011968  0
H  H119  1  0.37982290  0.67677262  0.97726098  1  0.083237  0  0.116585  0.105382  0  0.955832  0
C  C120  1  0.64676561  0.94388130  0.79537330  1  -0.066534  0  -0.015168  0.089299  0  3.943278  0
C  C121  1  0.76662221  0.33989579  0.78012303  1  1.718085  0  0.30039  0.679282  0  3.977879  0
C  C122  1  0.26423130  0.02263519  0.86276504  1  0.015956  0  -0.083594  -0.079528  0  3.979345  0
C  C123  1  0.65992010  0.73571030  0.63727088  1  0.093268  0  -0.083548  -0.080533  0  3.979279  0
C  C124  1  0.46013864  0.24321022  0.35485240  1  0.004579  0  -0.082773  -0.083514  0  3.978137  0
C  C125  1  0.76842250  0.41495345  0.45598482  1  0.20791  0  -0.06549  -0.088696  0  3.818391  0
C  C126  1  0.94020415  0.76662362  0.28012364  1  1.717273  0  0.301372  0.68163  0  3.975671  0
C  C127  1  0.01353621  0.94020642  0.78013149  1  1.708365  0  0.30103  0.681024  0  3.977224  0
C  C128  1  0.98686623  0.80539003  0.67898461  1  -0.039177  0  -0.097351  -0.137442  0  3.986538  0
C  C129  1  0.23337687  0.66010389  0.21987649  1  1.718081  0  0.300383  0.679303  0  3.977796  0
C  C130  1  0.41495372  0.76842157  0.95598426  1  0.207879  0  -0.065462  -0.088711  0  3.818457  0
C  C131  1  0.58383463  0.40980867  0.62020858  1  -0.11733  0  -0.016368  -0.026722  0  3.967584  0
C  C132  1  0.05979368  0.98646357  0.71986929  1  1.708366  0  0.301036  0.680935  0  3.977437  0
C  C133  1  0.37361241  0.98686680  0.17899934  1  0.003625  0  -0.096809  -0.137443  0  3.985882  0
C  C134  1  0.94020708  0.01353652  0.28013077  1  1.708358  0  0.301097  0.681041  0  3.97735  0
C  C135  1  0.64854062  0.35326097  0.70461198  1  -0.042176  0  -0.015005  0.08941  0  3.943908  0
C  C136  1  0.59015015  0.96351284  0.87972084  1  -0.036343  0  -0.01687  -0.026895  0  3.967169  0
C  C137  1  0.54111236  0.76841001  0.95599575  1  0.211463  0  -0.065805  -0.0887  0  3.81743  0
C  C138  1  0.85135857  0.64851207  0.20460343  1  -0.034384  0  -0.015366  0.089069  0  3.946043  0
C  C139  1  0.65992641  0.40151056  0.63724524  1  0.04702  0  -0.083728  -0.079996  0  3.978465  0
C  C140  1  0.88512115  0.17346858  0.31337475  1  0.010858  0  -0.090925  -0.130202  0  3.981011  0
C  C141  1  0.61161958  0.46012619  0.85485398  1  -0.042832  0  -0.082832  -0.083843  0  3.975569  0
C  C142  1  0.28962542  0.41618203  0.87978060  1  -0.106035  0  -0.016447  -0.028958  0  3.970462  0
C  C143  1  0.55030725  0.63445226  0.57625150  1  1.586893  0  0.216307  0.592536  0  4.17298  0
C  C144  1  0.54108047  0.68758626  0.95597675  1  0.21366  0  -0.065752  -0.088739  0  3.818448  0
C  C145  1  0.41618401  0.28962530  0.37978226  1  -0.106415  0  -0.016456  -0.029039  0  3.970516  0
C  C146  1  0.76841072  0.54111184  0.45599571  1  0.211637  0  -0.065789  -0.088656  0  3.817426  0
C  C147  1  0.36552744  0.97394482  0.92369344  1  1.571181  0  0.216577  0.593663  0  4.172984  0
C  C148  1  0.66010352  0.23337642  0.71987538  1  1.718112  0  0.300276  0.679036  0  3.977953  0
C  C149  1  0.55814315  0.97389770  0.92364930  1  1.566098  0  0.216438  0.593265  0  4.173111  0
C  C150  1  0.52143819  0.81160968  0.04289224  1  0.236506  0  -0.072047  -0.091802  0  3.821444  0
C  C151  1  0.28959549  0.96356950  0.87977647  1  -0.022014  0  -0.01605  -0.029318  0  3.968879  0
C  C152  1  0.68758690  0.54108047  0.45597670  1  0.214188  0  -0.06574  -0.088663  0  3.818501  0
C  C153  1  0.35326304  0.64854157  0.20461277  1  -0.042191  0  -0.015072  0.089418  0  3.943787  0
C  C154  1  0.35323532  0.05611831  0.20462751  1  -0.06594  0  -0.015049  0.08949  0  3.94303  0
C  C155  1  0.23157785  0.58504671  0.54401539  1  0.207888  0  -0.065507  -0.088716  0  3.818403  0
C  C156  1  0.69216542  0.80534026  0.67899979  1  -0.061282  0  -0.096883  -0.13702  0  3.986179  0
C  C157  1  0.19460874  0.01313560  0.82101624  1  -0.039154  0  -0.097391  -0.137607  0  3.986529  0
C  C158  1  0.63445323  0.55030030  0.07624954  1  1.587237  0  0.216128  0.592309  0  4.173246  0
C  C159  1  0.52143006  0.73123597  0.04286785  1  0.225144  0  -0.072466  -0.092359  0  3.821623  0
C  C160  1  0.80539124  0.98686630  0.17898416  1  -0.038935  0  -0.097337  -0.137429  0  3.986558  0
C  C161  1  0.45891933  0.31241342  0.04402349  1  0.213671  0  -0.065781  -0.088782  0  3.818607  0
C  C162  1  0.02604756  0.63447345  0.57630465  1  1.571271  0  0.216608  0.593782  0  4.17291  0
C  C163  1  0.69219579  0.37366541  0.67900654  1  -0.044023  0  -0.09716  -0.138063  0  3.987231  0
C  C164  1  0.38838153  0.53987659  0.14514587  1  -0.043033  0  -0.082746  -0.082971  0  3.976058  0
C  C165  1  0.17345095  0.42822613  0.81340636  1  -0.058048  0  -0.091439  -0.130737  0  3.981706  0
C  C166  1  0.17346790  0.88512126  0.81337477  1  0.010876  0  -0.090951  -0.130086  0  3.980945  0
C  C167  1  0.44969327  0.36554742  0.42374946  1  1.587056  0  0.216383  0.592772  0  4.173085  0
C  C168  1  0.57180278  0.36005912  0.68660194  1  0.017655  0  -0.091498  -0.131412  0  3.981269  0
C  C169  1  0.75678745  0.53986078  0.14514637  1  0.004286  0  -0.082776  -0.083496  0  3.977944  0
C  C170  1  0.05979655  0.23337654  0.71987694  1  1.717246  0  0.30142  0.681735  0  3.975452  0
C  C171  1  0.53986148  0.75678876  0.64514704  1  0.004271  0  -0.0828  -0.083492  0  3.978053  0
C  C172  1  0.80533925  0.69216519  0.17899999  1  -0.061011  0  -0.09693  -0.137096  0  3.986247  0
C  C173  1  0.89463442  0.61163623  0.35480027  1  -0.058434  0  -0.082753  -0.084776  0  3.974322  0
C  C174  1  0.03648782  0.40985032  0.62028033  1  -0.036349  0  -0.016881  -0.026976  0  3.967303  0
C  C175  1  0.26428768  0.34007826  0.86272794  1  0.093211  0  -0.083519  -0.080464  0  3.979368  0
C  C176  1  0.61163651  0.89463478  0.85480103  1  -0.058461  0  -0.082688  -0.084624  0  3.974318  0
C  C177  1  0.44179290  0.55032935  0.07626261  1  1.579391  0  0.215824  0.592635  0  4.175606  0
C  C178  1  0.37366682  0.69219613  0.17900768  1  -0.044033  0  -0.097114  -0.138012  0  3.98706  0
C  C179  1  0.05611762  0.35323393  0.70462685  1  -0.066055  0  -0.015108  0.089347  0  3.943068  0
C  C180  1  0.40151014  0.65992926  0.13724615  1  0.046684  0  -0.083721  -0.079185  0  3.979161  0
C  C181  1  0.62638933  0.01313440  0.82100171  1  0.003691  0  -0.096851  -0.137474  0  3.985943  0
C  C182  1  0.53987402  0.38838103  0.64514566  1  -0.043147  0  -0.082821  -0.083878  0  3.975454  0
C  C183  1  0.02263590  0.26423123  0.36276497  1  0.015981  0  -0.083661  -0.079704  0  3.979425  0
C  C184  1  0.10536529  0.38836457  0.64519987  1  -0.058405  0  -0.082709  -0.084729  0  3.974184  0
C  C185  1  0.30783474  0.19466117  0.32100137  1  -0.061277  0  -0.096891  -0.137034  0  3.986124  0
C  C186  1  0.67971055  0.92969008  0.74999013  1  0.051435  0  -0.011529  -0.274637  0  3.850113  0
C  C187  1  0.97390207  0.55814283  0.42364881  1  1.565825  0  0.216454  0.59332  0  4.173107  0
C  C188  1  0.34007312  0.59848976  0.36275529  1  0.04703  0  -0.083704  -0.079927  0  3.978421  0
C  C189  1  0.94388169  0.64676520  0.29537289  1  -0.066047  0  -0.015095  0.089426  0  3.943141  0
C  C190  1  0.40980936  0.58383683  0.12020954  1  -0.117094  0  -0.016412  -0.029409  0  3.971384  0
C  C191  1  0.97740589  0.40154770  0.63728773  1  -0.004265  0  -0.083852  -0.080748  0  3.978503  0
C  C192  1  0.23337659  0.05979614  0.21987696  1  1.717257  0  0.301394  0.681642  0  3.975643  0
C  C193  1  0.58504636  0.23157748  0.04401569  1  0.207906  0  -0.065446  -0.088632  0  3.818359  0
C  C194  1  0.59849083  0.34007375  0.86275525  1  0.047342  0  -0.083667  -0.079799  0  3.978423  0
C  C195  1  0.01313282  0.62638763  0.32100036  1  0.003715  0  -0.096779  -0.137387  0  3.985788  0
C  C196  1  0.63998038  0.88513437  0.81336755  1  0.008599  0  -0.091598  -0.130968  0  3.979202  0
C  C197  1  0.58507360  0.31239924  0.04403173  1  0.20545  0  -0.065657  -0.087626  0  3.816978  0
C  C198  1  0.42822575  0.17345049  0.31340633  1  -0.057949  0  -0.09142  -0.130715  0  3.981824  0
C  C199  1  0.63447196  0.02603488  0.07630248  1  1.57162  0  0.216588  0.593971  0  4.172519  0
C  C200  1  0.96351081  0.59014952  0.37971985  1  -0.036353  0  -0.016902  -0.026955  0  3.967358  0
C  C201  1  0.01313398  0.19460957  0.32101547  1  -0.039168  0  -0.097369  -0.137512  0  3.986563  0
C  C202  1  0.92966920  0.07033050  0.24999950  1  0.057409  0  -0.012237  -0.276116  0  3.853662  0
C  C203  1  0.82654926  0.57177347  0.18659372  1  -0.057929  0  -0.091407  -0.130689  0  3.981559  0
C  C204  1  0.46012546  0.61161936  0.35485538  1  -0.043131  0  -0.082829  -0.083909  0  3.97551  0
C  C205  1  0.41616621  0.59019204  0.37979213  1  -0.117514  0  -0.016343  -0.026681  0  3.96767  0
C  C206  1  0.94386375  0.14865226  0.29538274  1  -0.092442  0  -0.01453  0.090386  0  3.944877  0
C  C207  1  0.11486591  0.36001889  0.68663301  1  0.007905  0  -0.091646  -0.13075  0  3.978723  0
C  C208  1  0.64673865  0.35146066  0.79538767  1  -0.042148  0  -0.015081  0.089278  0  3.94385  0
C  C209  1  0.45888757  0.23159023  0.04400461  1  0.211615  0  -0.065768  -0.088626  0  3.817418  0
C  C210  1  0.02609787  0.44185566  0.57635100  1  1.566043  0  0.216499  0.593447  0  4.172977  0
C  C211  1  0.33986315  0.01349787  0.28014079  1  1.721865  0  0.29996  0.679673  0  3.977459  0
C  C212  1  0.40985132  0.03648899  0.12028050  1  -0.03637  0  -0.016896  -0.026923  0  3.967317  0
C  C213  1  0.23158949  0.45888777  0.54400437  1  0.211626  0  -0.065805  -0.088653  0  3.817504  0
C  C214  1  0.71040638  0.03643242  0.12022191  1  -0.021943  0  -0.016102  -0.029431  0  3.969064  0
C  C215  1  0.89466700  0.24322463  0.35483174  1  -0.038272  0  -0.083087  -0.08373  0  3.975986  0
C  C216  1  0.55820946  0.44967835  0.92373794  1  1.579199  0  0.215488  0.591649  0  4.175841  0
C  C217  1  0.36554799  0.44969537  0.92374707  1  1.587153  0  0.216339  0.59252  0  4.173035  0
C  C218  1  0.85134831  0.05613564  0.20461655  1  -0.092679  0  -0.014509  0.090373  0  3.944941  0
C  C219  1  0.98646337  0.05979382  0.21986852  1  1.708358  0  0.301017  0.680981  0  3.977242  0
C  C220  1  0.44185717  0.02609365  0.07635145  1  1.565614  0  0.216324  0.593086  0  4.173172  0
C  C221  1  0.33989632  0.76662319  0.28012434  1  1.718166  0  0.300335  0.679191  0  3.977919  0
C  C222  1  0.68760065  0.41492605  0.45596834  1  0.20544  0  -0.065604  -0.087169  0  3.816512  0
C  C223  1  0.92968943  0.67971116  0.24998953  1  0.051454  0  -0.011547  -0.274671  0  3.850152  0
C  C224  1  0.44967599  0.55820806  0.42373717  1  1.57923  0  0.215536  0.591571  0  4.175796  0
C  C225  1  0.40154861  0.97740661  0.13728799  1  -0.004364  0  -0.083833  -0.080744  0  3.978679  0
C  C226  1  0.97736444  0.73576893  0.63723524  1  0.016724  0  -0.083661  -0.079751  0  3.979473  0
C  C227  1  0.58381687  0.71037438  0.62021906  1  -0.10613  0  -0.016471  -0.028997  0  3.970518  0
C  C228  1  0.76662281  0.94020362  0.78012343  1  1.717246  0  0.301402  0.681644  0  3.975532  0
C  C229  1  0.14864046  0.35148769  0.79539660  1  -0.034084  0  -0.01536  0.089106  0  3.945888  0
C  C230  1  0.62633398  0.30780466  0.82099355  1  -0.04399  0  -0.097152  -0.138065  0  3.987188  0
C  C231  1  0.98686636  0.37361094  0.67899925  1  0.0037  0  -0.096766  -0.137408  0  3.985838  0
C  C232  1  0.24322558  0.89466673  0.85483247  1  -0.038195  0  -0.083104  -0.083929  0  3.976039  0
C  C233  1  0.35145883  0.64673871  0.29538790  1  -0.042185  0  -0.015021  0.089398  0  3.943846  0
C  C234  1  0.55032354  0.44179226  0.57626335  1  1.579154  0  0.215671  0.591829  0  4.17554  0
C  C235  1  0.26876399  0.47856936  0.45713220  1  0.225177  0  -0.07247  -0.092357  0  3.821543  0
C  C236  1  0.32030123  0.67969928  0.25000086  1  0.061488  0  -0.011676  -0.27318  0  3.848862  0
C  C237  1  0.63994090  0.42819843  0.81339905  1  0.017425  0  -0.091467  -0.13131  0  3.981288  0
C  C238  1  0.42819702  0.63994056  0.31339829  1  0.017867  0  -0.091485  -0.13138  0  3.981187  0
C  C239  1  0.96356810  0.28959487  0.37977790  1  -0.021938  0  -0.016097  -0.029438  0  3.969059  0
C  C240  1  0.18838942  0.47856207  0.45710796  1  0.236516  0  -0.071986  -0.091614  0  3.82127  0
C  C241  1  0.73123559  0.52143088  0.54286781  1  0.225188  0  -0.072458  -0.092316  0  3.821587  0
C  C242  1  0.14865212  0.94386341  0.79538375  1  -0.092424  0  -0.014476  0.090448  0  3.944856  0
C  C243  1  0.71037393  0.58381702  0.12021863  1  -0.106052  0  -0.016446  -0.028942  0  3.970478  0
C  C244  1  0.38836442  0.10536657  0.14520033  1  -0.058443  0  -0.082689  -0.084659  0  3.974192  0
C  C245  1  0.81161016  0.52143817  0.54289205  1  0.236506  0  -0.072016  -0.091677  0  3.821355  0
C  C246  1  0.01349797  0.33986402  0.78014110  1  1.721868  0  0.300024  0.679666  0  3.977548  0
C  C247  1  0.88513313  0.63998087  0.31336701  1  0.007882  0  -0.091635  -0.13078  0  3.978883  0
C  C248  1  0.59019210  0.41616674  0.87979236  1  -0.117424  0  -0.016327  -0.026781  0  3.967607  0
C  C249  1  0.36001965  0.11486650  0.18663347  1  0.007778  0  -0.091672  -0.130859  0  3.978952  0
C  C250  1  0.82653186  0.11487945  0.18662486  1  0.010911  0  -0.090968  -0.130185  0  3.981013  0
C  C251  1  0.07031127  0.32028900  0.75001105  1  0.051438  0  -0.011524  -0.274573  0  3.850034  0
C  C252  1  0.31241268  0.45891977  0.54402331  1  0.214181  0  -0.065758  -0.088694  0  3.818512  0
C  C253  1  0.57177382  0.82654975  0.68659367  1  -0.057951  0  -0.09144  -0.130786  0  3.981926  0
C  C254  1  0.66013638  0.98650245  0.71985973  1  1.721847  0  0.29997  0.679641  0  3.977633  0
C  C255  1  0.31239879  0.58507364  0.54403153  1  0.205437  0  -0.065611  -0.087183  0  3.816483  0
C  C256  1  0.75677413  0.10533232  0.14516711  1  -0.03827  0  -0.083082  -0.083772  0  3.97606  0
C  C257  1  0.47856974  0.26876371  0.95713239  1  0.22515  0  -0.072495  -0.092359  0  3.821566  0
C  C258  1  0.30780406  0.62633420  0.32099318  1  -0.044015  0  -0.097159  -0.138099  0  3.987281  0
C  C259  1  0.36005926  0.57180300  0.18660210  1  0.017679  0  -0.091515  -0.131399  0  3.980928  0
C  C260  1  0.24321000  0.46013843  0.85485208  1  0.004062  0  -0.082794  -0.083561  0  3.978067  0
C  C261  1  0.73571117  0.65992024  0.13727079  1  0.093237  0  -0.083532  -0.080526  0  3.979304  0
C  C262  1  0.10533366  0.75677482  0.64516767  1  -0.038267  0  -0.083153  -0.083882  0  3.976023  0
C  C263  1  0.07033101  0.92966911  0.75000058  1  0.057408  0  -0.012291  -0.2762  0  3.853754  0
C  C264  1  0.73576882  0.97736378  0.13723440  1  0.01672  0  -0.08366  -0.079724  0  3.979438  0
C  C265  1  0.98650184  0.66013566  0.21985914  1  1.721873  0  0.300004  0.679611  0  3.977564  0
C  C266  1  0.64851158  0.85135944  0.70460342  1  -0.034387  0  -0.015325  0.089126  0  3.946069  0
C  C267  1  0.59845296  0.02259410  0.86271344  1  -0.004307  0  -0.083793  -0.080719  0  3.978586  0
C  C268  1  0.03643112  0.71040537  0.62022174  1  -0.021947  0  -0.016082  -0.029358  0  3.968992  0
C  C269  1  0.32028898  0.07031023  0.25001039  1  0.051437  0  -0.011505  -0.274604  0  3.849951  0
C  C270  1  0.67969857  0.32030041  0.74999938  1  0.061443  0  -0.011683  -0.273093  0  3.848748  0
C  C271  1  0.47856112  0.18838944  0.95710750  1  0.23646  0  -0.072054  -0.091755  0  3.821389  0
C  C272  1  0.34008006  0.26428938  0.36272971  1  0.093161  0  -0.083545  -0.080516  0  3.97928  0
C  C273  1  0.05613646  0.85134735  0.70461734  1  -0.092422  0  -0.014531  0.090348  0  3.944804  0
C  C274  1  0.97395378  0.36552704  0.42369487  1  1.571174  0  0.216701  0.593946  0  4.172666  0
C  C275  1  0.02259378  0.59845143  0.36271237  1  -0.004272  0  -0.083816  -0.080779  0  3.978489  0
C  C276  1  0.11487961  0.82653150  0.68662531  1  0.010868  0  -0.090908  -0.130102  0  3.980915  0
C  C277  1  0.41492661  0.68760036  0.95596835  1  0.205186  0  -0.065622  -0.087266  0  3.816578  0
C  C278  1  0.35148763  0.14864080  0.29539623  1  -0.034374  0  -0.015365  0.089081  0  3.945928  0
C  C279  1  0.19466083  0.30783386  0.82099995  1  -0.061266  0  -0.096896  -0.137089  0  3.986273  0
N  N280  1  0.80961837  0.49251790  0.48498542  1  -0.990338  0  -0.337246  -0.103665  0  3.445814  0
N  N281  1  0.50748172  0.19038189  0.01501485  1  -0.990305  0  -0.337237  -0.103583  0  3.445738  0
N  N282  1  0.19038162  0.50748226  0.51501444  1  -0.990325  0  -0.337257  -0.10368  0  3.445844  0
N  N283  1  0.49248904  0.67536320  0.98495651  1  -0.983979  0  -0.337307  -0.105604  0  3.447657  0
N  N284  1  0.49251731  0.80961787  0.98498518  1  -0.990309  0  -0.337238  -0.103535  0  3.445726  0
N  N285  1  0.67536360  0.49248918  0.48495663  1  -0.984274  0  -0.337297  -0.105674  0  3.447649  0
N  N286  1  0.32463585  0.50751051  0.51504324  1  -0.984257  0  -0.337298  -0.105675  0  3.447643  0
N  N287  1  0.50751063  0.32463593  0.01504360  1  -0.984261  0  -0.33731  -0.105675  0  3.447689  0
O  O288  1  0.95929988  0.60036083  0.54991216  1  -1.182461  0  -0.31689  -0.560426  0  2.355526  0
O  O289  1  0.55051671  0.40929766  0.95011902  1  -1.170138  0  -0.316168  -0.559241  0  2.357626  0
O  O290  1  0.59069843  0.60035097  0.54989237  1  -1.182999  0  -0.316424  -0.559448  0  2.35654  0
O  O291  1  0.54074014  0.91534016  0.93102767  1  -1.156884  0  -0.316791  -0.548932  0  2.331119  0
O  O292  1  0.60968477  0.08461294  0.06892957  1  -1.160917  0  -0.316931  -0.54902  0  2.330103  0
O  O293  1  0.91538839  0.39031440  0.43107145  1  -1.160787  0  -0.316886  -0.548855  0  2.330564  0
O  O294  1  0.48440179  0.45924564  0.56890163  1  -1.17205  0  -0.316517  -0.548609  0  2.3307  0
O  O295  1  0.60968324  0.48436405  0.06886448  1  -1.17202  0  -0.316598  -0.547842  0  2.329635  0
O  O296  1  0.39963860  0.04070171  0.95008693  1  -1.182209  0  -0.316952  -0.560462  0  2.355048  0
O  O297  1  0.95934880  0.44956089  0.54994377  1  -1.181711  0  -0.316617  -0.560497  0  2.35427  0
O  O298  1  0.04064788  0.55043918  0.45005615  1  -1.181695  0  -0.316591  -0.560443  0  2.354482  0
O  O299  1  0.04069883  0.39963885  0.45008699  1  -1.182276  0  -0.316895  -0.560456  0  2.355604  0
O  O300  1  0.45924811  0.48440667  0.06890084  1  -1.171933  0  -0.3166  -0.548605  0  2.330405  0
O  O301  1  0.44956209  0.95935335  0.04994425  1  -1.181746  0  -0.316544  -0.560328  0  2.354777  0
O  O302  1  0.51559960  0.54075381  0.43109850  1  -1.171983  0  -0.316374  -0.548422  0  2.330646  0
O  O303  1  0.39964962  0.40930042  0.95010678  1  -1.183159  0  -0.316504  -0.559527  0  2.356261  0
O  O304  1  0.60036472  0.95930196  0.04991345  1  -1.182573  0  -0.31673  -0.560233  0  2.355873  0
O  O305  1  0.51564050  0.39032005  0.43113387  1  -1.171983  0  -0.31669  -0.548127  0  2.329127  0
O  O306  1  0.48436196  0.60968036  0.56886622  1  -1.171946  0  -0.316718  -0.548086  0  2.329208  0
O  O307  1  0.40930450  0.39964833  0.45010818  1  -1.183159  0  -0.316567  -0.559688  0  2.356833  0
O  O308  1  0.08465763  0.45925611  0.56897058  1  -1.156684  0  -0.316773  -0.548949  0  2.331062  0
O  O309  1  0.54075461  0.51560296  0.93109782  1  -1.172081  0  -0.316331  -0.548446  0  2.330558  0
O  O310  1  0.60035091  0.59069709  0.04988635  1  -1.183328  0  -0.316401  -0.559487  0  2.356331  0
O  O311  1  0.39031905  0.51563528  0.93113152  1  -1.17212  0  -0.316698  -0.548022  0  2.329507  0
O  O312  1  0.55044014  0.04065014  0.95005785  1  -1.181568  0  -0.316573  -0.560399  0  2.354285  0
O  O313  1  0.44948744  0.59071624  0.04988388  1  -1.170441  0  -0.31619  -0.559191  0  2.357004  0
O  O314  1  0.08461055  0.60968647  0.56892848  1  -1.160885  0  -0.316766  -0.548704  0  2.330752  0
O  O315  1  0.39031118  0.91538984  0.93106907  1  -1.160887  0  -0.316717  -0.548596  0  2.331277  0
O  O316  1  0.91533941  0.54074222  0.43102914  1  -1.156462  0  -0.316787  -0.548916  0  2.330901  0
O  O317  1  0.45925979  0.08466278  0.06897213  1  -1.156166  0  -0.316717  -0.548847  0  2.330642  0
O  O318  1  0.59070814  0.44948628  0.54988207  1  -1.170215  0  -0.316164  -0.559293  0  2.357328  0
O  O319  1  0.40929302  0.55051372  0.45011784  1  -1.170211  0  -0.316198  -0.559249  0  2.357459  0
F  F320  1  0.94298804  0.30345916  0.74746827  1  -0.615258  0  -0.098747  -0.204425  0  1.363787  0
F  F321  1  0.96533835  0.67783724  0.17385862  1  -0.608103  0  -0.103866  -0.203701  0  1.301286  0
F  F322  1  0.67783731  0.96533824  0.67385924  1  -0.608081  0  -0.103874  -0.203733  0  1.301268  0
F  F323  1  0.11793602  0.99114286  0.70297839  1  -0.616357  0  -0.103149  -0.208319  0  1.291236  0
F  F324  1  0.88206459  0.00885667  0.29702153  1  -0.616337  0  -0.103175  -0.208366  0  1.291204  0
F  F325  1  0.05698279  0.05605540  0.25254464  1  -0.608268  0  -0.098885  -0.204892  0  1.363982  0
F  F326  1  0.03469839  0.00390785  0.82612907  1  -0.603288  0  -0.104205  -0.204094  0  1.300554  0
F  F327  1  0.20852993  0.67782833  0.17388289  1  -0.609293  0  -0.103997  -0.203693  0  1.301032  0
F  F328  1  0.79146458  0.00392628  0.82610745  1  -0.604437  0  -0.104336  -0.204324  0  1.300678  0
F  F329  1  0.00390781  0.03469899  0.32612784  1  -0.603316  0  -0.104215  -0.204083  0  1.300619  0
F  F330  1  0.05701307  0.69654092  0.25253215  1  -0.615269  0  -0.09874  -0.204392  0  1.36372  0
F  F331  1  0.69654111  0.05701304  0.75253166  1  -0.615287  0  -0.098733  -0.204403  0  1.363806  0
F  F332  1  0.80443470  0.94393123  0.74741868  1  -0.615859  0  -0.099242  -0.205193  0  1.362778  0
F  F333  1  0.30345851  0.94298712  0.24746783  1  -0.615288  0  -0.09872  -0.204394  0  1.363729  0
F  F334  1  0.00885598  0.88206413  0.79702199  1  -0.616384  0  -0.103159  -0.208356  0  1.291185  0
F  F335  1  0.05606802  0.19556389  0.75258085  1  -0.615883  0  -0.099232  -0.205226  0  1.362736  0
F  F336  1  0.00392647  0.79146473  0.32610708  1  -0.604446  0  -0.104333  -0.204339  0  1.300709  0
F  F337  1  0.03466149  0.32216237  0.82614110  1  -0.608114  0  -0.103868  -0.203716  0  1.301284  0
F  F338  1  0.96530195  0.99609231  0.17387114  1  -0.603286  0  -0.104201  -0.204085  0  1.30056  0
F  F339  1  0.19556520  0.05606735  0.25258165  1  -0.615806  0  -0.09923  -0.205204  0  1.362788  0
F  F340  1  0.11792142  0.21177495  0.70297793  1  -0.61733  0  -0.102994  -0.208467  0  1.290995  0
F  F341  1  0.20853535  0.99607396  0.17389292  1  -0.604428  0  -0.104322  -0.204326  0  1.300715  0
F  F342  1  0.00882632  0.41490875  0.79703558  1  -0.616936  0  -0.102731  -0.20816  0  1.291459  0
F  F343  1  0.41490761  0.00882544  0.29703511  1  -0.616923  0  -0.10272  -0.208168  0  1.29142  0
F  F344  1  0.80444569  0.30347974  0.74743316  1  -0.613706  0  -0.099073  -0.204869  0  1.362957  0
F  F345  1  0.94394377  0.94301669  0.24745432  1  -0.608289  0  -0.098897  -0.204886  0  1.363992  0
F  F346  1  0.05605568  0.05698300  0.75254556  1  -0.608283  0  -0.098897  -0.204871  0  1.364018  0
F  F347  1  0.19555339  0.69651994  0.25256636  1  -0.613671  0  -0.099075  -0.204891  0  1.362956  0
F  F348  1  0.30348010  0.80444628  0.24743448  1  -0.613733  0  -0.099036  -0.204838  0  1.362977  0
F  F349  1  0.69652003  0.19555270  0.75256495  1  -0.613643  0  -0.099053  -0.204816  0  1.363009  0
F  F350  1  0.58506944  0.21179522  0.70297275  1  -0.615589  0  -0.102577  -0.207669  0  1.291916  0
F  F351  1  0.94393219  0.80443572  0.24741923  1  -0.615805  0  -0.099224  -0.205206  0  1.362758  0
F  F352  1  0.94301706  0.94394421  0.74745508  1  -0.608273  0  -0.098878  -0.204896  0  1.363999  0
F  F353  1  0.32216159  0.03466096  0.32614065  1  -0.608097  0  -0.103855  -0.20373  0  1.301269  0
F  F354  1  0.67782771  0.20852870  0.67388175  1  -0.609319  0  -0.104005  -0.203647  0  1.301098  0
F  F355  1  0.41493027  0.78820383  0.29702683  1  -0.61558  0  -0.102652  -0.207738  0  1.292004  0
F  F356  1  0.78822410  0.88207824  0.79702169  1  -0.617324  0  -0.102944  -0.208394  0  1.290908  0
F  F357  1  0.21179584  0.58506983  0.20297338  1  -0.615576  0  -0.102648  -0.207747  0  1.291991  0
F  F358  1  0.99609281  0.96530054  0.67387209  1  -0.603301  0  -0.104208  -0.204075  0  1.300666  0
F  F359  1  0.79146943  0.32217073  0.82611634  1  -0.609266  0  -0.104071  -0.203771  0  1.301053  0
F  F360  1  0.32217214  0.79147091  0.32611797  1  -0.609327  0  -0.10401  -0.203685  0  1.301073  0
F  F361  1  0.99117353  0.58509086  0.20296414  1  -0.616943  0  -0.102745  -0.208162  0  1.291457  0
F  F362  1  0.21177448  0.11792167  0.20297901  1  -0.617408  0  -0.102977  -0.208429  0  1.290956  0
F  F363  1  0.78820288  0.41492986  0.79702578  1  -0.615558  0  -0.102595  -0.207704  0  1.292033  0
F  F364  1  0.99114401  0.11793603  0.20297787  1  -0.61639  0  -0.103174  -0.208367  0  1.291189  0
F  F365  1  0.88207933  0.78822513  0.29702213  1  -0.617414  0  -0.102948  -0.20838  0  1.291006  0
F  F366  1  0.58509138  0.99117440  0.70296543  1  -0.616911  0  -0.102708  -0.208132  0  1.291498  0
F  F367  1  0.99607392  0.20853535  0.67389262  1  -0.60443  0  -0.104343  -0.204365  0  1.30063  0
