# generated using pymatgen
data_EuH24C25S2N3O8
_symmetry_space_group_name_H-M   'P 1'
_cell_length_a   16.12112326
_cell_length_b   16.12107572
_cell_length_c   27.93266317
_cell_angle_alpha   80.16901484
_cell_angle_beta   80.16928390
_cell_angle_gamma   62.96424153
_symmetry_Int_Tables_number   1
_chemical_formula_structural   EuH24C25S2N3O8
_chemical_formula_sum   'Eu4 H96 C100 S8 N12 O32'
_cell_volume   6335.20836336
_cell_formula_units_Z   4
loop_
 _symmetry_equiv_pos_site_id
 _symmetry_equiv_pos_as_xyz
  1  'x, y, z'
loop_
 _atom_site_type_symbol
 _atom_site_label
 _atom_site_symmetry_multiplicity
 _atom_site_fract_x
 _atom_site_fract_y
 _atom_site_fract_z
 _atom_site_occupancy
 _atom_site_pbe_bader_charge
 _atom_site_pbe_bader_spin_density
 _atom_site_pbe_cm5_charge
 _atom_site_pbe_ddec_charge
 _atom_site_pbe_ddec_spin_density
 _atom_site_pbe_ddec_sum_bond_order
 _atom_site_pbe_magmom
Eu  Eu0  1  0.53035611  0.06598802  0.04524136  1  2.203364  0  1.482676  2.092251  0  2.15122  0
Eu  Eu1  1  0.93401274  0.46964328  0.45475861  1  2.203293  0  1.4827  2.092281  0  2.15117  0
Eu  Eu2  1  0.46964349  0.93401261  0.95475878  1  2.203281  0  1.482698  2.092256  0  2.151214  0
Eu  Eu3  1  0.06598756  0.53035642  0.54524120  1  2.203296  0  1.482693  2.092306  0  2.151124  0
H  H4  1  0.62909258  0.06324802  0.20430743  1  0.064162  0  0.102194  0.107192  0  1.001195  0
H  H5  1  0.93675215  0.37090752  0.29569301  1  0.06416  0  0.102212  0.107225  0  1.001168  0
H  H6  1  0.37090842  0.93675201  0.79569228  1  0.064152  0  0.102241  0.10722  0  1.001202  0
H  H7  1  0.06324815  0.62909219  0.70430751  1  0.064153  0  0.102237  0.107233  0  1.001166  0
H  H8  1  0.70778016  0.10713213  0.25974724  1  0.099011  0  0.103818  0.104739  0  1.020797  0
H  H9  1  0.89286794  0.29221934  0.24025295  1  0.099019  0  0.103809  0.10472  0  1.02076  0
H  H10  1  0.29221945  0.89286788  0.74025296  1  0.099018  0  0.103811  0.104735  0  1.020754  0
H  H11  1  0.10713236  0.70778036  0.75974686  1  0.099019  0  0.103824  0.104758  0  1.020772  0
H  H12  1  0.84730307  0.20403940  0.13405646  1  0.076596  0  0.10731  0.110331  0  0.994313  0
H  H13  1  0.79596087  0.15269740  0.36594367  1  0.0766  0  0.107305  0.110353  0  0.994309  0
H  H14  1  0.15269723  0.79596156  0.86594358  1  0.076608  0  0.10731  0.11035  0  0.994323  0
H  H15  1  0.20403943  0.84730293  0.63405643  1  0.076598  0  0.107304  0.110343  0  0.994308  0
H  H16  1  0.76831332  0.15945834  0.07864875  1  0.090277  0  0.107133  0.116319  0  0.99046  0
H  H17  1  0.84054208  0.23168678  0.42135136  1  0.090272  0  0.107125  0.116303  0  0.990481  0
H  H18  1  0.23168698  0.84054199  0.92135100  1  0.090288  0  0.107133  0.116324  0  0.990467  0
H  H19  1  0.15945822  0.76831355  0.57864875  1  0.090277  0  0.107128  0.116317  0  0.990467  0
H  H20  1  0.68416234  0.16713021  0.91686371  1  0.082082  0  0.102931  0.102594  0  1.02078  0
H  H21  1  0.83286941  0.31583743  0.58313643  1  0.082082  0  0.102961  0.102641  0  1.020739  0
H  H22  1  0.31583726  0.83286980  0.08313650  1  0.082086  0  0.102962  0.102647  0  1.020733  0
H  H23  1  0.16713019  0.68416258  0.41686377  1  0.082078  0  0.102956  0.102626  0  1.020762  0
H  H24  1  0.75509166  0.23241678  0.84126441  1  0.090781  0  0.101578  0.102604  0  1.021508  0
H  H25  1  0.76758345  0.24490784  0.65873606  1  0.090787  0  0.101582  0.102606  0  1.021489  0
H  H26  1  0.24490794  0.76758386  0.15873609  1  0.090793  0  0.101588  0.102624  0  1.021494  0
H  H27  1  0.23241686  0.75509186  0.34126410  1  0.090777  0  0.101571  0.102589  0  1.02151  0
H  H28  1  0.62377356  0.14498177  0.75170438  1  0.050052  0  0.101449  0.102145  0  1.003918  0
H  H29  1  0.85501845  0.37622678  0.74829524  1  0.050056  0  0.101434  0.102121  0  1.00395  0
H  H30  1  0.37622744  0.85501825  0.24829533  1  0.050047  0  0.101425  0.102076  0  1.004007  0
H  H31  1  0.14498115  0.62377386  0.25170454  1  0.050058  0  0.101434  0.102116  0  1.003951  0
H  H32  1  0.55185620  0.08087819  0.82797158  1  0.08323  0  0.109629  0.117334  0  0.99837  0
H  H33  1  0.91912124  0.44814504  0.67202838  1  0.083218  0  0.109619  0.117316  0  0.998383  0
H  H34  1  0.44814550  0.91912090  0.17202851  1  0.083203  0  0.109612  0.117323  0  0.998344  0
H  H35  1  0.08087836  0.55185559  0.32797105  1  0.08321  0  0.109615  0.117307  0  0.998386  0
H  H36  1  0.16572661  0.20155645  0.94438215  1  0.096072  0  0.111025  0.119198  0  0.986936  0
H  H37  1  0.79844374  0.83427369  0.55561758  1  0.096066  0  0.111058  0.119244  0  0.986891  0
H  H38  1  0.83427369  0.79844325  0.05561766  1  0.096067  0  0.111027  0.119188  0  0.986922  0
H  H39  1  0.20155656  0.16572601  0.44438187  1  0.096052  0  0.111026  0.119184  0  0.986923  0
H  H40  1  0.03302845  0.36196149  0.95507696  1  0.086861  0  0.101128  0.101597  0  1.021519  0
H  H41  1  0.63803886  0.96697265  0.54492269  1  0.086854  0  0.101128  0.101591  0  1.021506  0
H  H42  1  0.96697185  0.63803821  0.04492285  1  0.086866  0  0.101136  0.101598  0  1.021522  0
H  H43  1  0.36196144  0.03302768  0.45507706  1  0.086858  0  0.101126  0.101595  0  1.021518  0
H  H44  1  0.19655958  0.41716255  0.04036164  1  0.04075  0  0.095914  0.090548  0  1.026023  0
H  H45  1  0.58283787  0.80344027  0.45963822  1  0.040736  0  0.095904  0.090539  0  1.026047  0
H  H46  1  0.80344142  0.58283747  0.95963807  1  0.04073  0  0.095896  0.090517  0  1.026063  0
H  H47  1  0.41716244  0.19655943  0.54036194  1  0.040731  0  0.095897  0.090519  0  1.026069  0
H  H48  1  0.32851609  0.25596180  0.03061691  1  0.135043  0  0.105843  0.114342  0  1.0644  0
H  H49  1  0.74403769  0.67148418  0.46938264  1  0.135047  0  0.105834  0.114337  0  1.06442  0
H  H50  1  0.67148422  0.74403790  0.96938254  1  0.13504  0  0.105838  0.114339  0  1.064407  0
H  H51  1  0.25596191  0.32851582  0.53061721  1  0.135046  0  0.105839  0.114332  0  1.064411  0
H  H52  1  0.28376703  0.35319955  0.11279709  1  0.079435  0  0.106698  0.166182  0  0.986542  0
H  H53  1  0.64680104  0.71623269  0.38720294  1  0.079439  0  0.106702  0.166161  0  0.986555  0
H  H54  1  0.71623328  0.64680015  0.88720271  1  0.079431  0  0.106696  0.166159  0  0.986552  0
H  H55  1  0.35319856  0.28376794  0.61279684  1  0.07944  0  0.106696  0.166151  0  0.986566  0
H  H56  1  0.28615802  0.34341310  0.17765252  1  0.076685  0  0.10673  0.161012  0  0.979633  0
H  H57  1  0.65658601  0.71384218  0.32234799  1  0.076666  0  0.106728  0.160998  0  0.979674  0
H  H58  1  0.71384229  0.65658598  0.82234771  1  0.076685  0  0.106729  0.160986  0  0.979667  0
H  H59  1  0.34341289  0.28615813  0.67765190  1  0.076706  0  0.106742  0.161003  0  0.979683  0
H  H60  1  0.23303239  0.28445030  0.15273086  1  0.096028  0  0.112396  0.174342  0  0.965299  0
H  H61  1  0.71554925  0.76696768  0.34726963  1  0.09614  0  0.112378  0.174312  0  0.9653  0
H  H62  1  0.76696721  0.71554970  0.84726935  1  0.096032  0  0.112377  0.174307  0  0.965325  0
H  H63  1  0.28445035  0.23303233  0.65273058  1  0.096139  0  0.112368  0.174299  0  0.965298  0
H  H64  1  0.32692449  0.13167448  0.20216587  1  0.08872  0  0.111398  0.171034  0  0.969725  0
H  H65  1  0.86832436  0.67307619  0.29783385  1  0.0887  0  0.11135  0.170959  0  0.969837  0
H  H66  1  0.67307651  0.86832428  0.79783396  1  0.088693  0  0.11136  0.17097  0  0.969761  0
H  H67  1  0.13167454  0.32692475  0.70216562  1  0.088727  0  0.11137  0.170961  0  0.969819  0
H  H68  1  0.38741791  0.18128701  0.22855893  1  0.068097  0  0.107685  0.161949  0  0.978153  0
H  H69  1  0.81871160  0.61258205  0.27144125  1  0.068076  0  0.107697  0.161981  0  0.978178  0
H  H70  1  0.61258169  0.81871300  0.77144092  1  0.068095  0  0.107696  0.161965  0  0.978163  0
H  H71  1  0.18128730  0.38741763  0.72855905  1  0.068096  0  0.107703  0.161969  0  0.978159  0
H  H72  1  0.45336641  0.07552320  0.19906282  1  0.117998  0  0.115852  0.182438  0  0.976109  0
H  H73  1  0.92447617  0.54663375  0.30093711  1  0.118003  0  0.115871  0.182593  0  0.976105  0
H  H74  1  0.54663459  0.92447683  0.80093724  1  0.118  0  0.115866  0.182449  0  0.976108  0
H  H75  1  0.07552343  0.45336689  0.69906267  1  0.11799  0  0.11586  0.182465  0  0.976076  0
H  H76  1  0.46976006  0.40063224  0.05533822  1  0.089379  0  0.10177  0.155946  0  0.987732  0
H  H77  1  0.59936787  0.53024035  0.44466125  1  0.089375  0  0.101771  0.155953  0  0.987735  0
H  H78  1  0.53024024  0.59936809  0.94466153  1  0.089374  0  0.101762  0.155943  0  0.987738  0
H  H79  1  0.40063173  0.46975966  0.55533860  1  0.089376  0  0.101774  0.155955  0  0.987725  0
H  H80  1  0.57951089  0.39673220  0.02398327  1  0.088562  0  0.102375  0.15579  0  0.990334  0
H  H81  1  0.60326816  0.42048921  0.47601669  1  0.088573  0  0.102374  0.155803  0  0.990349  0
H  H82  1  0.42048941  0.60326751  0.97601689  1  0.088559  0  0.102373  0.155792  0  0.990341  0
H  H83  1  0.39673214  0.57951112  0.52398341  1  0.088576  0  0.102375  0.155797  0  0.990352  0
H  H84  1  0.58006323  0.30924348  0.07351507  1  0.144935  0  0.111306  0.174112  0  0.990603  0
H  H85  1  0.69075691  0.41993589  0.42648473  1  0.144925  0  0.111319  0.174144  0  0.990603  0
H  H86  1  0.41993637  0.69075652  0.92648478  1  0.144929  0  0.111328  0.174163  0  0.990582  0
H  H87  1  0.30924340  0.58006381  0.57351543  1  0.144915  0  0.111324  0.174151  0  0.990596  0
H  H88  1  0.46799493  0.33259237  0.92978926  1  0.103426  0  0.117084  0.182924  0  0.961322  0
H  H89  1  0.66740741  0.53200560  0.57021069  1  0.103432  0  0.117095  0.18292  0  0.961309  0
H  H90  1  0.53200538  0.66740670  0.07021096  1  0.103436  0  0.11708  0.182921  0  0.961345  0
H  H91  1  0.33259219  0.46799503  0.42978945  1  0.103438  0  0.11711  0.18298  0  0.961279  0
H  H92  1  0.51669882  0.40831007  0.93891750  1  0.073378  0  0.103337  0.156861  0  0.988722  0
H  H93  1  0.59169018  0.48330184  0.56108236  1  0.073394  0  0.103353  0.156868  0  0.98871  0
H  H94  1  0.48330148  0.59168963  0.06108231  1  0.073375  0  0.103336  0.156854  0  0.988723  0
H  H95  1  0.40830943  0.51669816  0.43891784  1  0.073397  0  0.103339  0.156874  0  0.988768  0
H  H96  1  0.40852943  0.41543552  0.97431906  1  0.052878  0  0.105037  0.163142  0  0.981374  0
H  H97  1  0.58456390  0.59147170  0.52568070  1  0.052894  0  0.105025  0.163116  0  0.981374  0
H  H98  1  0.59147158  0.58456388  0.02568106  1  0.052897  0  0.105019  0.163118  0  0.981375  0
H  H99  1  0.41543570  0.40852831  0.47431951  1  0.052898  0  0.105  0.163101  0  0.981361  0
C  C100  1  0.64118122  0.09091166  0.10590650  1  1.538792  0  0.185661  0.560528  0  4.261254  0
C  C101  1  0.90908766  0.35881913  0.39409363  1  1.53879  0  0.185685  0.560538  0  4.261172  0
C  C102  1  0.35881908  0.90908868  0.89409325  1  1.53878  0  0.185696  0.560595  0  4.261162  0
C  C103  1  0.09091195  0.64118151  0.60590687  1  1.53879  0  0.185711  0.560585  0  4.261023  0
C  C104  1  0.69338288  0.11036321  0.13853691  1  -0.097252  0  -0.012498  -0.014852  0  3.94614  0
C  C105  1  0.88963667  0.30661737  0.36146321  1  -0.097079  0  -0.012512  -0.014887  0  3.94613  0
C  C106  1  0.30661813  0.88963681  0.86146316  1  -0.097099  0  -0.012523  -0.014849  0  3.946182  0
C  C107  1  0.11036363  0.69338296  0.63853690  1  -0.097097  0  -0.012464  -0.014793  0  3.946076  0
C  C108  1  0.67717626  0.09405074  0.18957034  1  0.065766  0  -0.084916  -0.08712  0  3.985993  0
C  C109  1  0.90594918  0.32282384  0.31042943  1  0.06577  0  -0.084947  -0.087197  0  3.98596  0
C  C110  1  0.32282474  0.90594865  0.81042943  1  0.065766  0  -0.084924  -0.087162  0  3.986016  0
C  C111  1  0.09405043  0.67717616  0.68957042  1  0.065772  0  -0.084931  -0.087138  0  3.985943  0
C  C112  1  0.72048151  0.11778474  0.22012143  1  -0.056167  0  -0.087334  -0.146077  0  3.962185  0
C  C113  1  0.88221508  0.27951849  0.27987874  1  -0.056168  0  -0.087279  -0.14592  0  3.96211  0
C  C114  1  0.27951879  0.88221497  0.77987873  1  -0.05617  0  -0.087299  -0.146001  0  3.962107  0
C  C115  1  0.11778522  0.72048121  0.72012143  1  -0.056173  0  -0.087333  -0.146061  0  3.96222  0
C  C116  1  0.78120730  0.15863333  0.19964148  1  0.353077  0  0.085069  0.171741  0  4.049747  0
C  C117  1  0.84136621  0.21879265  0.30035838  1  0.353094  0  0.085098  0.171691  0  4.04978  0
C  C118  1  0.21879300  0.84136637  0.80035832  1  0.353081  0  0.08512  0.171784  0  4.049654  0
C  C119  1  0.15863409  0.78120642  0.69964149  1  0.353081  0  0.085063  0.171635  0  4.049891  0
C  C120  1  0.79939960  0.17289623  0.14866993  1  -0.096792  0  -0.081708  -0.143988  0  3.96769  0
C  C121  1  0.82710329  0.20060082  0.35133026  1  -0.096801  0  -0.081696  -0.144039  0  3.967722  0
C  C122  1  0.20060070  0.82710348  0.85133024  1  -0.096795  0  -0.081727  -0.144075  0  3.967747  0
C  C123  1  0.17289701  0.79939888  0.64866991  1  -0.096797  0  -0.081684  -0.143982  0  3.967734  0
C  C124  1  0.75574938  0.14872074  0.11830119  1  0.022969  0  -0.085712  -0.092351  0  3.98041  0
C  C125  1  0.85127914  0.24425068  0.38169897  1  0.022807  0  -0.085716  -0.092317  0  3.980441  0
C  C126  1  0.24425092  0.85127959  0.88169856  1  0.022818  0  -0.085695  -0.092334  0  3.980434  0
C  C127  1  0.14872117  0.75574902  0.61830119  1  0.022799  0  -0.085707  -0.092347  0  3.980401  0
C  C128  1  0.56995026  0.08372402  0.92100005  1  1.589926  0  0.232907  0.645558  0  4.156442  0
C  C129  1  0.91627623  0.43004972  0.57899996  1  1.589919  0  0.232914  0.645564  0  4.15647  0
C  C130  1  0.43005004  0.91627631  0.07900005  1  1.589923  0  0.232863  0.645397  0  4.156644  0
C  C131  1  0.08372338  0.56994965  0.42099995  1  1.589932  0  0.232941  0.645401  0  4.15659  0
C  C132  1  0.61301250  0.12201180  0.87624595  1  -0.014999  0  -0.010044  -0.02246  0  3.926789  0
C  C133  1  0.87798843  0.38698778  0.62375404  1  -0.014993  0  -0.010043  -0.02239  0  3.926751  0
C  C134  1  0.38698780  0.87798790  0.12375385  1  -0.015  0  -0.010003  -0.022317  0  3.926798  0
C  C135  1  0.12201187  0.61301255  0.37624606  1  -0.014994  0  -0.010033  -0.022319  0  3.926764  0
C  C136  1  0.67066461  0.16417274  0.88037824  1  0.029286  0  -0.085226  -0.086665  0  3.9828  0
C  C137  1  0.83582732  0.32933519  0.61962184  1  0.029291  0  -0.085261  -0.086799  0  3.982853  0
C  C138  1  0.32933569  0.83582760  0.11962186  1  0.029286  0  -0.085282  -0.08682  0  3.982875  0
C  C139  1  0.16417229  0.67066482  0.38037837  1  0.029289  0  -0.085247  -0.086774  0  3.98283  0
C  C140  1  0.70992003  0.19981142  0.83892521  1  -0.063599  0  -0.08812  -0.145277  0  3.957702  0
C  C141  1  0.80018920  0.29007999  0.66107480  1  -0.063599  0  -0.088103  -0.1452  0  3.957673  0
C  C142  1  0.29008027  0.80018891  0.16107489  1  -0.06359  0  -0.088142  -0.145289  0  3.957611  0
C  C143  1  0.19981110  0.70992034  0.33892531  1  -0.06359  0  -0.088121  -0.145224  0  3.957639  0
C  C144  1  0.69185494  0.19339581  0.79239503  1  0.321158  0  0.082849  0.170296  0  4.050534  0
C  C145  1  0.80660430  0.30814533  0.70760535  1  0.321167  0  0.082844  0.170267  0  4.050555  0
C  C146  1  0.30814536  0.80660452  0.20760543  1  0.3211  0  0.082859  0.170305  0  4.0505  0
C  C147  1  0.19339600  0.69185500  0.29239475  1  0.321176  0  0.08284  0.170266  0  4.050504  0
C  C148  1  0.63552904  0.14984532  0.78823327  1  -0.082622  0  -0.086478  -0.150855  0  3.983551  0
C  C149  1  0.85015464  0.36447118  0.71176676  1  -0.082633  0  -0.086479  -0.150828  0  3.98354  0
C  C150  1  0.36447126  0.85015438  0.21176690  1  -0.082565  0  -0.08648  -0.150798  0  3.983564  0
C  C151  1  0.14984566  0.63552978  0.28823328  1  -0.08265  0  -0.086466  -0.150823  0  3.98347  0
C  C152  1  0.59617545  0.11463588  0.82993248  1  -0.002167  0  -0.083552  -0.08771  0  3.981408  0
C  C153  1  0.88536426  0.40382468  0.67006753  1  -0.00217  0  -0.083551  -0.087721  0  3.981357  0
C  C154  1  0.40382555  0.88536414  0.17006758  1  -0.002157  0  -0.083528  -0.087698  0  3.981271  0
C  C155  1  0.11463535  0.59617533  0.32993268  1  -0.002142  0  -0.083579  -0.087744  0  3.98131  0
C  C156  1  0.33119105  0.12377103  0.98127330  1  1.572643  0  0.221941  0.629596  0  4.167488  0
C  C157  1  0.87622909  0.66880906  0.51872639  1  1.573661  0  0.221894  0.629518  0  4.167586  0
C  C158  1  0.66880855  0.87622960  0.01872649  1  1.57279  0  0.221882  0.629528  0  4.167559  0
C  C159  1  0.12376981  0.33119062  0.48127320  1  1.572688  0  0.221925  0.629536  0  4.167628  0
C  C160  1  0.25400568  0.21958746  0.98725486  1  -0.068807  0  -0.004176  -0.0118  0  3.911964  0
C  C161  1  0.78041240  0.74599419  0.51274468  1  -0.068806  0  -0.004163  -0.011708  0  3.91196  0
C  C162  1  0.74599463  0.78041224  0.01274459  1  -0.068802  0  -0.004146  -0.011784  0  3.911983  0
C  C163  1  0.21958720  0.25400582  0.48725553  1  -0.068807  0  -0.00417  -0.011811  0  3.911994  0
C  C164  1  0.17100194  0.24954537  0.96554317  1  0.014423  0  -0.077912  -0.079483  0  3.965434  0
C  C165  1  0.75045439  0.82899830  0.53445692  1  0.014449  0  -0.077949  -0.079611  0  3.965445  0
C  C166  1  0.82899836  0.75045434  0.03445700  1  0.014443  0  -0.077916  -0.079469  0  3.965378  0
C  C167  1  0.24954521  0.17100171  0.46554293  1  0.014449  0  -0.077948  -0.079522  0  3.9654  0
C  C168  1  0.09806386  0.33771040  0.97130867  1  -0.046492  0  -0.088409  -0.148425  0  3.962665  0
C  C169  1  0.66228935  0.90193609  0.52869125  1  -0.046493  0  -0.088404  -0.148371  0  3.962649  0
C  C170  1  0.90193574  0.66228898  0.02869124  1  -0.046496  0  -0.088404  -0.148413  0  3.962652  0
C  C171  1  0.33771026  0.09806392  0.47130895  1  -0.046491  0  -0.088405  -0.148405  0  3.962675  0
C  C172  1  0.10784256  0.39771512  0.99886987  1  0.308334  0  0.083097  0.16867  0  4.062348  0
C  C173  1  0.60228431  0.89215837  0.50113029  1  0.308348  0  0.083112  0.168684  0  4.062295  0
C  C174  1  0.89215774  0.60228458  0.00113029  1  0.308334  0  0.083111  0.168686  0  4.062306  0
C  C175  1  0.39771529  0.10784164  0.49886992  1  0.308352  0  0.083093  0.168665  0  4.062328  0
C  C176  1  0.19137467  0.36837964  0.01965180  1  0.005669  0  -0.090835  -0.154713  0  3.988821  0
C  C177  1  0.63162113  0.80862463  0.48034814  1  0.005676  0  -0.090848  -0.15475  0  3.98891  0
C  C178  1  0.80862493  0.63162099  0.98034763  1  0.005704  0  -0.090833  -0.154698  0  3.988835  0
C  C179  1  0.36837917  0.19137507  0.51965203  1  0.00569  0  -0.090842  -0.154714  0  3.988856  0
C  C180  1  0.26392439  0.27964023  0.01421764  1  -0.028032  0  -0.082745  -0.084755  0  3.955376  0
C  C181  1  0.72035898  0.73607625  0.48578251  1  -0.028047  0  -0.08274  -0.084775  0  3.955455  0
C  C182  1  0.73607591  0.72036010  0.98578211  1  -0.028064  0  -0.082764  -0.084776  0  3.955408  0
C  C183  1  0.27963993  0.26392406  0.51421773  1  -0.028037  0  -0.082707  -0.084685  0  3.955398  0
C  C184  1  0.28895132  0.30719158  0.14705922  1  -0.232224  0  -0.227872  -0.498928  0  3.836096  0
C  C185  1  0.69280878  0.71104846  0.35294090  1  -0.232314  0  -0.227888  -0.498876  0  3.836165  0
C  C186  1  0.71104899  0.69280812  0.85294095  1  -0.232221  0  -0.227849  -0.498831  0  3.836115  0
C  C187  1  0.30719082  0.28895155  0.64705895  1  -0.232351  0  -0.227873  -0.498856  0  3.836179  0
C  C188  1  0.39023134  0.14241889  0.19915549  1  -0.230841  0  -0.223994  -0.496082  0  3.820503  0
C  C189  1  0.85758058  0.60976838  0.30084432  1  -0.230798  0  -0.223987  -0.496232  0  3.82069  0
C  C190  1  0.60976826  0.85758112  0.80084472  1  -0.230807  0  -0.223976  -0.49604  0  3.820532  0
C  C191  1  0.14241832  0.39023193  0.69915557  1  -0.230836  0  -0.223986  -0.496029  0  3.820514  0
C  C192  1  0.54276744  0.35530356  0.04277899  1  -0.312426  0  -0.229595  -0.502369  0  3.836025  0
C  C193  1  0.64469699  0.45723227  0.45722099  1  -0.312425  0  -0.229625  -0.502448  0  3.836103  0
C  C194  1  0.45723286  0.64469677  0.95722111  1  -0.312415  0  -0.229616  -0.502437  0  3.836047  0
C  C195  1  0.35530261  0.54276774  0.54277957  1  -0.312422  0  -0.229618  -0.502426  0  3.836099  0
C  C196  1  0.47695319  0.36920870  0.95674884  1  -0.205957  0  -0.226548  -0.502166  0  3.829384  0
C  C197  1  0.63079132  0.52304699  0.54325073  1  -0.205991  0  -0.226528  -0.502091  0  3.829306  0
C  C198  1  0.52304712  0.63079037  0.04325103  1  -0.205992  0  -0.226521  -0.502123  0  3.829372  0
C  C199  1  0.36920828  0.47695365  0.45674941  1  -0.20599  0  -0.226538  -0.502197  0  3.829408  0
S  S200  1  0.40174029  0.20697582  0.14097863  1  1.228185  0  0.295902  0.664596  0  4.085792  0
S  S201  1  0.79302397  0.59825886  0.35902150  1  1.228343  0  0.295887  0.66454  0  4.085891  0
S  S202  1  0.59826002  0.79302325  0.85902124  1  1.228152  0  0.295913  0.664622  0  4.085801  0
S  S203  1  0.20697633  0.40174085  0.64097866  1  1.228153  0  0.295917  0.664586  0  4.085844  0
S  S204  1  0.54410967  0.27929638  0.00165965  1  1.26311  0  0.317276  0.714155  0  4.04845  0
S  S205  1  0.72070314  0.45589002  0.49834054  1  1.263102  0  0.31724  0.714105  0  4.048433  0
S  S206  1  0.45589063  0.72070395  0.99834045  1  1.263147  0  0.317265  0.714141  0  4.048431  0
S  S207  1  0.27929646  0.54410998  0.50165967  1  1.263111  0  0.317271  0.714128  0  4.048495  0
N  N208  1  0.82316578  0.19224709  0.22703458  1  -0.528028  0  -0.153151  -0.142254  0  3.294881  0
N  N209  1  0.80775179  0.17683420  0.27296572  1  -0.466496  0  -0.153101  -0.142087  0  3.294861  0
N  N210  1  0.17683452  0.80775261  0.77296559  1  -0.528032  0  -0.153204  -0.142241  0  3.294776  0
N  N211  1  0.19224851  0.82316487  0.72703415  1  -0.466477  0  -0.153127  -0.142149  0  3.294797  0
N  N212  1  0.72675857  0.22821725  0.74778216  1  -0.509586  0  -0.155566  -0.145978  0  3.296435  0
N  N213  1  0.77178273  0.27324214  0.75221783  1  -0.442604  0  -0.155518  -0.145943  0  3.296457  0
N  N214  1  0.27324244  0.77178214  0.25221797  1  -0.442604  0  -0.155578  -0.146022  0  3.296524  0
N  N215  1  0.22821757  0.72675819  0.24778228  1  -0.509588  0  -0.155516  -0.145908  0  3.296481  0
N  N216  1  0.03883087  0.48833312  0.00788948  1  -0.514598  0  -0.157487  -0.146468  0  3.305747  0
N  N217  1  0.51166677  0.96116925  0.49211049  1  -0.514616  0  -0.157471  -0.1464  0  3.305658  0
N  N218  1  0.96116943  0.51166658  0.99211032  1  -0.476087  0  -0.157456  -0.146427  0  3.305708  0
N  N219  1  0.48833353  0.03883045  0.50788967  1  -0.476097  0  -0.157459  -0.146471  0  3.3057  0
O  O220  1  0.58426484  0.05605167  0.12498058  1  -1.179038  0  -0.382046  -0.651288  0  2.229571  0
O  O221  1  0.94394818  0.41573580  0.37501943  1  -1.179046  0  -0.382062  -0.651313  0  2.229588  0
O  O222  1  0.41573476  0.94394960  0.87501950  1  -1.179067  0  -0.382018  -0.651276  0  2.229646  0
O  O223  1  0.05605212  0.58426453  0.62498067  1  -1.179046  0  -0.382072  -0.651348  0  2.229524  0
O  O224  1  0.65199778  0.11276855  0.05996029  1  -1.161161  0  -0.373547  -0.640042  0  2.24001  0
O  O225  1  0.88723265  0.34800146  0.44003974  1  -1.161105  0  -0.37358  -0.64006  0  2.240006  0
O  O226  1  0.34800182  0.88723208  0.94003949  1  -1.161083  0  -0.373633  -0.640138  0  2.239877  0
O  O227  1  0.11276695  0.65199981  0.55996034  1  -1.161087  0  -0.373606  -0.640099  0  2.239905  0
O  O228  1  0.58406962  0.09523442  0.96238838  1  -1.19236  0  -0.391825  -0.673465  0  2.308298  0
O  O229  1  0.90476640  0.41592966  0.53761165  1  -1.192357  0  -0.391818  -0.673466  0  2.308316  0
O  O230  1  0.41592998  0.90476621  0.03761140  1  -1.192355  0  -0.391793  -0.673383  0  2.308331  0
O  O231  1  0.09523390  0.58407004  0.46238851  1  -1.192346  0  -0.391822  -0.673381  0  2.308339  0
O  O232  1  0.52229123  0.04325077  0.91376241  1  -1.177062  0  -0.39621  -0.655477  0  2.309903  0
O  O233  1  0.95674905  0.47770846  0.58623803  1  -1.177056  0  -0.396214  -0.655496  0  2.309928  0
O  O234  1  0.47770837  0.95674861  0.08623786  1  -1.177063  0  -0.396218  -0.65545  0  2.309995  0
O  O235  1  0.04324985  0.52229248  0.41376179  1  -1.177092  0  -0.396232  -0.655446  0  2.309979  0
O  O236  1  0.40412807  0.09480679  0.00366614  1  -1.216364  0  -0.420214  -0.737028  0  2.414804  0
O  O237  1  0.90519339  0.59587213  0.49633363  1  -1.217217  0  -0.420168  -0.736952  0  2.414903  0
O  O238  1  0.59587154  0.90519321  0.99633335  1  -1.2164  0  -0.420203  -0.736986  0  2.414838  0
O  O239  1  0.09480551  0.40412819  0.50366661  1  -1.216382  0  -0.420225  -0.737003  0  2.414763  0
O  O240  1  0.32286509  0.07325958  0.95403318  1  -1.16447  0  -0.373435  -0.60932  0  2.191012  0
O  O241  1  0.92673959  0.67713637  0.54596580  1  -1.164628  0  -0.373445  -0.609351  0  2.190965  0
O  O242  1  0.67713521  0.92673948  0.04596562  1  -1.164581  0  -0.37341  -0.60931  0  2.191007  0
O  O243  1  0.07326002  0.32286363  0.45403440  1  -1.164522  0  -0.373405  -0.609272  0  2.191116  0
O  O244  1  0.39326705  0.15474072  0.10323673  1  -1.241476  0  -0.387812  -0.610496  0  2.242496  0
O  O245  1  0.84525897  0.60673346  0.39676297  1  -1.241649  0  -0.387777  -0.610414  0  2.242501  0
O  O246  1  0.60673325  0.84525898  0.89676343  1  -1.241452  0  -0.387832  -0.610551  0  2.242549  0
O  O247  1  0.15474063  0.39326654  0.60323688  1  -1.241457  0  -0.38782  -0.610515  0  2.242541  0
O  O248  1  0.47679043  0.24040456  0.02838080  1  -1.252123  0  -0.390096  -0.64427  0  2.277407  0
O  O249  1  0.75959592  0.52320863  0.47161932  1  -1.252116  0  -0.390077  -0.644245  0  2.277402  0
O  O250  1  0.52320917  0.75959607  0.97161934  1  -1.25215  0  -0.390089  -0.644254  0  2.277421  0
O  O251  1  0.24040368  0.47679138  0.52838089  1  -1.252127  0  -0.390083  -0.644233  0  2.277401  0
