# generated using pymatgen
data_CuPH9C3O4
_symmetry_space_group_name_H-M   'P 1'
_cell_length_a   7.43809683
_cell_length_b   7.51387955
_cell_length_c   11.79947040
_cell_angle_alpha   90.00061551
_cell_angle_beta   99.25113297
_cell_angle_gamma   90.00012859
_symmetry_Int_Tables_number   1
_chemical_formula_structural   CuPH9C3O4
_chemical_formula_sum   'Cu4 P4 H36 C12 O16'
_cell_volume   650.88269763
_cell_formula_units_Z   4
loop_
 _symmetry_equiv_pos_site_id
 _symmetry_equiv_pos_as_xyz
  1  'x, y, z'
loop_
 _atom_site_type_symbol
 _atom_site_label
 _atom_site_symmetry_multiplicity
 _atom_site_fract_x
 _atom_site_fract_y
 _atom_site_fract_z
 _atom_site_occupancy
 _atom_site_hle17_ddec_charge
 _atom_site_hle17_ddec_spin_density
 _atom_site_hle17_ddec_sum_bond_order
 _atom_site_hle17_magmom
 _atom_site_hse06_10hf_ddec_charge
 _atom_site_hse06_10hf_ddec_spin_density
 _atom_site_hse06_10hf_ddec_sum_bond_order
 _atom_site_hse06_10hf_magmom
 _atom_site_hse06_ddec_charge
 _atom_site_hse06_ddec_spin_density
 _atom_site_hse06_ddec_sum_bond_order
 _atom_site_hse06_magmom
 _atom_site_pbe_cm5_charge
 _atom_site_pbe_ddec_charge
 _atom_site_pbe_ddec_spin_density
 _atom_site_pbe_ddec_sum_bond_order
 _atom_site_pbe_magmom
Cu  Cu0  1  0.43931159  0.18932240  0.03544605  1  1.10544  0.712251  1.617876  0.553  1.116131  0.808491  1.991137  0.679  1.192795  0.864097  1.936054  0.759  0.742711  1.058397  0.76727  2.041366  0.625
Cu  Cu1  1  0.06067606  0.68931257  0.96454248  1  1.105474  0.712231  1.617754  0.553  1.116246  0.808471  1.990848  0.679  1.192876  0.864087  1.935832  0.759  0.742722  1.058473  0.767205  2.041139  0.625
Cu  Cu2  1  0.56067382  0.81068981  0.96455042  1  1.105473  0.712263  1.617873  0.553  1.116183  0.808491  1.991078  0.679  1.192855  0.864106  1.936017  0.759  0.742748  1.058433  0.767264  2.04135  0.625
Cu  Cu3  1  0.93932165  0.31069032  0.03545682  1  1.105441  0.712233  1.617803  0.553  1.116182  0.808476  1.990978  0.679  1.192812  0.864087  1.935942  0.759  0.742702  1.058435  0.767228  2.041229  0.625
P  P4  1  0.11409968  0.05226404  0.86385830  1  1.496834  0.002353  4.778307  -0.002  1.360983  0.008616  5.284601  0.004  1.417478  0.005963  5.242347  0.004  0.332571  1.321065  0.011094  5.311339  0.005
P  P5  1  0.38591777  0.55227285  0.13615069  1  1.496992  0.002325  4.778083  -0.002  1.361143  0.008617  5.284357  0.004  1.417639  0.005962  5.242102  0.004  0.332641  1.321225  0.011095  5.311084  0.005
P  P6  1  0.88589940  0.94774019  0.13614198  1  1.496845  0.002333  4.778562  -0.002  1.361003  0.008614  5.284868  0.004  1.417495  0.005961  5.242601  0.004  0.332541  1.321082  0.011092  5.311613  0.005
P  P7  1  0.61408278  0.44772472  0.86385396  1  1.496919  0.002333  4.778199  -0.002  1.361127  0.008616  5.284468  0.004  1.417622  0.005961  5.242219  0.004  0.332635  1.32121  0.011095  5.311201  0.005
H  H8  1  0.02523860  0.13433840  0.66756712  1  0.116263  -0.000693  0.946299  -0.001  0.131579  -0.000122  1.00331  0.0  0.134142  -9e-05  1.00294  0.0  0.10125  0.129636  -0.000132  1.003813  0.0
H  H9  1  0.47475577  0.63433341  0.33242844  1  0.116263  -0.000693  0.946322  -0.001  0.131579  -0.000121  1.003316  0.0  0.13414  -9e-05  1.002944  0.0  0.10124  0.129638  -0.000131  1.003815  0.0
H  H10  1  0.97476591  0.86566716  0.33243282  1  0.116287  -0.000684  0.946359  0.0  0.131615  -0.000122  1.003332  0.0  0.134177  -9e-05  1.00296  0.0  0.101267  0.129671  -0.000131  1.003834  0.0
H  H11  1  0.52523787  0.36566549  0.66757133  1  0.116218  -0.000694  0.946344  -0.001  0.131557  -0.000122  1.003356  0.0  0.134116  -9e-05  1.002988  0.0  0.101233  0.129617  -0.000131  1.003855  0.0
H  H12  1  0.10980575  0.81494150  0.65329074  1  0.064855  -0.000104  0.930461  0.0  0.086035  -3e-05  0.986081  0.0  0.086319  -3.3e-05  0.987258  0.0  0.090251  0.085763  -1.7e-05  0.985349  0.0
H  H13  1  0.39018667  0.31494583  0.34670588  1  0.064853  -0.000104  0.930487  0.0  0.086072  -3e-05  0.98608  0.0  0.086356  -3.3e-05  0.987256  0.0  0.090279  0.085801  -1.7e-05  0.985343  0.0
H  H14  1  0.89019196  0.18505474  0.34670857  1  0.064883  -0.000101  0.930473  0.0  0.086066  -3e-05  0.986057  0.0  0.08635  -3.3e-05  0.987233  0.0  0.090278  0.085795  -1.7e-05  0.985322  0.0
H  H15  1  0.60981516  0.68505573  0.65329550  1  0.06492  -0.000112  0.930456  0.0  0.086087  -3e-05  0.986065  0.0  0.086371  -3.3e-05  0.987241  0.0  0.090257  0.085814  -1.7e-05  0.985326  0.0
H  H16  1  0.33429895  0.85875988  0.72051833  1  0.078179  -0.000242  0.948121  0.0  0.0959  -0.000117  1.007998  0.0  0.096428  -0.000112  1.00853  0.0  0.091993  0.095532  -0.000107  1.007589  0.0
H  H17  1  0.16570312  0.35876128  0.27947610  1  0.078177  -0.000243  0.948124  0.0  0.095981  -0.000117  1.007909  0.0  0.096511  -0.000112  1.008437  0.0  0.092054  0.095613  -0.000107  1.007507  0.0
H  H18  1  0.66570421  0.14123902  0.27948148  1  0.078204  -0.000249  0.948161  0.0  0.095909  -0.000117  1.008025  0.0  0.096438  -0.000112  1.008555  0.0  0.092007  0.09554  -0.000107  1.007624  0.0
H  H19  1  0.83430144  0.64123496  0.72052554  1  0.07817  -0.000257  0.948178  0.0  0.095953  -0.000117  1.007955  0.0  0.09648  -0.000112  1.008486  0.0  0.092034  0.095586  -0.000107  1.007548  0.0
H  H20  1  0.25443050  0.19048985  0.72192422  1  0.127543  0.000231  0.936423  0.0  0.144847  0.000464  0.987882  0.0  0.146729  0.000312  0.988545  0.0  0.104963  0.14331  0.000602  0.987794  0.001
H  H21  1  0.24556966  0.69048479  0.27807650  1  0.127544  0.000226  0.936405  0.0  0.144837  0.000464  0.987862  0.0  0.146722  0.000312  0.988522  0.0  0.104939  0.143297  0.000603  0.987782  0.001
H  H22  1  0.74557542  0.80951704  0.27807754  1  0.127587  0.000233  0.936376  0.0  0.144895  0.000464  0.987833  0.0  0.146779  0.000312  0.988492  0.0  0.10494  0.143355  0.000602  0.987747  0.001
H  H23  1  0.75442540  0.30950745  0.72192595  1  0.127511  0.000234  0.936422  0.0  0.144832  0.000464  0.987898  0.0  0.146714  0.000312  0.988563  0.0  0.104941  0.143297  0.000603  0.987813  0.001
H  H24  1  0.16384059  0.01470640  0.48619529  1  0.085788  -9.3e-05  0.968785  0.0  0.109677  -2.8e-05  1.028814  0.0  0.110223  -2e-05  1.030046  0.0  0.082658  0.109194  -3.1e-05  1.028025  0.0
H  H25  1  0.33614652  0.51471217  0.51380132  1  0.0857  -9.9e-05  0.968821  0.0  0.109653  -2.7e-05  1.02878  0.0  0.110197  -2e-05  1.030016  0.0  0.082641  0.109174  -3.1e-05  1.027984  0.0
H  H26  1  0.83615161  0.98529383  0.51380097  1  0.085733  -0.000109  0.968756  0.0  0.109661  -2.8e-05  1.028747  0.0  0.110205  -2e-05  1.02998  0.0  0.082643  0.109182  -3.1e-05  1.027953  0.0
H  H27  1  0.66385254  0.48528806  0.48619811  1  0.085707  -0.000108  0.968817  0.0  0.10966  -2.8e-05  1.028787  0.0  0.110202  -2e-05  1.030025  0.0  0.082645  0.10918  -3.1e-05  1.027998  0.0
H  H28  1  0.38817628  0.05493679  0.55810049  1  0.090163  -5.2e-05  0.962594  0.0  0.113287  3e-05  1.023299  0.0  0.114273  1.9e-05  1.023934  0.0  0.085126  0.112508  4.6e-05  1.022916  0.0
H  H29  1  0.11181769  0.55493821  0.44189109  1  0.090247  -4.1e-05  0.962491  0.0  0.113342  3.1e-05  1.023229  0.0  0.114332  1.9e-05  1.02386  0.0  0.085146  0.112568  4.6e-05  1.022846  0.0
H  H30  1  0.61182544  0.94506344  0.44189579  1  0.090205  -6.6e-05  0.962532  0.0  0.113317  3.1e-05  1.02325  0.0  0.114309  2e-05  1.02388  0.0  0.085142  0.112541  4.6e-05  1.022863  0.0
H  H31  1  0.88818549  0.44505936  0.55810957  1  0.090223  -5.5e-05  0.962418  0.0  0.113356  3.1e-05  1.023128  0.0  0.114341  1.9e-05  1.023763  0.0  0.085151  0.112576  4.6e-05  1.022751  0.0
H  H32  1  0.32415071  0.83773299  0.50850452  1  0.08833  0.000401  0.971252  0.001  0.107513  0.000223  1.039524  0.0  0.108333  0.00012  1.040189  0.0  0.083762  0.106931  0.000335  1.039024  0.0
H  H33  1  0.17583765  0.33774065  0.49148849  1  0.088377  0.000406  0.971286  0.001  0.107555  0.000222  1.039559  0.0  0.108375  0.00012  1.040223  0.0  0.08378  0.106977  0.000335  1.039061  0.0
H  H34  1  0.67584560  0.16226325  0.49149296  1  0.088386  0.000391  0.971288  0.001  0.107561  0.000222  1.039569  0.0  0.10838  0.00012  1.040235  0.0  0.083797  0.10698  0.000335  1.039075  0.0
H  H35  1  0.82417103  0.66226091  0.50851522  1  0.088381  0.000399  0.971309  0.001  0.107562  0.000222  1.039575  0.0  0.108376  0.00012  1.040244  0.0  0.083817  0.10698  0.000335  1.039074  0.0
H  H36  1  0.39933245  0.93242282  0.15108089  1  0.426503  -0.001135  0.864413  -0.002  0.4005  8.5e-05  0.931577  0.0  0.411107  -0.000137  0.91674  0.0  0.294888  0.392876  0.000325  0.941322  0.0
H  H37  1  0.10066594  0.43241372  0.84891794  1  0.426562  -0.001134  0.864284  -0.002  0.400535  8.5e-05  0.931509  0.0  0.411143  -0.000137  0.916666  0.0  0.29489  0.392912  0.000324  0.941216  0.0
H  H38  1  0.60066402  0.06758008  0.84892338  1  0.426477  -0.001134  0.864411  -0.002  0.400479  8.4e-05  0.9316  0.0  0.411088  -0.000137  0.916754  0.0  0.294857  0.392853  0.000324  0.941321  0.0
H  H39  1  0.89933309  0.56758119  0.15107979  1  0.426466  -0.001134  0.864437  -0.002  0.400508  8.4e-05  0.931566  0.0  0.411114  -0.000137  0.916728  0.0  0.294902  0.392886  0.000324  0.941291  0.0
H  H40  1  0.23593314  0.06867984  0.16105819  1  0.427378  -0.001077  0.878904  -0.002  0.398785  -5.8e-05  0.939914  -0.001  0.410867  -0.000329  0.922728  -0.001  0.292623  0.390252  0.00026  0.952026  0.0
H  H41  1  0.26407061  0.56867098  0.83894287  1  0.427462  -0.001077  0.878756  -0.002  0.398859  -5.8e-05  0.939791  -0.001  0.410942  -0.000329  0.922603  -0.001  0.292654  0.39033  0.00026  0.951896  0.0
H  H42  1  0.76406460  0.93131906  0.83894282  1  0.42744  -0.001079  0.878814  -0.002  0.398826  -5.8e-05  0.939865  -0.001  0.410909  -0.000329  0.922676  -0.001  0.292618  0.390291  0.00026  0.951984  0.0
H  H43  1  0.73592844  0.43132792  0.16105571  1  0.427326  -0.00108  0.87896  -0.002  0.398733  -5.8e-05  0.939976  -0.001  0.410816  -0.000329  0.922789  -0.001  0.292612  0.390202  0.00026  0.952088  0.0
C  C44  1  0.21809871  0.91607720  0.66286095  1  -0.020525  0.002171  3.693089  0.002  -0.054833  0.001425  3.948296  0.002  -0.054534  0.000854  3.964391  0.001  -0.166434  -0.054851  0.001986  3.937027  0.002
C  C45  1  0.28190231  0.41607316  0.33713716  1  -0.020474  0.002167  3.693154  0.002  -0.054919  0.001424  3.948488  0.002  -0.054617  0.000853  3.964577  0.001  -0.166497  -0.05494  0.001986  3.937233  0.002
C  C46  1  0.78189899  0.08392303  0.33713836  1  -0.0206  0.002169  3.693359  0.002  -0.054854  0.001425  3.948497  0.002  -0.054554  0.000854  3.964587  0.001  -0.166479  -0.054871  0.001987  3.937238  0.002
C  C47  1  0.71809952  0.58392175  0.66286422  1  -0.020609  0.002198  3.693245  0.002  -0.054906  0.001425  3.948454  0.002  -0.054603  0.000853  3.964541  0.001  -0.166459  -0.054925  0.001986  3.93719  0.002
C  C48  1  0.27623011  0.95786961  0.54749050  1  -0.287716  0.001455  3.715189  0.002  -0.362438  0.000783  3.962023  0.001  -0.364899  0.000416  3.973657  0.0  -0.247713  -0.360403  0.001173  3.953839  0.001
C  C49  1  0.22376268  0.45787139  0.45249696  1  -0.287782  0.001441  3.715381  0.002  -0.36253  0.000783  3.962258  0.001  -0.364995  0.000417  3.973891  0.0  -0.247722  -0.360506  0.001172  3.954079  0.001
C  C50  1  0.72376746  0.04213328  0.45250286  1  -0.287771  0.001506  3.715318  0.002  -0.362528  0.000783  3.962147  0.001  -0.364992  0.000416  3.973778  0.0  -0.247763  -0.360502  0.001172  3.953965  0.001
C  C51  1  0.77624178  0.54212751  0.54750042  1  -0.287772  0.001475  3.715304  0.002  -0.362573  0.000783  3.962157  0.001  -0.365027  0.000416  3.973789  0.0  -0.247796  -0.36054  0.001173  3.953978  0.001
C  C52  1  0.15231031  0.08344913  0.71790217  1  -0.430142  0.012236  3.664083  0.013  -0.446463  0.007218  3.907349  0.008  -0.458204  0.004676  3.917514  0.005  -0.167559  -0.438263  0.009363  3.900602  0.01
C  C53  1  0.34768403  0.58344835  0.28210066  1  -0.430152  0.012258  3.664131  0.013  -0.446425  0.007218  3.907399  0.008  -0.458163  0.004679  3.917557  0.005  -0.167516  -0.438226  0.009363  3.900657  0.01
C  C54  1  0.84769563  0.91655509  0.28210044  1  -0.430223  0.012233  3.66417  0.013  -0.446556  0.007218  3.907399  0.008  -0.45829  0.004676  3.917555  0.005  -0.167554  -0.438351  0.009364  3.900647  0.01
C  C55  1  0.65231368  0.41654789  0.71789864  1  -0.42999  0.012239  3.664056  0.013  -0.446421  0.007219  3.907427  0.008  -0.458161  0.004678  3.917589  0.005  -0.167506  -0.438225  0.009365  3.900678  0.01
O  O56  1  0.37304136  0.05823540  0.17093389  1  -0.772813  0.079169  1.901286  0.109  -0.742556  0.054208  2.112832  0.08  -0.778201  0.039794  2.082219  0.064  -0.567457  -0.717884  0.063563  2.13387  0.088
O  O57  1  0.12696377  0.55823141  0.82906977  1  -0.772927  0.079156  1.901182  0.109  -0.742669  0.054205  2.112799  0.08  -0.778301  0.039794  2.082193  0.064  -0.567496  -0.717995  0.063567  2.133817  0.088
O  O58  1  0.62696053  0.94176749  0.82907004  1  -0.772832  0.079164  1.901304  0.109  -0.742581  0.054206  2.112877  0.08  -0.778222  0.039791  2.082275  0.064  -0.56742  -0.717912  0.063562  2.133922  0.088
O  O59  1  0.87304223  0.44177415  0.17093539  1  -0.772734  0.079164  1.901375  0.109  -0.742548  0.054207  2.112882  0.08  -0.778182  0.039794  2.082274  0.064  -0.567472  -0.717877  0.063566  2.133912  0.088
O  O60  1  0.29665753  0.00503495  0.94054945  1  -0.891683  0.063322  2.11729  0.095  -0.865545  0.037021  2.465511  0.06  -0.903034  0.025438  2.436688  0.046  -0.393951  -0.836388  0.04597  2.483492  0.069
O  O61  1  0.20335410  0.50503277  0.05945106  1  -0.891886  0.063337  2.116856  0.095  -0.865762  0.037024  2.465054  0.06  -0.903271  0.025436  2.436303  0.046  -0.394095  -0.836605  0.045982  2.483047  0.069
O  O62  1  0.70334296  0.99496795  0.05945266  1  -0.891559  0.06331  2.117214  0.095  -0.865441  0.037016  2.465422  0.06  -0.902991  0.025432  2.43675  0.046  -0.3939  -0.836295  0.045961  2.483429  0.069
O  O63  1  0.79665178  0.49496347  0.94054900  1  -0.891726  0.063336  2.116825  0.095  -0.865634  0.037023  2.465036  0.06  -0.903103  0.025437  2.436201  0.046  -0.394027  -0.836484  0.04598  2.483044  0.069
O  O64  1  0.02971119  0.23002725  0.89610847  1  -0.861608  0.067025  2.088195  0.096  -0.810788  0.041856  2.391438  0.064  -0.849121  0.030002  2.367679  0.05  -0.381455  -0.782435  0.050684  2.406482  0.073
O  O65  1  0.47028777  0.73004102  0.10389241  1  -0.861562  0.067031  2.088169  0.096  -0.810787  0.041855  2.391464  0.064  -0.849101  0.030001  2.367657  0.05  -0.381432  -0.782425  0.050682  2.4065  0.073
O  O66  1  0.97029756  0.76997431  0.10389864  1  -0.861522  0.067044  2.088105  0.096  -0.810734  0.04186  2.391297  0.064  -0.849083  0.030004  2.367589  0.05  -0.381404  -0.782372  0.050692  2.406345  0.073
O  O67  1  0.52970851  0.26996054  0.89610422  1  -0.861577  0.067017  2.088304  0.096  -0.810761  0.041852  2.391528  0.064  -0.849091  0.030003  2.367751  0.05  -0.381425  -0.782409  0.050674  2.406576  0.073
O  O68  1  0.97915379  0.89527822  0.86767160  1  -0.842871  0.062797  2.064189  0.09  -0.782702  0.039947  2.350961  0.061  -0.820765  0.029037  2.327924  0.048  -0.378254  -0.755307  0.047644  2.366389  0.069
O  O69  1  0.52084854  0.39528482  0.13232330  1  -0.842831  0.062791  2.064286  0.09  -0.782657  0.039941  2.351067  0.061  -0.820731  0.029034  2.328022  0.048  -0.378227  -0.755273  0.047631  2.366497  0.069
O  O70  1  0.02085200  0.10471535  0.13232421  1  -0.842933  0.062798  2.064385  0.09  -0.782765  0.039947  2.351148  0.061  -0.820827  0.029037  2.328108  0.048  -0.378278  -0.755371  0.04764  2.366574  0.069
O  O71  1  0.47915191  0.60471675  0.86767711  1  -0.842906  0.062796  2.064347  0.09  -0.782733  0.039944  2.35111  0.061  -0.820814  0.029034  2.328076  0.048  -0.378257  -0.755344  0.047638  2.366541  0.069
