# generated using pymatgen
data_Al2H10C22S2O11F2
_symmetry_space_group_name_H-M   'P 1'
_cell_length_a   6.62848802
_cell_length_b   12.85484179
_cell_length_c   15.38858745
_cell_angle_alpha   61.66464919
_cell_angle_beta   75.36777180
_cell_angle_gamma   70.46921484
_symmetry_Int_Tables_number   1
_chemical_formula_structural   Al2H10C22S2O11F2
_chemical_formula_sum   'Al2 H10 C22 S2 O11 F2'
_cell_volume   1080.72454991
_cell_formula_units_Z   1
loop_
 _symmetry_equiv_pos_site_id
 _symmetry_equiv_pos_as_xyz
  1  'x, y, z'
loop_
 _atom_site_type_symbol
 _atom_site_label
 _atom_site_symmetry_multiplicity
 _atom_site_fract_x
 _atom_site_fract_y
 _atom_site_fract_z
 _atom_site_occupancy
 _atom_site_pbe_bader_charge
 _atom_site_pbe_bader_spin_density
 _atom_site_pbe_cm5_charge
 _atom_site_pbe_ddec_charge
 _atom_site_pbe_ddec_spin_density
 _atom_site_pbe_ddec_sum_bond_order
 _atom_site_pbe_magmom
Al  Al0  1  0.50224876  0.49082149  0.50324638  1  2.502641  0  0.393632  1.638959  0  2.587905  0
Al  Al1  1  0.99950015  0.49919806  0.49952852  1  2.502097  0  0.395865  1.63962  0  2.571786  0
H  H2  1  0.23241549  0.39569784  0.62939358  1  0.608665  0  0.352599  0.43131  0  0.85161  0
H  H3  1  0.68583373  0.64849168  0.42117783  1  0.643818  0  0.349925  0.433842  0  0.858264  0
H  H4  1  0.91754653  0.52016582  0.75519077  1  0.144962  0  0.115363  0.139709  0  0.997196  0
H  H5  1  0.06820260  0.60804794  0.19998817  1  0.129784  0  0.122431  0.152873  0  0.972409  0
H  H6  1  0.72449133  0.40732861  0.25438948  1  0.118931  0  0.109556  0.117183  0  0.993088  0
H  H7  1  0.79573168  0.40371487  0.08922390  1  0.063574  0  0.103897  0.10823  0  0.99792  0
H  H8  1  0.28727158  0.46604843  0.79538035  1  0.078238  0  0.104063  0.107603  0  1.011887  0
H  H9  1  0.21170949  0.47589809  0.95760697  1  0.115086  0  0.098675  0.106372  0  1.036017  0
H  H10  1  0.62262791  0.13572921  0.55266723  1  0.157638  0  0.122236  0.148524  0  0.980622  0
H  H11  1  0.52434881  0.89924340  0.44432570  1  0.617104  0  0.300993  0.320291  0  0.986944  0
C  C12  1  0.87857173  0.28902268  0.52407734  1  1.637972  0  0.263206  0.64256  0  4.157347  0
C  C13  1  0.65727848  0.48010627  0.66909110  1  1.575903  0  0.267529  0.646693  0  4.087016  0
C  C14  1  0.13373035  0.70437622  0.47425652  1  1.594846  0  0.252668  0.659834  0  4.152215  0
C  C15  1  0.34642071  0.50862008  0.33727242  1  1.575646  0  0.270941  0.640164  0  4.09363  0
C  C16  1  0.60822845  0.48940496  0.76560445  1  -0.031167  0  -0.013704  -0.016999  0  3.986603  0
C  C17  1  0.39289341  0.50795224  0.23758827  1  -0.016006  0  -0.010055  -0.017089  0  3.992463  0
C  C18  1  0.76293640  0.50935849  0.79943718  1  -0.002148  0  -0.0938  -0.222067  0  3.991575  0
C  C19  1  0.71436724  0.51810074  0.88903901  1  0.411695  0  0.099185  0.23736  0  4.035368  0
C  C20  1  0.22868095  0.56429435  0.17572483  1  0.075595  0  -0.088799  -0.214352  0  3.972632  0
C  C21  1  0.27433465  0.56474797  0.08265434  1  0.383016  0  0.100684  0.24186  0  4.036422  0
C  C22  1  0.59805652  0.45122144  0.20550826  1  -0.03584  0  -0.085139  -0.103137  0  3.990522  0
C  C23  1  0.63746302  0.45030238  0.11278884  1  0.019017  0  -0.085738  -0.1097  0  3.994999  0
C  C24  1  0.40833609  0.47965417  0.82266998  1  -0.019654  0  -0.087516  -0.101022  0  3.987344  0
C  C25  1  0.36612796  0.48594740  0.91343262  1  0.000247  0  -0.085445  -0.108424  0  3.983282  0
C  C26  1  0.51871522  0.50484876  0.95008167  1  0.033232  0  -0.009713  -0.013794  0  4.001339  0
C  C27  1  0.47686132  0.50770381  0.04786787  1  -0.00616  0  -0.011772  -0.02298  0  4.002791  0
C  C28  1  0.23106157  0.88600510  0.46637790  1  0.650474  0  0.093107  0.295702  0  4.06921  0
C  C29  1  0.79404636  0.10645717  0.53138310  1  0.012626  0  -0.083971  -0.130826  0  3.955551  0
C  C30  1  0.08625455  0.81992685  0.48047166  1  -0.116807  0  -0.038626  -0.248699  0  3.922706  0
C  C31  1  0.93677758  0.17241730  0.51669780  1  -0.187768  0  -0.013737  -0.106951  0  3.952829  0
C  C32  1  0.90111367  0.00231529  0.51355462  1  -0.103377  0  -0.020791  0.014492  0  4.09965  0
C  C33  1  0.12369244  0.99079889  0.48512700  1  -0.243096  0  -0.036355  -0.153971  0  4.083147  0
S  S34  1  0.82312056  0.88372374  0.51932682  1  0.203468  0  0.078979  0.096683  0  2.871092  0
S  S35  1  0.20128624  0.10903690  0.48043543  1  0.247785  0  0.087545  0.133897  0  2.775376  0
O  O36  1  0.67982386  0.32907391  0.54864337  1  -1.264865  0  -0.237089  -0.586929  0  2.338412  0
O  O37  1  0.85503129  0.46040414  0.63341426  1  -1.265541  0  -0.242493  -0.611218  0  2.349178  0
O  O38  1  0.97478236  0.65962522  0.48995008  1  -1.255535  0  -0.247979  -0.600766  0  2.304558  0
O  O39  1  0.50633982  0.47972336  0.38284610  1  -1.253217  0  -0.229828  -0.574692  0  2.32758  0
O  O40  1  0.33092997  0.65567902  0.45441144  1  -1.26418  0  -0.239901  -0.597015  0  2.364201  0
O  O41  1  0.14900038  0.53897488  0.36954031  1  -1.259309  0  -0.233822  -0.590973  0  2.350997  0
O  O42  1  0.02757285  0.34108976  0.50503991  1  -1.24974  0  -0.232272  -0.567632  0  2.314801  0
O  O43  1  0.49838159  0.49213813  0.62966122  1  -1.258599  0  -0.239478  -0.598822  0  2.327603  0
O  O44  1  0.25551832  0.43283513  0.55745360  1  -1.414469  0  -0.448837  -0.988589  0  2.191542  0
O  O45  1  0.73777842  0.56004576  0.44855435  1  -1.447208  0  -0.448291  -0.988248  0  2.167604  0
O  O46  1  0.44344376  0.85240466  0.43761736  1  -1.129988  0  -0.326982  -0.393974  0  2.34683  0
F  F47  1  0.86520232  0.54324705  0.91761309  1  -0.6404  0  -0.089573  -0.139114  0  1.390558  0
F  F48  1  0.11358871  0.62553687  0.02222937  1  -0.638985  0  -0.101372  -0.145777  0  1.343585  0
