# generated using pymatgen
data_CoH14C15(NO2)2
_symmetry_space_group_name_H-M   'P 1'
_cell_length_a   8.61405046
_cell_length_b   8.75077900
_cell_length_c   9.87805758
_cell_angle_alpha   95.00258803
_cell_angle_beta   104.80587578
_cell_angle_gamma   102.84018888
_symmetry_Int_Tables_number   1
_chemical_formula_structural   CoH14C15(NO2)2
_chemical_formula_sum   'Co2 H28 C30 N4 O8'
_cell_volume   693.64269409
_cell_formula_units_Z   2
loop_
 _symmetry_equiv_pos_site_id
 _symmetry_equiv_pos_as_xyz
  1  'x, y, z'
loop_
 _atom_site_type_symbol
 _atom_site_label
 _atom_site_symmetry_multiplicity
 _atom_site_fract_x
 _atom_site_fract_y
 _atom_site_fract_z
 _atom_site_occupancy
 _atom_site_hle17_ddec_charge
 _atom_site_hle17_ddec_spin_density
 _atom_site_hle17_ddec_sum_bond_order
 _atom_site_hle17_magmom
 _atom_site_hse06_10hf_ddec_charge
 _atom_site_hse06_10hf_ddec_spin_density
 _atom_site_hse06_10hf_ddec_sum_bond_order
 _atom_site_hse06_10hf_magmom
 _atom_site_hse06_ddec_charge
 _atom_site_hse06_ddec_spin_density
 _atom_site_hse06_ddec_sum_bond_order
 _atom_site_hse06_magmom
 _atom_site_pbe_cm5_charge
 _atom_site_pbe_ddec_charge
 _atom_site_pbe_ddec_spin_density
 _atom_site_pbe_ddec_sum_bond_order
 _atom_site_pbe_magmom
Co  Co0  1  0.98490078  0.65811134  0.15021711  1  0.956946  -2.877257  2.016567  -2.584  0.915275  -2.861138  2.433668  -2.647  0.992926  -2.894873  2.360118  -2.72  0.666543  0.848848  -2.833228  2.498966  -2.581
Co  Co1  1  0.01509756  0.34189196  0.84978366  1  0.956653  -2.876996  2.01659  -2.583  0.915249  -2.861135  2.433653  -2.647  0.992898  -2.894869  2.360122  -2.72  0.666513  0.848819  -2.833244  2.498941  -2.581
H  H2  1  0.03995423  0.45681809  0.38172110  1  0.082535  -0.000337  0.981572  -0.001  0.088853  -0.000231  1.050286  -0.001  0.091901  -0.000133  1.047644  -0.001  0.116783  0.086455  -0.000278  1.052352  -0.001
H  H3  1  0.96004473  0.54318759  0.61828202  1  0.082528  -0.000336  0.981536  -0.001  0.088848  -0.000231  1.050258  -0.001  0.091888  -0.000132  1.04763  -0.001  0.116777  0.086446  -0.000278  1.052326  -0.001
H  H4  1  0.25310922  0.44825929  0.59939190  1  0.12746  -0.000197  0.984661  0.0  0.1363  -0.00028  1.044832  0.0  0.14114  -0.000164  1.042165  0.0  0.10981  0.132403  -0.000382  1.047272  0.0
H  H5  1  0.74689126  0.55174757  0.40061063  1  0.127441  -0.000196  0.984625  0.0  0.136307  -0.00028  1.044777  0.0  0.141146  -0.000164  1.04211  0.0  0.109824  0.132407  -0.000382  1.047228  0.0
H  H6  1  0.56445283  0.86621138  0.50858434  1  0.09727  -0.000223  0.975742  0.0  0.107149  -0.00032  1.040334  0.0  0.110188  -0.000237  1.039716  0.0  0.105058  0.104492  -0.0004  1.041747  0.0
H  H7  1  0.43554906  0.13378717  0.49141486  1  0.097221  -0.000222  0.975747  0.0  0.107121  -0.00032  1.040324  0.0  0.11016  -0.000237  1.039708  0.0  0.105037  0.104461  -0.0004  1.041742  0.0
H  H8  1  0.33409794  0.85398544  0.29373865  1  0.085727  -0.000282  0.939799  -0.001  0.093799  -0.00012  1.004148  -0.001  0.097539  -3.1e-05  0.999906  -0.001  0.117853  0.090965  -0.000224  1.00709  -0.001
H  H9  1  0.66590515  0.14601310  0.70626081  1  0.085743  -0.000284  0.939773  -0.001  0.093818  -0.00012  1.004126  -0.001  0.097556  -3.1e-05  0.999881  -0.001  0.117849  0.090978  -0.000224  1.007069  -0.001
H  H10  1  0.64394008  0.45864428  0.98676148  1  0.076743  -0.000184  0.957967  -0.001  0.087038  -0.00017  1.018268  -0.001  0.089308  -8.9e-05  1.016481  -0.001  0.116913  0.084862  -0.000192  1.020419  -0.001
H  H11  1  0.35605486  0.54135070  0.01323387  1  0.076719  -0.000183  0.957941  -0.001  0.087029  -0.00017  1.018228  -0.001  0.089301  -8.9e-05  1.016435  -0.001  0.116905  0.084853  -0.000192  1.020377  -0.001
H  H12  1  0.42773254  0.44382775  0.76642901  1  0.124332  -0.000244  0.990432  0.0  0.132582  -0.000287  1.052939  0.0  0.137457  -0.000164  1.050215  0.0  0.108092  0.128637  -0.000397  1.05528  0.0
H  H13  1  0.57226158  0.55617316  0.23356659  1  0.124387  -0.000245  0.99038  0.0  0.132632  -0.000287  1.052879  0.0  0.137511  -0.000164  1.050155  0.0  0.108136  0.12869  -0.000397  1.055224  0.0
H  H14  1  0.73316257  0.88637928  0.70570646  1  0.110766  -0.000272  0.973125  0.0  0.119655  -0.000346  1.037968  0.0  0.124178  -0.000221  1.034872  0.0  0.105936  0.116033  -0.000471  1.040643  0.0
H  H15  1  0.26683786  0.11362284  0.29429470  1  0.110772  -0.000272  0.973168  0.0  0.119677  -0.000346  1.037985  0.0  0.124198  -0.000221  1.034893  0.0  0.105955  0.116057  -0.000471  1.040661  0.0
H  H16  1  0.93302363  0.87908359  0.92653121  1  0.086978  -0.000325  0.946701  -0.001  0.095806  -0.000266  1.011088  -0.001  0.099055  -0.000168  1.007767  -0.001  0.119573  0.092957  -0.000328  1.01429  -0.001
H  H17  1  0.06697851  0.12091140  0.07346980  1  0.086943  -0.000326  0.946743  -0.001  0.095773  -0.000266  1.011129  -0.001  0.099016  -0.000168  1.00781  -0.001  0.11958  0.092924  -0.000328  1.014329  -0.001
H  H18  1  0.36800702  0.85688930  0.87716645  1  0.100158  0.001086  0.916318  0.001  0.117794  0.000225  0.969185  0.0  0.119428  0.000149  0.969352  0.0  0.098803  0.117018  0.00039  0.968938  0.0
H  H19  1  0.63199209  0.14310332  0.12283168  1  0.100195  0.001088  0.916204  0.001  0.117798  0.000225  0.969127  0.0  0.119433  0.000149  0.969295  0.0  0.098822  0.117024  0.00039  0.968881  0.0
H  H20  1  0.23311402  0.95871049  0.93079193  1  0.097997  -0.000127  0.941822  0.0  0.111675  -0.000313  1.003077  0.0  0.113398  -0.000185  1.002839  0.0  0.095217  0.110387  -0.000313  1.003442  0.0
H  H21  1  0.76688812  0.04128450  0.06920807  1  0.097944  -0.000125  0.941839  0.0  0.111654  -0.000313  1.003071  0.0  0.113377  -0.000185  1.002835  0.0  0.095226  0.110366  -0.000313  1.003436  0.0
H  H22  1  0.17716753  0.76207865  0.64109135  1  0.059025  1.6e-05  0.980389  0.0  0.075568  -1.2e-05  1.044431  0.0  0.074873  1.9e-05  1.047305  0.0  0.084923  0.076776  -3.2e-05  1.041777  0.0
H  H23  1  0.82282987  0.23792108  0.35890793  1  0.059012  1.4e-05  0.980426  0.0  0.075551  -1.2e-05  1.044456  0.0  0.074857  1.9e-05  1.047329  0.0  0.084925  0.076761  -3.2e-05  1.041799  0.0
H  H24  1  0.01289713  0.81813291  0.69102931  1  0.065835  -8.4e-05  0.950654  0.0  0.082821  -0.000141  1.014881  0.0  0.083272  -8.1e-05  1.015652  0.0  0.090372  0.082516  -0.000157  1.014511  0.0
H  H25  1  0.98710298  0.18186801  0.30897168  1  0.065843  -8.4e-05  0.950633  0.0  0.082822  -0.000142  1.014861  0.0  0.083272  -8.1e-05  1.01563  0.0  0.090369  0.082519  -0.000157  1.014489  0.0
H  H26  1  0.32995605  0.06143115  0.68979438  1  0.094758  -0.000156  0.929102  0.0  0.112233  -0.000196  0.985666  0.0  0.113375  -0.000117  0.985802  0.0  0.096454  0.112042  -0.000334  0.985146  0.0
H  H27  1  0.67004917  0.93857098  0.31021191  1  0.094721  -0.000158  0.929138  0.0  0.112184  -0.000196  0.985708  0.0  0.11333  -0.000117  0.985843  0.0  0.096444  0.111997  -0.000334  0.985188  0.0
H  H28  1  0.14971468  0.00280679  0.54494077  1  0.105847  0.000411  0.925647  0.0  0.122564  0.000222  0.982968  0.0  0.124201  0.000183  0.982923  0.0  0.101301  0.12126  0.000278  0.983403  0.0
H  H29  1  0.85029232  0.99719294  0.45505866  1  0.10588  0.000408  0.925717  0.0  0.122543  0.000222  0.983085  0.0  0.124183  0.000183  0.983045  0.0  0.101316  0.121242  0.000278  0.983513  0.0
C  C30  1  0.15830122  0.54539951  0.41460772  1  0.124047  0.018646  3.699403  0.012  0.096191  0.006878  3.954551  0.004  0.1047  0.00587  3.969154  0.004  0.044578  0.089714  0.008273  3.946216  0.005
C  C31  1  0.84169864  0.45460498  0.58539348  1  0.124101  0.018665  3.699338  0.012  0.096228  0.006879  3.954523  0.004  0.10474  0.005872  3.969136  0.004  0.044575  0.089751  0.008274  3.946184  0.005
C  C32  1  0.28007077  0.54143137  0.53619583  1  -0.155566  -0.005551  3.677136  -0.008  -0.17371  -0.001548  3.923217  -0.003  -0.180273  -0.001896  3.939219  -0.003  -0.082329  -0.170612  -0.00043  3.914752  -0.002
C  C33  1  0.71992814  0.45856956  0.46380489  1  -0.155528  -0.005571  3.677184  -0.008  -0.173707  -0.001549  3.923247  -0.003  -0.180274  -0.001896  3.939247  -0.003  -0.082336  -0.170615  -0.00043  3.914791  -0.002
C  C34  1  0.43082970  0.65908887  0.57721320  1  0.091938  0.019211  3.753214  0.012  0.103093  0.009116  3.983051  0.005  0.108637  0.0062  4.00224  0.003  0.008895  0.099096  0.013328  3.971187  0.007
C  C35  1  0.56916864  0.34091442  0.42278656  1  0.091831  0.01925  3.753285  0.012  0.103011  0.009117  3.983082  0.005  0.108567  0.006201  4.002251  0.003  0.008854  0.099011  0.01333  3.97122  0.007
C  C36  1  0.45016032  0.77295476  0.48661921  1  -0.164752  -0.006051  3.710146  -0.009  -0.180913  -0.001782  3.955029  -0.003  -0.188312  -0.001936  3.974682  -0.003  -0.084796  -0.17705  -0.000998  3.944156  -0.003
C  C37  1  0.54984340  0.22704616  0.51338057  1  -0.164634  -0.006072  3.710028  -0.009  -0.180821  -0.001782  3.954894  -0.003  -0.188224  -0.001936  3.974542  -0.003  -0.084754  -0.176958  -0.000998  3.944019  -0.003
C  C38  1  0.32206350  0.76796578  0.36630221  1  0.126704  0.019282  3.704361  0.013  0.098815  0.007562  3.960861  0.004  0.10775  0.0065  3.975365  0.004  0.04454  0.092035  0.008719  3.952486  0.005
C  C39  1  0.67793750  0.23203395  0.63369789  1  0.126668  0.01932  3.704292  0.013  0.098763  0.007562  3.960831  0.004  0.107705  0.006502  3.975328  0.004  0.044517  0.091983  0.008719  3.952446  0.005
C  C40  1  0.65939791  0.54997207  0.92002671  1  0.142705  0.019027  3.697467  0.012  0.114481  0.006909  3.954294  0.004  0.123355  0.006158  3.969228  0.004  0.046256  0.107385  0.008617  3.946162  0.005
C  C41  1  0.34059943  0.45002292  0.07997120  1  0.1428  0.018985  3.69743  0.012  0.114566  0.006909  3.95426  0.004  0.12344  0.006158  3.969194  0.004  0.046286  0.107471  0.008616  3.946126  0.005
C  C42  1  0.53780076  0.54314761  0.79515127  1  -0.157523  -0.005272  3.673005  -0.008  -0.176097  -0.001062  3.917881  -0.002  -0.183335  -0.001488  3.936229  -0.002  -0.083519  -0.172199  -5.1e-05  3.908047  -0.002
C  C43  1  0.46219482  0.45684975  0.20484540  1  -0.157658  -0.005247  3.673021  -0.008  -0.176231  -0.001062  3.917884  -0.002  -0.183478  -0.001487  3.936238  -0.002  -0.083603  -0.172338  -5e-05  3.908058  -0.002
C  C44  1  0.55864392  0.66302515  0.71045372  1  0.088215  0.018384  3.761793  0.011  0.101043  0.00793  3.99119  0.004  0.105512  0.005463  4.012073  0.003  0.006509  0.096638  0.012867  3.978828  0.007
C  C45  1  0.44135500  0.33697577  0.28954599  1  0.088288  0.018343  3.761909  0.011  0.101125  0.007928  3.991267  0.004  0.105589  0.005459  4.012155  0.003  0.006551  0.096722  0.012867  3.978908  0.007
C  C46  1  0.70436205  0.78642259  0.76131679  1  -0.160792  -0.005961  3.694796  -0.009  -0.179045  -0.0016  3.939244  -0.003  -0.185598  -0.001783  3.956288  -0.003  -0.08392  -0.175288  -0.001049  3.930105  -0.003
C  C47  1  0.29563927  0.21357834  0.23868448  1  -0.160855  -0.005946  3.694881  -0.009  -0.179127  -0.001599  3.939337  -0.003  -0.185681  -0.001782  3.956383  -0.003  -0.083944  -0.175374  -0.001048  3.930205  -0.003
C  C48  1  0.82002424  0.78356308  0.88757226  1  0.13278  0.018881  3.691956  0.013  0.106954  0.006572  3.944985  0.004  0.116049  0.00556  3.959159  0.003  0.044292  0.099516  0.008539  3.937775  0.005
C  C49  1  0.17997525  0.21643548  0.11242842  1  0.132888  0.018858  3.691952  0.012  0.107062  0.006572  3.945017  0.004  0.116165  0.005561  3.959182  0.003  0.044312  0.099623  0.00854  3.937807  0.005
C  C50  1  0.16216717  0.70892604  0.92442360  1  0.701144  0.010828  3.820181  0.007  0.662093  -0.002149  4.126181  -0.004  0.700602  -0.001948  4.118352  -0.004  0.219101  0.633486  -0.000811  4.128811  -0.003
C  C51  1  0.83783409  0.29107014  0.07557528  1  0.701221  0.010833  3.820174  0.007  0.662121  -0.002149  4.126247  -0.004  0.700634  -0.001949  4.118416  -0.004  0.219155  0.633511  -0.000812  4.128881  -0.003
C  C52  1  0.23580875  0.85276442  0.86386360  1  -0.262242  -0.005967  3.660542  -0.009  -0.29679  -0.003938  3.906557  -0.006  -0.303189  -0.00263  3.914389  -0.004  -0.165261  -0.2923  -0.005476  3.901538  -0.008
C  C53  1  0.76419282  0.14723294  0.13613544  1  -0.262188  -0.005968  3.660513  -0.009  -0.296743  -0.003937  3.90656  -0.006  -0.303144  -0.002629  3.914391  -0.004  -0.165284  -0.292254  -0.005475  3.901545  -0.008
C  C54  1  0.14783321  0.85182050  0.70781243  1  -0.063552  -0.001205  3.6946  -0.002  -0.106581  -0.001423  3.95178  -0.002  -0.10572  -0.000956  3.965719  -0.001  -0.172581  -0.10784  -0.001918  3.942288  -0.002
C  C55  1  0.85216658  0.14817924  0.29218841  1  -0.063559  -0.001204  3.694664  -0.002  -0.10655  -0.001423  3.951781  -0.002  -0.105679  -0.000957  3.965723  -0.001  -0.17255  -0.107808  -0.001918  3.942289  -0.002
C  C56  1  0.19449107  0.01344553  0.66129381  1  -0.256838  -0.002017  3.677442  -0.003  -0.293111  -0.001533  3.929317  -0.002  -0.298628  -0.000846  3.938187  -0.001  -0.164593  -0.289357  -0.002321  3.923052  -0.003
C  C57  1  0.80551056  0.98655659  0.33870862  1  -0.256807  -0.00201  3.677603  -0.003  -0.293018  -0.001532  3.929419  -0.002  -0.298558  -0.000846  3.938326  -0.001  -0.164589  -0.289266  -0.002321  3.923153  -0.003
C  C58  1  0.12220397  0.13623320  0.72403572  1  0.664932  0.013043  3.857011  0.011  0.625163  0.005397  4.162705  0.005  0.659808  0.004268  4.160714  0.003  0.195549  0.600712  0.005851  4.160044  0.006
C  C59  1  0.87779615  0.86376771  0.27596123  1  0.664772  0.013039  3.857178  0.011  0.625016  0.005396  4.162852  0.005  0.659669  0.004265  4.160865  0.003  0.195472  0.600573  0.005851  4.160192  0.006
N  N60  1  0.17610640  0.65699765  0.33015380  1  -0.302004  -0.033003  3.303249  -0.064  -0.254029  -0.023212  3.58371  -0.041  -0.274195  -0.020102  3.595421  -0.036  -0.327862  -0.240072  -0.025246  3.576474  -0.044
N  N61  1  0.82389315  0.34300564  0.66984724  1  -0.302013  -0.033017  3.303165  -0.064  -0.254054  -0.023213  3.583684  -0.041  -0.274219  -0.020104  3.595393  -0.036  -0.327854  -0.240095  -0.025248  3.576433  -0.044
N  N62  1  0.80098235  0.66626785  0.96656626  1  -0.323909  -0.032011  3.321091  -0.063  -0.276789  -0.022563  3.602861  -0.04  -0.29768  -0.019509  3.614947  -0.035  -0.3293  -0.262466  -0.02409  3.597113  -0.042
N  N63  1  0.19901498  0.33372715  0.03343267  1  -0.323917  -0.031999  3.321107  -0.063  -0.276839  -0.022563  3.602932  -0.04  -0.297727  -0.019509  3.615015  -0.035  -0.329313  -0.262513  -0.02409  3.597175  -0.042
O  O64  1  0.16074918  0.73155021  0.05359990  1  -0.643127  -0.042105  2.12605  -0.071  -0.618598  -0.031813  2.422442  -0.05  -0.657789  -0.022341  2.410556  -0.035  -0.321976  -0.583506  -0.043655  2.426165  -0.069
O  O65  1  0.83924973  0.26845070  0.94639779  1  -0.643162  -0.042108  2.126063  -0.072  -0.618633  -0.031813  2.422521  -0.05  -0.65782  -0.022342  2.410633  -0.035  -0.321973  -0.583536  -0.043654  2.426238  -0.069
O  O66  1  0.10875360  0.57550025  0.84458509  1  -0.613824  -0.042718  2.125681  -0.073  -0.578657  -0.035957  2.416162  -0.057  -0.615811  -0.027418  2.40413  -0.043  -0.302417  -0.546237  -0.046096  2.421101  -0.073
O  O67  1  0.89125075  0.42450304  0.15541603  1  -0.613873  -0.042726  2.125642  -0.073  -0.578702  -0.035961  2.416163  -0.057  -0.615862  -0.027419  2.40413  -0.043  -0.302475  -0.546281  -0.0461  2.421107  -0.073
O  O68  1  0.19124946  0.28362215  0.73543474  1  -0.622544  -0.037325  1.99879  -0.066  -0.588023  -0.028535  2.24932  -0.05  -0.625239  -0.020148  2.244236  -0.036  -0.313762  -0.555729  -0.038124  2.248937  -0.064
O  O69  1  0.80875400  0.71638233  0.26456727  1  -0.622517  -0.03732  1.998943  -0.066  -0.587973  -0.028536  2.249467  -0.05  -0.62519  -0.020148  2.24438  -0.036  -0.313733  -0.555672  -0.038122  2.249085  -0.064
O  O70  1  0.99318078  0.09263414  0.76612144  1  -0.618048  -0.040064  1.969965  -0.072  -0.584564  -0.029873  2.229546  -0.053  -0.622849  -0.020908  2.226055  -0.038  -0.311025  -0.551543  -0.039856  2.228249  -0.068
O  O71  1  0.00681693  0.90736678  0.23387699  1  -0.61798  -0.040064  1.969989  -0.072  -0.584537  -0.029873  2.229596  -0.053  -0.622811  -0.020907  2.226082  -0.038  -0.311007  -0.551511  -0.039853  2.2283  -0.068
