# generated using pymatgen
data_AgH9C10NCl
_symmetry_space_group_name_H-M   'P 1'
_cell_length_a   4.02360153
_cell_length_b   14.89944892
_cell_length_c   15.26121741
_cell_angle_alpha   90.00048038
_cell_angle_beta   90.00035348
_cell_angle_gamma   94.13021169
_symmetry_Int_Tables_number   1
_chemical_formula_structural   AgH9C10NCl
_chemical_formula_sum   'Ag4 H36 C40 N4 Cl4'
_cell_volume   912.52547027
_cell_formula_units_Z   4
loop_
 _symmetry_equiv_pos_site_id
 _symmetry_equiv_pos_as_xyz
  1  'x, y, z'
loop_
 _atom_site_type_symbol
 _atom_site_label
 _atom_site_symmetry_multiplicity
 _atom_site_fract_x
 _atom_site_fract_y
 _atom_site_fract_z
 _atom_site_occupancy
 _atom_site_hle17_bader_spin_density
 _atom_site_hle17_ddec_charge
 _atom_site_hle17_ddec_spin_density
 _atom_site_hle17_ddec_sum_bond_order
 _atom_site_hle17_magmom
 _atom_site_hse06_10hf_bader_spin_density
 _atom_site_hse06_10hf_ddec_charge
 _atom_site_hse06_10hf_ddec_spin_density
 _atom_site_hse06_10hf_ddec_sum_bond_order
 _atom_site_hse06_10hf_magmom
 _atom_site_hse06_bader_spin_density
 _atom_site_hse06_ddec_charge
 _atom_site_hse06_ddec_spin_density
 _atom_site_hse06_ddec_sum_bond_order
 _atom_site_hse06_magmom
 _atom_site_pbe_bader_spin_density
 _atom_site_pbe_cm5_charge
 _atom_site_pbe_ddec_charge
 _atom_site_pbe_ddec_spin_density
 _atom_site_pbe_ddec_sum_bond_order
 _atom_site_pbe_magmom
Ag  Ag0  1  0.31383440  0.92112357  0.04350971  1  0  0.457677  0  1.638573  0  0  0.345087  0  2.11596  0  0  0.371949  0  2.067056  0  0  0.327784  0.326629  0  2.149527  0
Ag  Ag1  1  0.18617745  0.57887483  0.54350830  1  0  0.457673  0  1.638628  0  0  0.345114  0  2.116  0  0  0.371972  0  2.067101  0  0  0.327796  0.326657  0  2.149578  0
Ag  Ag2  1  0.68616566  0.07887405  0.95649141  1  0  0.457717  0  1.638567  0  0  0.345139  0  2.115954  0  0  0.371999  0  2.067049  0  0  0.327802  0.326688  0  2.149513  0
Ag  Ag3  1  0.81383815  0.42112475  0.45649086  1  0  0.45768  0  1.638588  0  0  0.345115  0  2.115957  0  0  0.371974  0  2.067058  0  0  0.327791  0.326653  0  2.149535  0
H  H4  1  0.81329139  0.77489659  0.08194027  1  0  0.119718  0  0.977322  0  0  0.134441  0  1.052767  0  0  0.136787  0  1.050878  0  0  0.086053  0.1327  0  1.054139  0
H  H5  1  0.68670854  0.72510980  0.58193940  1  0  0.119723  0  0.977341  0  0  0.13447  0  1.052756  0  0  0.136815  0  1.050868  0  0  0.086071  0.132729  0  1.054132  0
H  H6  1  0.18670275  0.22510577  0.91806086  1  0  0.119747  0  0.977299  0  0  0.134469  0  1.052744  0  0  0.136813  0  1.050857  0  0  0.086065  0.132727  0  1.054118  0
H  H7  1  0.31330545  0.27489249  0.41805715  1  0  0.119745  0  0.977412  0  0  0.134505  0  1.052819  0  0  0.136851  0  1.050932  0  0  0.086072  0.132763  0  1.054191  0
H  H8  1  0.17461945  0.71605214  0.06688501  1  0  0.113303  0  0.947629  0  0  0.136751  0  1.009773  0  0  0.138432  0  1.008238  0  0  0.092988  0.135497  0  1.010915  0
H  H9  1  0.32536970  0.78395129  0.56688746  1  0  0.113295  0  0.94766  0  0  0.136729  0  1.009838  0  0  0.138411  0  1.008295  0  0  0.092979  0.135475  0  1.01098  0
H  H10  1  0.82536993  0.28395092  0.93311743  1  0  0.113245  0  0.947625  0  0  0.136675  0  1.009823  0  0  0.13836  0  1.008277  0  0  0.092945  0.135418  0  1.010972  0
H  H11  1  0.67463598  0.21604833  0.43311301  1  0  0.113254  0  0.947669  0  0  0.136688  0  1.009861  0  0  0.138371  0  1.008317  0  0  0.092953  0.135431  0  1.011007  0
H  H12  1  0.84704826  0.66803566  0.13437015  1  0  0.114261  0  0.961964  0  0  0.136037  0  1.021431  0  0  0.137581  0  1.021502  0  0  0.091259  0.134955  0  1.021362  0
H  H13  1  0.65293500  0.83196927  0.63437402  1  0  0.114298  0  0.962073  0  0  0.136053  0  1.021549  0  0  0.137595  0  1.021623  0  0  0.09128  0.134972  0  1.021477  0
H  H14  1  0.15293799  0.33196539  0.86562770  1  0  0.114278  0  0.961995  0  0  0.136063  0  1.021451  0  0  0.137605  0  1.021525  0  0  0.09127  0.134981  0  1.02138  0
H  H15  1  0.34707381  0.16803237  0.36562514  1  0  0.114274  0  0.962037  0  0  0.136065  0  1.021471  0  0  0.137606  0  1.021547  0  0  0.091267  0.134983  0  1.021402  0
H  H16  1  0.96433050  0.67771963  0.28789932  1  0  0.11137  0  0.97103  0  0  0.12098  0  1.034253  0  0  0.123879  0  1.034366  0  0  0.096559  0.118874  0  1.034406  0
H  H17  1  0.53564593  0.82228404  0.78790030  1  0  0.111352  0  0.971091  0  0  0.120975  0  1.034297  0  0  0.123874  0  1.034407  0  0  0.096549  0.118867  0  1.034448  0
H  H18  1  0.03564042  0.32228013  0.71210246  1  0  0.111441  0  0.970983  0  0  0.120988  0  1.034279  0  0  0.123888  0  1.034389  0  0  0.096573  0.118879  0  1.034428  0
H  H19  1  0.46437691  0.17771484  0.21209820  1  0  0.11138  0  0.971202  0  0  0.120974  0  1.034415  0  0  0.123875  0  1.034524  0  0  0.096579  0.118869  0  1.034558  0
H  H20  1  0.23563964  0.75673996  0.41331106  1  0  0.093858  0  0.953171  0  0  0.102835  0  1.021499  0  0  0.105687  0  1.018452  0  0  0.098291  0.100628  0  1.023897  0
H  H21  1  0.26436084  0.74325854  0.91331112  1  0  0.093899  0  0.95313  0  0  0.102869  0  1.021459  0  0  0.105721  0  1.018412  0  0  0.09831  0.10066  0  1.023853  0
H  H22  1  0.76434283  0.24325706  0.58669072  1  0  0.093984  0  0.953036  0  0  0.102891  0  1.02142  0  0  0.105744  0  1.018373  0  0  0.098301  0.100681  0  1.023814  0
H  H23  1  0.73564776  0.25674242  0.08668739  1  0  0.093874  0  0.953171  0  0  0.102861  0  1.021477  0  0  0.105715  0  1.018429  0  0  0.098313  0.100653  0  1.023871  0
H  H24  1  0.58627569  0.89318012  0.46958461  1  0  0.085591  0  0.968279  0  0  0.099795  0  1.028752  0  0  0.101811  0  1.028538  0  0  0.09853  0.098342  0  1.028952  0
H  H25  1  0.91374029  0.60681765  0.96957790  1  0  0.085602  0  0.968424  0  0  0.099799  0  1.028891  0  0  0.101815  0  1.028677  0  0  0.098557  0.098345  0  1.029088  0
H  H26  1  0.41373181  0.10681747  0.53041717  1  0  0.085623  0  0.968269  0  0  0.099816  0  1.028762  0  0  0.101833  0  1.028545  0  0  0.098535  0.098362  0  1.028959  0
H  H27  1  0.08624047  0.39318949  0.03041864  1  0  0.085622  0  0.96832  0  0  0.099823  0  1.028796  0  0  0.101838  0  1.028583  0  0  0.098552  0.09837  0  1.028994  0
H  H28  1  0.91030945  0.03799593  0.43836763  1  0  0.080083  0  0.967141  0  0  0.092911  0  1.028667  0  0  0.095114  0  1.028529  0  0  0.096393  0.091275  0  1.028949  0
H  H29  1  0.58970674  0.46200400  0.93836001  1  0  0.079999  0  0.967229  0  0  0.092876  0  1.028722  0  0  0.0951  0  1.02856  0  0  0.096335  0.091239  0  1.029008  0
H  H30  1  0.08970755  0.96200028  0.56163154  1  0  0.080051  0  0.967142  0  0  0.092891  0  1.02866  0  0  0.095093  0  1.028522  0  0  0.096367  0.091253  0  1.02895  0
H  H31  1  0.41026927  0.53800382  0.06163719  1  0  0.080098  0  0.967077  0  0  0.092896  0  1.028651  0  0  0.0951  0  1.028514  0  0  0.096322  0.091257  0  1.028941  0
H  H32  1  0.96397396  0.09404287  0.28398637  1  0  0.083735  0  0.964742  0  0  0.097168  0  1.023223  0  0  0.099175  0  1.023246  0  0  0.097855  0.095686  0  1.023338  0
H  H33  1  0.53603889  0.40595767  0.78397887  1  0  0.083697  0  0.964845  0  0  0.097176  0  1.023284  0  0  0.099183  0  1.023308  0  0  0.097817  0.095692  0  1.0234  0
H  H34  1  0.03603582  0.90595404  0.71601148  1  0  0.08365  0  0.964841  0  0  0.097093  0  1.023303  0  0  0.099091  0  1.02335  0  0  0.097823  0.095609  0  1.023421  0
H  H35  1  0.46395093  0.59404674  0.21601899  1  0  0.083716  0  0.96488  0  0  0.097183  0  1.023319  0  0  0.099191  0  1.023338  0  0  0.097806  0.0957  0  1.023439  0
H  H36  1  0.68507559  0.00927765  0.16304525  1  0  0.098204  0  0.994989  0  0  0.101836  0  1.07538  0  0  0.105806  0  1.071073  0  0  0.086366  0.098842  0  1.078683  0
H  H37  1  0.81492895  0.49072114  0.66303889  1  0  0.098282  0  0.995017  0  0  0.10186  0  1.075434  0  0  0.105827  0  1.071132  0  0  0.086357  0.09887  0  1.078739  0
H  H38  1  0.31491368  0.99071733  0.83695587  1  0  0.09823  0  0.995004  0  0  0.101858  0  1.075385  0  0  0.105825  0  1.071083  0  0  0.086372  0.098862  0  1.078701  0
H  H39  1  0.18508687  0.50927912  0.33695962  1  0  0.098354  0  0.994934  0  0  0.101926  0  1.075349  0  0  0.105893  0  1.071051  0  0  0.086402  0.098936  0  1.07866  0
C  C40  1  0.14394442  0.77854722  0.19255936  1  0  0.3235  0  3.714134  0  0  0.330419  0  3.954238  0  0  0.341822  0  3.972897  0  0  0.124549  0.322847  0  3.941404  0
C  C41  1  0.35604938  0.72145399  0.69255807  1  0  0.323533  0  3.713989  0  0  0.330534  0  3.954023  0  0  0.341952  0  3.97266  0  0  0.124589  0.322962  0  3.941191  0
C  C42  1  0.85603374  0.22145185  0.80744242  1  0  0.323666  0  3.7139  0  0  0.330563  0  3.954041  0  0  0.341958  0  3.97271  0  0  0.124641  0.322989  0  3.94121  0
C  C43  1  0.64396666  0.27854694  0.30744109  1  0  0.323815  0  3.713624  0  0  0.330661  0  3.953867  0  0  0.342049  0  3.972542  0  0  0.124676  0.323091  0  3.941034  0
C  C44  1  0.98337759  0.73127744  0.11514269  1  0  -0.379347  0  3.705967  0  0  -0.463428  0  3.942347  0  0  -0.466429  0  3.948164  0  0  -0.245203  -0.461066  0  3.938231  0
C  C45  1  0.51662050  0.76872859  0.61514255  1  0  -0.379362  0  3.705972  0  0  -0.463459  0  3.942361  0  0  -0.466459  0  3.94817  0  0  -0.245232  -0.461097  0  3.938247  0
C  C46  1  0.01660370  0.26872363  0.88485647  1  0  -0.379389  0  3.705895  0  0  -0.46346  0  3.942288  0  0  -0.466455  0  3.948109  0  0  -0.245234  -0.461096  0  3.938168  0
C  C47  1  0.48339554  0.23127234  0.38485530  1  0  -0.379438  0  3.705915  0  0  -0.463533  0  3.942327  0  0  -0.466528  0  3.94815  0  0  -0.245254  -0.461171  0  3.938208  0
C  C48  1  0.11096798  0.74116092  0.27764676  1  0  -0.175393  0  3.702562  0  0  -0.193157  0  3.95064  0  0  -0.202324  0  3.972098  0  0  -0.092113  -0.187298  0  3.936425  0
C  C49  1  0.38902824  0.75884173  0.77764714  1  0  -0.175418  0  3.702494  0  0  -0.193219  0  3.950545  0  0  -0.202387  0  3.971995  0  0  -0.092122  -0.187359  0  3.936323  0
C  C50  1  0.88900791  0.25883882  0.72235699  1  0  -0.175389  0  3.702418  0  0  -0.193112  0  3.950474  0  0  -0.202275  0  3.971934  0  0  -0.092058  -0.18725  0  3.93625  0
C  C51  1  0.61098737  0.24115785  0.22235202  1  0  -0.175471  0  3.702514  0  0  -0.193196  0  3.950617  0  0  -0.202357  0  3.972078  0  0  -0.092106  -0.187337  0  3.936394  0
C  C52  1  0.26032381  0.78575559  0.34781184  1  0  -0.021207  0  3.70056  0  0  -0.047494  0  3.951669  0  0  -0.042521  0  3.968382  0  0  -0.064524  -0.050644  0  3.940445  0
C  C53  1  0.23967745  0.71424230  0.84780965  1  0  -0.021256  0  3.700588  0  0  -0.047497  0  3.951699  0  0  -0.042526  0  3.968414  0  0  -0.064575  -0.050643  0  3.940462  0
C  C54  1  0.73966406  0.21424276  0.65219191  1  0  -0.021431  0  3.700706  0  0  -0.047585  0  3.951761  0  0  -0.042615  0  3.968474  0  0  -0.06459  -0.050733  0  3.940525  0
C  C55  1  0.76032822  0.28575732  0.15218885  1  0  -0.02129  0  3.700655  0  0  -0.04754  0  3.951758  0  0  -0.04257  0  3.968472  0  0  -0.064597  -0.050687  0  3.940523  0
C  C56  1  0.44745697  0.86855702  0.33421840  1  0  0.009233  0  3.799578  0  0  0.028877  0  4.021822  0  0  0.024379  0  4.047472  0  0  -0.007216  0.031682  0  4.004554  0
C  C57  1  0.05254890  0.63144072  0.83421523  1  0  0.009203  0  3.799571  0  0  0.028792  0  4.021925  0  0  0.024279  0  4.047564  0  0  -0.007197  0.031605  0  4.004667  0
C  C58  1  0.55254082  0.13144128  0.66578470  1  0  0.009221  0  3.799723  0  0  0.02878  0  4.022042  0  0  0.024283  0  4.047692  0  0  -0.007263  0.031584  0  4.004775  0
C  C59  1  0.94745224  0.36856027  0.16578393  1  0  0.009205  0  3.799545  0  0  0.028766  0  4.021901  0  0  0.024269  0  4.047551  0  0  -0.007235  0.031577  0  4.004639  0
C  C60  1  0.60769722  0.91914704  0.40284432  1  0  -0.108356  0  3.758355  0  0  -0.127448  0  4.00384  0  0  -0.129366  0  4.026599  0  0  -0.090668  -0.125926  0  3.988316  0
C  C61  1  0.89232719  0.58085076  0.90283998  1  0  -0.10832  0  3.75849  0  0  -0.127394  0  4.004005  0  0  -0.129314  0  4.026774  0  0  -0.090685  -0.12587  0  3.988478  0
C  C62  1  0.39231731  0.08084918  0.59715812  1  0  -0.108303  0  3.758292  0  0  -0.127368  0  4.003801  0  0  -0.129287  0  4.026561  0  0  -0.0906  -0.125843  0  3.988274  0
C  C63  1  0.10766263  0.41915364  0.09715918  1  0  -0.108365  0  3.758469  0  0  -0.127433  0  4.003963  0  0  -0.129355  0  4.026724  0  0  -0.090697  -0.125908  0  3.988434  0
C  C64  1  0.78738381  0.99944508  0.38533112  1  0  -0.084111  0  3.800489  0  0  -0.100509  0  4.056085  0  0  -0.103911  0  4.079499  0  0  -0.096888  -0.098251  0  4.040202  0
C  C65  1  0.71262590  0.50055464  0.88532649  1  0  -0.083952  0  3.800264  0  0  -0.100388  0  4.055859  0  0  -0.103808  0  4.079268  0  0  -0.096771  -0.098134  0  4.039981  0
C  C66  1  0.21261808  0.00055052  0.61466805  1  0  -0.084061  0  3.80032  0  0  -0.100472  0  4.055911  0  0  -0.103871  0  4.07932  0  0  -0.096854  -0.098221  0  4.040038  0
C  C67  1  0.28735939  0.49945113  0.11467202  1  0  -0.083999  0  3.800295  0  0  -0.100382  0  4.05587  0  0  -0.103787  0  4.079284  0  0  -0.096768  -0.098129  0  4.039993  0
C  C68  1  0.81673552  0.03151882  0.29828106  1  0  -0.04602  0  3.759948  0  0  -0.060081  0  4.008582  0  0  -0.061057  0  4.031108  0  0  -0.087661  -0.059192  0  3.993195  0
C  C69  1  0.68327845  0.46847646  0.79827364  1  0  -0.046124  0  3.759918  0  0  -0.060219  0  4.008525  0  0  -0.061195  0  4.031059  0  0  -0.087711  -0.059325  0  3.993144  0
C  C70  1  0.18326594  0.96847543  0.70171876  1  0  -0.045946  0  3.759856  0  0  -0.060008  0  4.008479  0  0  -0.060984  0  4.030996  0  0  -0.08767  -0.059118  0  3.993106  0
C  C71  1  0.31672313  0.53152587  0.20172552  1  0  -0.04621  0  3.76005  0  0  -0.060271  0  4.008598  0  0  -0.061245  0  4.031128  0  0  -0.087706  -0.05938  0  3.993225  0
C  C72  1  0.66179699  0.98436624  0.23016312  1  0  -0.133706  0  3.701216  0  0  -0.155254  0  3.95501  0  0  -0.159545  0  3.974925  0  0  -0.090028  -0.152424  0  3.941685  0
C  C73  1  0.83821345  0.51563137  0.73015358  1  0  -0.133806  0  3.70137  0  0  -0.155279  0  3.95518  0  0  -0.159579  0  3.975067  0  0  -0.090039  -0.152421  0  3.941816  0
C  C74  1  0.33819702  0.01562804  0.76983866  1  0  -0.133745  0  3.701104  0  0  -0.155272  0  3.954876  0  0  -0.15956  0  3.974784  0  0  -0.090023  -0.152426  0  3.941515  0
C  C75  1  0.16179514  0.48436959  0.26984493  1  0  -0.133768  0  3.70118  0  0  -0.155265  0  3.954984  0  0  -0.159546  0  3.97487  0  0  -0.090021  -0.152412  0  3.941627  0
C  C76  1  0.47254947  0.90233816  0.24641429  1  0  0.205869  0  3.764305  0  0  0.204677  0  3.993575  0  0  0.211069  0  4.017367  0  0  0.107464  0.20046  0  3.9775  0
C  C77  1  0.02746698  0.59766008  0.74640884  1  0  0.206021  0  3.764187  0  0  0.204798  0  3.993547  0  0  0.211238  0  4.017273  0  0  0.107557  0.200542  0  3.977535  0
C  C78  1  0.52745016  0.09765812  0.75358815  1  0  0.205913  0  3.764249  0  0  0.204718  0  3.993534  0  0  0.211111  0  4.017324  0  0  0.1075  0.200497  0  3.97748  0
C  C79  1  0.97254409  0.40234087  0.25358967  1  0  0.205979  0  3.764136  0  0  0.204813  0  3.993412  0  0  0.211206  0  4.017206  0  0  0.107512  0.200567  0  3.977392  0
N  N80  1  0.31827791  0.85678270  0.17780215  1  0  -0.388709  0  3.216702  0  0  -0.31573  0  3.483376  0  0  -0.336894  0  3.49955  0  0  -0.335577  -0.301488  0  3.472187  0
N  N81  1  0.18173471  0.64321627  0.67779994  1  0  -0.388814  0  3.216769  0  0  -0.315905  0  3.483516  0  0  -0.337088  0  3.499669  0  0  -0.335658  -0.301657  0  3.472349  0
N  N82  1  0.68171470  0.14321496  0.82220029  1  0  -0.388901  0  3.216824  0  0  -0.315912  0  3.483514  0  0  -0.337072  0  3.499689  0  0  -0.335687  -0.301674  0  3.472339  0
N  N83  1  0.81828316  0.35678263  0.32219791  1  0  -0.388915  0  3.216835  0  0  -0.315957  0  3.483583  0  0  -0.337116  0  3.499762  0  0  -0.335677  -0.301711  0  3.472412  0
Cl  Cl84  1  0.80443868  0.89819628  0.93828857  1  0  -0.559557  0  1.212283  0  0  -0.468709  0  1.566122  0  0  -0.491443  0  1.53645  0  0  -0.294198  -0.452125  0  1.586232  0
Cl  Cl85  1  0.69555772  0.60180465  0.43828850  1  0  -0.559549  0  1.212289  0  0  -0.468708  0  1.566136  0  0  -0.491443  0  1.536464  0  0  -0.294193  -0.452121  0  1.586257  0
Cl  Cl86  1  0.19555707  0.10180338  0.06171321  1  0  -0.559551  0  1.212232  0  0  -0.468722  0  1.566089  0  0  -0.491455  0  1.536417  0  0  -0.294215  -0.452139  0  1.586204  0
Cl  Cl87  1  0.30445270  0.39819428  0.56171066  1  0  -0.559566  0  1.212266  0  0  -0.468715  0  1.566084  0  0  -0.491449  0  1.536413  0  0  -0.294211  -0.452132  0  1.586201  0
