# generated using pymatgen
data_MnH30C35(NO4)2
_symmetry_space_group_name_H-M   'P 1'
_cell_length_a   14.28790520
_cell_length_b   12.92662004
_cell_length_c   18.14824159
_cell_angle_alpha   89.99956837
_cell_angle_beta   89.99891850
_cell_angle_gamma   95.63325610
_symmetry_Int_Tables_number   1
_chemical_formula_structural   MnH30C35(NO4)2
_chemical_formula_sum   'Mn4 H120 C140 N8 O32'
_cell_volume   3335.68958848
_cell_formula_units_Z   4
loop_
 _symmetry_equiv_pos_site_id
 _symmetry_equiv_pos_as_xyz
  1  'x, y, z'
loop_
 _atom_site_type_symbol
 _atom_site_label
 _atom_site_symmetry_multiplicity
 _atom_site_fract_x
 _atom_site_fract_y
 _atom_site_fract_z
 _atom_site_occupancy
 _atom_site_pbe_bader_charge
 _atom_site_pbe_bader_spin_density
 _atom_site_pbe_cm5_charge
 _atom_site_pbe_ddec_charge
 _atom_site_pbe_ddec_spin_density
 _atom_site_pbe_ddec_sum_bond_order
 _atom_site_pbe_magmom
Mn  Mn0  1  0.49997958  0.99998956  0.99999345  1  1.483694  4.563791  0.592826  0.894948  4.69381  2.334536  4.481
Mn  Mn1  1  0.00001229  0.00002223  0.50000381  1  1.483573  4.563807  0.592873  0.89501  4.693799  2.33442  4.481
Mn  Mn2  1  0.50000065  0.49998860  0.00000648  1  1.496989  4.564455  0.594265  0.924534  4.696812  2.319332  4.488
Mn  Mn3  1  0.99999705  0.50000773  0.50000711  1  1.496977  4.5645  0.594325  0.924675  4.696842  2.319013  4.488
H  H4  1  0.35147360  0.65765946  0.99928744  1  0.097673  0.00133  0.11683  0.080072  0.000695  1.029287  0.001
H  H5  1  0.14854750  0.34239407  0.49928104  1  0.097476  0.00133  0.116818  0.080027  0.000695  1.029362  0.001
H  H6  1  0.64855155  0.34236921  0.00071496  1  0.09745  0.001331  0.116851  0.07999  0.000695  1.029428  0.001
H  H7  1  0.85145535  0.65763558  0.50072246  1  0.097401  0.001331  0.116835  0.079998  0.000695  1.029349  0.001
H  H8  1  0.26436369  0.76173281  0.08632111  1  0.069573  0.000546  0.103274  0.107123  0.000211  1.051959  0.0
H  H9  1  0.23563570  0.23827664  0.58630012  1  0.069284  0.000546  0.103305  0.107092  0.00021  1.052232  0.0
H  H10  1  0.73564488  0.23826179  0.91369451  1  0.069163  0.000546  0.103303  0.107051  0.000211  1.052337  0.0
H  H11  1  0.76434733  0.76171430  0.41369456  1  0.069283  0.000545  0.103266  0.107067  0.00021  1.052377  0.0
H  H12  1  0.42991107  0.65004027  0.26236479  1  0.11452  0.000576  0.106133  0.11774  0.000312  1.021695  0.0
H  H13  1  0.07007859  0.34991168  0.76235778  1  0.115043  0.000576  0.106182  0.117813  0.000312  1.021548  0.0
H  H14  1  0.57009343  0.34991935  0.73764367  1  0.114786  0.000576  0.106124  0.11775  0.000312  1.021537  0.0
H  H15  1  0.92989767  0.65005987  0.23764902  1  0.114943  0.000576  0.106104  0.117585  0.000312  1.021893  0.0
H  H16  1  0.50986157  0.54856021  0.16893503  1  0.110354  0.001405  0.117696  0.083259  0.000777  1.019229  0.001
H  H17  1  0.99014286  0.45143148  0.66894600  1  0.110308  0.001405  0.117638  0.083161  0.000777  1.019366  0.001
H  H18  1  0.49016139  0.45143114  0.83105910  1  0.110608  0.001404  0.117657  0.083278  0.000776  1.019397  0.001
H  H19  1  0.00985285  0.54857491  0.33106356  1  0.110565  0.001405  0.117637  0.083126  0.000777  1.019399  0.001
H  H20  1  0.32049966  0.77352558  0.29016355  1  0.046129  6.3e-05  0.093939  0.093454  3.7e-05  1.018101  0.0
H  H21  1  0.17949630  0.22640416  0.79013520  1  0.04673  6.3e-05  0.094025  0.093544  3.7e-05  1.018145  0.0
H  H22  1  0.67950087  0.22643641  0.70985097  1  0.04653  6.3e-05  0.094008  0.09356  3.7e-05  1.017989  0.0
H  H23  1  0.82050391  0.77353994  0.20984791  1  0.046448  6.3e-05  0.09393  0.093485  3.7e-05  1.01811  0.0
H  H24  1  0.29542588  0.85947839  0.21863757  1  0.050728  0.000462  0.097457  0.101609  0.000253  0.969017  0.0
H  H25  1  0.20460811  0.14050875  0.71859553  1  0.050359  0.000462  0.097447  0.101654  0.000252  0.968918  0.0
H  H26  1  0.70459254  0.14050211  0.78138301  1  0.050665  0.000461  0.097359  0.101623  0.000252  0.968992  0.0
H  H27  1  0.79541580  0.85947793  0.28137711  1  0.051036  0.000461  0.097423  0.101616  0.000252  0.968944  0.0
H  H28  1  0.17619007  0.65446732  0.25264286  1  0.058444  0.000394  0.100663  0.111351  0.000215  0.97746  0.0
H  H29  1  0.32378045  0.34553785  0.75261832  1  0.059429  0.000393  0.100685  0.111312  0.000215  0.977543  0.0
H  H30  1  0.82380282  0.34552431  0.74738268  1  0.059564  0.000393  0.100705  0.111335  0.000215  0.97732  0.0
H  H31  1  0.67618164  0.65448285  0.24738849  1  0.058845  0.000393  0.100717  0.111467  0.000215  0.977344  0.0
H  H32  1  0.14976583  0.74563372  0.18510899  1  0.044334  7.7e-05  0.097183  0.10222  4.4e-05  0.994169  0.0
H  H33  1  0.35025056  0.25438048  0.68508951  1  0.04368  7.7e-05  0.097169  0.102303  4.4e-05  0.993908  0.0
H  H34  1  0.85024996  0.25434136  0.81491269  1  0.043457  7.7e-05  0.09716  0.102251  4.4e-05  0.994013  0.0
H  H35  1  0.64974432  0.74566093  0.31490241  1  0.043732  7.7e-05  0.09715  0.102226  4.4e-05  0.994102  0.0
H  H36  1  0.04861461  0.87825005  0.22212344  1  0.115927  0.000584  0.104144  0.114235  0.000313  1.044104  0.0
H  H37  1  0.45136102  0.12173525  0.72211805  1  0.115784  0.000584  0.104079  0.114101  0.000313  1.043986  0.0
H  H38  1  0.95136432  0.12173471  0.77787345  1  0.115963  0.000584  0.104141  0.114163  0.000313  1.043973  0.0
H  H39  1  0.54863661  0.87827656  0.27787057  1  0.11603  0.000584  0.104162  0.11415  0.000313  1.043896  0.0
H  H40  1  0.97125615  0.96733593  0.32316467  1  0.068652  0.001348  0.113704  0.067406  0.000698  1.00933  0.001
H  H41  1  0.52871452  0.03267035  0.82317159  1  0.069383  0.001349  0.113764  0.067619  0.0007  1.009368  0.001
H  H42  1  0.02873701  0.03268759  0.67682725  1  0.06883  0.001349  0.113784  0.067612  0.0007  1.009266  0.001
H  H43  1  0.47125864  0.96731991  0.17682364  1  0.068776  0.00135  0.113735  0.067516  0.0007  1.009406  0.001
H  H44  1  0.12355702  0.82719569  0.48279290  1  0.109631  0.001335  0.12276  0.095972  0.000526  0.987252  0.001
H  H45  1  0.37645166  0.17288463  0.98279111  1  0.109703  0.001334  0.122854  0.095932  0.000524  0.987292  0.001
H  H46  1  0.87647220  0.17286795  0.51721886  1  0.109529  0.001334  0.122777  0.095892  0.000525  0.987485  0.001
H  H47  1  0.62353156  0.82713743  0.01720853  1  0.109477  0.001335  0.122796  0.09588  0.000526  0.98733  0.001
H  H48  1  0.20371087  0.72824776  0.38876253  1  0.111726  0.000576  0.1097  0.118103  0.000148  1.031245  0.0
H  H49  1  0.29631053  0.27182515  0.88874541  1  0.111703  0.000577  0.109632  0.118141  0.000148  1.031055  0.0
H  H50  1  0.79630881  0.27178953  0.61125695  1  0.111831  0.000577  0.109704  0.118152  0.000148  1.031162  0.0
H  H51  1  0.70370139  0.72823322  0.11124707  1  0.111807  0.000576  0.109686  0.118061  0.000148  1.03125  0.0
H  H52  1  0.81297339  0.42611654  0.18500078  1  0.093756  6.6e-05  0.106285  0.111594  -4e-06  0.996769  0.0
H  H53  1  0.68702477  0.57386488  0.68499135  1  0.094062  6.6e-05  0.106304  0.111619  -4e-06  0.99672  0.0
H  H54  1  0.18704807  0.57381570  0.81500547  1  0.093877  6.6e-05  0.106237  0.111549  -4e-06  0.996624  0.0
H  H55  1  0.31296499  0.42615246  0.31501435  1  0.093723  6.6e-05  0.106319  0.111643  -4e-06  0.996664  0.0
H  H56  1  0.96782056  0.39562676  0.23495000  1  0.058692  0.000354  0.099488  0.099166  0.00019  1.001366  0.0
H  H57  1  0.53218144  0.60436329  0.73493225  1  0.05912  0.000354  0.099572  0.099294  0.00019  1.001334  0.0
H  H58  1  0.03221546  0.60431857  0.76506341  1  0.058535  0.000354  0.099551  0.099277  0.00019  1.001353  0.0
H  H59  1  0.46781711  0.39562906  0.26506904  1  0.059097  0.000354  0.099546  0.099325  0.00019  1.001369  0.0
H  H60  1  0.14199074  0.41416937  0.22374511  1  0.060497  7.3e-05  0.097689  0.106001  3.4e-05  1.015725  0.0
H  H61  1  0.35800693  0.58583437  0.72374298  1  0.060534  7.3e-05  0.097686  0.106045  3.4e-05  1.015621  0.0
H  H62  1  0.85804026  0.58578923  0.77626555  1  0.061279  7.3e-05  0.097566  0.105797  3.4e-05  1.015544  0.0
H  H63  1  0.64198636  0.41417592  0.27626327  1  0.060523  7.3e-05  0.097662  0.10586  3.4e-05  1.015726  0.0
H  H64  1  0.21806446  0.52053006  0.12117894  1  0.068342  2.8e-05  0.09617  0.093093  -7.6e-05  1.015369  0.0
H  H65  1  0.28193895  0.47947889  0.62117578  1  0.068372  2.7e-05  0.096165  0.093126  -7.6e-05  1.015393  0.0
H  H66  1  0.78193347  0.47944129  0.87883448  1  0.068438  2.7e-05  0.096185  0.093145  -7.6e-05  1.01481  0.0
H  H67  1  0.71806945  0.52054294  0.37881835  1  0.068239  2.7e-05  0.096224  0.0932  -7.6e-05  1.015263  0.0
H  H68  1  0.12455347  0.61883935  0.03801429  1  0.061334  -3e-06  0.097254  0.100324  -2e-05  1.057465  0.0
H  H69  1  0.37544813  0.38117383  0.53800310  1  0.061595  -3e-06  0.097187  0.100125  -2e-05  1.057494  0.0
H  H70  1  0.87546712  0.38114191  0.96199748  1  0.061  -3e-06  0.097412  0.100444  -2e-05  1.057493  0.0
H  H71  1  0.62455117  0.61884808  0.46198276  1  0.061284  -3e-06  0.097273  0.100312  -2e-05  1.057611  0.0
H  H72  1  0.91896774  0.72507313  0.95039399  1  0.078495  5e-06  0.099682  0.113383  8e-06  0.993932  0.0
H  H73  1  0.58102754  0.27491489  0.45038896  1  0.078787  6e-06  0.099759  0.113488  8e-06  0.994027  0.0
H  H74  1  0.08104223  0.27485610  0.04962880  1  0.078943  6e-06  0.099692  0.113296  9e-06  0.993868  0.0
H  H75  1  0.41898588  0.72513724  0.54958919  1  0.079062  6e-06  0.099794  0.113418  8e-06  0.993883  0.0
H  H76  1  0.01712686  0.65411638  0.94460695  1  0.090836  -1e-05  0.100686  0.114872  -1.3e-05  1.02412  0.0
H  H77  1  0.48288069  0.34587733  0.44460161  1  0.090756  -1e-05  0.100689  0.114871  -1.3e-05  1.024183  0.0
H  H78  1  0.98287997  0.34584555  0.05541473  1  0.083893  -1e-05  0.100551  0.114572  -1.3e-05  1.024471  0.0
H  H79  1  0.51713735  0.65416464  0.55538315  1  0.091282  -1e-05  0.100559  0.114595  -1.3e-05  1.024256  0.0
H  H80  1  0.21275292  0.02655451  0.07841255  1  0.103621  0.000202  0.105054  0.111479  -0.000157  0.998184  0.0
H  H81  1  0.28721865  0.97342574  0.57839283  1  0.103428  0.000202  0.105028  0.11151  -0.000157  0.998033  0.0
H  H82  1  0.78721752  0.97341477  0.92158434  1  0.102558  0.000202  0.104993  0.111466  -0.000157  0.997939  0.0
H  H83  1  0.71277734  0.02661254  0.42156603  1  0.102123  0.000202  0.105031  0.11145  -0.000157  0.997853  0.0
H  H84  1  0.85993867  0.80251658  0.05717545  1  0.090128  8e-06  0.097198  0.098893  2e-06  1.068561  0.0
H  H85  1  0.64003862  0.19746362  0.55716327  1  0.090502  8e-06  0.097266  0.098813  2e-06  1.068631  0.0
H  H86  1  0.14004143  0.19744404  0.94284458  1  0.090946  8e-06  0.097234  0.098809  2e-06  1.068612  0.0
H  H87  1  0.35996301  0.80256061  0.44283196  1  0.090934  8e-06  0.097196  0.098613  2e-06  1.068668  0.0
H  H88  1  0.80336084  0.94108633  0.13236073  1  0.045915  4e-06  0.094585  0.09016  -5.5e-05  1.019203  0.0
H  H89  1  0.69661205  0.05888124  0.63233745  1  0.046155  4e-06  0.094646  0.090218  -5.5e-05  1.019252  0.0
H  H90  1  0.19662701  0.05888201  0.86765048  1  0.046099  4e-06  0.094612  0.090292  -5.5e-05  1.018934  0.0
H  H91  1  0.30337692  0.94114232  0.36765833  1  0.046152  4e-06  0.094578  0.09024  -5.5e-05  1.019033  0.0
H  H92  1  0.91325433  0.09050541  0.17597969  1  0.033769  7.8e-05  0.098281  0.099144  3.7e-05  0.994818  0.0
H  H93  1  0.58671613  0.90946238  0.67595119  1  0.034685  7.8e-05  0.098298  0.099265  3.7e-05  0.99479  0.0
H  H94  1  0.08672702  0.90947543  0.82402105  1  0.034496  7.8e-05  0.098256  0.099098  3.7e-05  0.994907  0.0
H  H95  1  0.41326464  0.09057060  0.32403192  1  0.033762  7.8e-05  0.098134  0.099091  3.7e-05  0.994538  0.0
H  H96  1  0.08298136  0.09891686  0.14287686  1  0.079707  1.9e-05  0.102533  0.103191  8e-06  0.990907  0.0
H  H97  1  0.41699031  0.90105864  0.64285946  1  0.078774  1.9e-05  0.102595  0.103267  8e-06  0.99052  0.0
H  H98  1  0.91700076  0.90106475  0.85711947  1  0.079219  1.9e-05  0.102678  0.103309  8e-06  0.9906  0.0
H  H99  1  0.58299326  0.09897431  0.35711428  1  0.07852  1.9e-05  0.102646  0.103305  8e-06  0.990541  0.0
H  H100  1  0.57507016  0.15349339  0.07749481  1  0.654821  0.000334  0.287279  0.373038  0.001132  0.981525  0.0
H  H101  1  0.92491518  0.84652458  0.57749302  1  0.65459  0.000336  0.2874  0.373174  0.001134  0.981374  0.0
H  H102  1  0.42490240  0.84649064  0.92248169  1  0.654662  0.000336  0.287357  0.373104  0.001133  0.981416  0.0
H  H103  1  0.07508495  0.15352766  0.42248072  1  0.654749  0.000335  0.287384  0.373165  0.001133  0.981374  0.0
H  H104  1  0.47979615  0.13121100  0.12553495  1  0.606616  0.002456  0.325802  0.39368  0.001431  0.883123  0.002
H  H105  1  0.02016972  0.86879435  0.62554017  1  0.607107  0.002455  0.325792  0.393635  0.00143  0.883236  0.002
H  H106  1  0.52017449  0.86876761  0.87444045  1  0.606849  0.002456  0.325951  0.393958  0.001431  0.882822  0.002
H  H107  1  0.97981750  0.13124012  0.37445120  1  0.60644  0.002453  0.325842  0.39381  0.001428  0.883067  0.002
H  H108  1  0.48408745  0.29655998  0.07081677  1  0.633468  0.002964  0.290456  0.376071  0.001518  0.951765  0.003
H  H109  1  0.01588683  0.70343201  0.57083839  1  0.633367  0.002963  0.290457  0.375963  0.001519  0.951877  0.003
H  H110  1  0.51589695  0.70341617  0.92917681  1  0.633517  0.002963  0.290362  0.375771  0.00152  0.952125  0.003
H  H111  1  0.98411861  0.29658828  0.42916787  1  0.633602  0.002961  0.290361  0.375801  0.00152  0.952089  0.003
H  H112  1  0.54859364  0.38740540  0.11028102  1  0.641596  0.000602  0.282027  0.364943  0.001096  0.991543  0.001
H  H113  1  0.95140022  0.61258561  0.61028837  1  0.64145  0.000601  0.282013  0.364851  0.001096  0.991652  0.001
H  H114  1  0.45139982  0.61257767  0.88973130  1  0.64139  0.000602  0.28206  0.364936  0.001096  0.991576  0.001
H  H115  1  0.04860617  0.38745180  0.38972504  1  0.641242  0.000602  0.282021  0.364862  0.001097  0.991651  0.001
H  H116  1  0.71496600  0.62033442  0.00668673  1  0.642509  0.000329  0.299523  0.346607  -0.000413  0.988252  0.0
H  H117  1  0.78503279  0.37963848  0.50668407  1  0.642449  0.000329  0.299557  0.346637  -0.000413  0.988079  0.0
H  H118  1  0.28504927  0.37963522  0.99334762  1  0.642434  0.000329  0.299552  0.346457  -0.000413  0.98846  0.0
H  H119  1  0.21497946  0.62039421  0.49332218  1  0.64267  0.000329  0.299607  0.346635  -0.000414  0.988236  0.0
H  H120  1  0.22947540  0.76430398  0.92348236  1  0.64254  2.1e-05  0.301304  0.34731  5e-06  0.985328  0.0
H  H121  1  0.27050508  0.23571594  0.42348079  1  0.642355  2.1e-05  0.301153  0.347263  5e-06  0.985311  0.0
H  H122  1  0.77049941  0.23568160  0.07651563  1  0.643068  2.1e-05  0.301263  0.347424  5e-06  0.985148  0.0
H  H123  1  0.72950381  0.76434012  0.57648248  1  0.643018  2.1e-05  0.301202  0.347367  5e-06  0.985101  0.0
C  C124  1  0.36692743  0.65763408  0.05809696  1  0.45265  0.007989  0.046742  0.094276  0.006129  3.958932  0.005
C  C125  1  0.13308853  0.34239504  0.55808961  1  0.453624  0.007985  0.04679  0.094458  0.006126  3.959146  0.005
C  C126  1  0.63309133  0.34237909  0.94191425  1  0.453805  0.007978  0.047026  0.094794  0.006121  3.959117  0.005
C  C127  1  0.86691253  0.65761597  0.44191775  1  0.454011  0.00798  0.047026  0.094722  0.006124  3.959278  0.005
C  C128  1  0.31898478  0.71611285  0.10663464  1  -0.009942  -0.000747  -0.086395  -0.176728  -0.001436  3.939302  -0.001
C  C129  1  0.18102109  0.28389627  0.60661863  1  -0.01043  -0.000746  -0.086414  -0.176896  -0.001436  3.939528  -0.001
C  C130  1  0.68102519  0.28388173  0.89338153  1  -0.010419  -0.000743  -0.086475  -0.176838  -0.001433  3.939743  -0.001
C  C131  1  0.81896905  0.71610317  0.39338211  1  -0.01057  -0.000744  -0.0865  -0.176979  -0.001434  3.939681  -0.001
C  C132  1  0.34035857  0.71529821  0.18177620  1  -0.044587  0.007302  0.012575  0.16652  0.005529  3.952211  0.005
C  C133  1  0.15964068  0.28468974  0.68176215  1  -0.045115  0.0073  0.01257  0.166774  0.005528  3.952138  0.005
C  C134  1  0.65964516  0.28468242  0.81824052  1  -0.031881  0.007286  0.012537  0.166469  0.005523  3.951991  0.005
C  C135  1  0.84034971  0.71530503  0.31824134  1  -0.031204  0.007289  0.012474  0.166336  0.005525  3.95189  0.005
C  C136  1  0.41026259  0.65400297  0.20450202  1  0.018643  -0.000662  -0.083514  -0.18383  -0.00114  3.938142  -0.001
C  C137  1  0.08973511  0.34597458  0.70449749  1  0.018939  -0.000661  -0.083462  -0.183868  -0.001139  3.93754  -0.001
C  C138  1  0.58974033  0.34598390  0.79550919  1  0.006273  -0.000651  -0.083478  -0.183863  -0.001137  3.937997  -0.001
C  C139  1  0.91025736  0.65400538  0.29551207  1  0.005442  -0.000652  -0.083424  -0.183673  -0.001138  3.938191  -0.001
C  C140  1  0.45517121  0.59712325  0.15251113  1  0.437647  0.008784  0.052192  0.108639  0.00681  3.941137  0.006
C  C141  1  0.04483227  0.40286505  0.65251302  1  0.437705  0.008782  0.05218  0.10863  0.006808  3.940897  0.006
C  C142  1  0.54484008  0.40287054  0.84749182  1  0.437438  0.00877  0.052254  0.108688  0.006798  3.941597  0.006
C  C143  1  0.95516140  0.59712735  0.34749378  1  0.437485  0.00877  0.052306  0.108935  0.006799  3.941131  0.006
C  C144  1  0.28857370  0.77706480  0.23530502  1  -0.012266  0.000542  -0.153496  -0.194956  0.000522  3.933823  0.0
C  C145  1  0.21143629  0.22290989  0.73527621  1  -0.012163  0.000541  -0.153645  -0.195282  0.000522  3.93417  0.0
C  C146  1  0.71145148  0.22291331  0.76470839  1  -0.01269  0.000541  -0.15354  -0.195237  0.000521  3.934444  0.0
C  C147  1  0.78854278  0.77707642  0.26469918  1  -0.012798  0.000541  -0.153442  -0.194924  0.00052  3.934383  0.0
C  C148  1  0.18299338  0.73792156  0.23915367  1  -0.008506  0.000546  -0.152233  -0.191832  0.000529  3.912006  0.0
C  C149  1  0.31700135  0.26207734  0.73913134  1  -0.009468  0.000546  -0.152163  -0.191713  0.000529  3.911944  0.0
C  C150  1  0.81698702  0.26206396  0.76087738  1  -0.008687  0.000545  -0.152116  -0.191465  0.000528  3.912228  0.0
C  C151  1  0.68300719  0.73794604  0.26086830  1  -0.008314  0.000545  -0.152209  -0.191809  0.000528  3.912538  0.0
C  C152  1  0.13383887  0.79549736  0.29672971  1  0.001161  0.006921  0.015824  0.170705  0.005271  3.945029  0.004
C  C153  1  0.36615747  0.20451787  0.79671908  1  0.001436  0.006917  0.015849  0.170581  0.005269  3.944787  0.004
C  C154  1  0.86616048  0.20451055  0.70328261  1  0.00088  0.006925  0.015889  0.170471  0.005275  3.944431  0.004
C  C155  1  0.63383857  0.79550640  0.20326954  1  0.000889  0.006917  0.015914  0.170668  0.005268  3.94454  0.004
C  C156  1  0.06769981  0.86454633  0.27919498  1  -0.042544  -0.00023  -0.087286  -0.190442  -0.000709  3.942591  0.0
C  C157  1  0.43229582  0.13546447  0.77919421  1  -0.041201  -0.000229  -0.087397  -0.190272  -0.000708  3.942651  0.0
C  C158  1  0.93230019  0.13545379  0.72080025  1  -0.041993  -0.000231  -0.087395  -0.190278  -0.00071  3.942636  0.0
C  C159  1  0.56770456  0.86456132  0.22079386  1  -0.041665  -0.000229  -0.087431  -0.190304  -0.000708  3.942555  0.0
C  C160  1  0.02485395  0.91520134  0.33571248  1  0.443431  0.00844  0.046564  0.094682  0.00661  3.992954  0.006
C  C161  1  0.47512906  0.08481583  0.83571631  1  0.441985  0.008435  0.046535  0.094192  0.006608  3.993816  0.006
C  C162  1  0.97514174  0.08481205  0.66428220  1  0.443123  0.008437  0.046527  0.09426  0.00661  3.993754  0.006
C  C163  1  0.52485854  0.91520075  0.16427617  1  0.442943  0.00843  0.046688  0.094457  0.006603  3.993679  0.006
C  C164  1  0.10871269  0.83607594  0.42437521  1  0.495504  0.007636  0.05271  0.107995  0.005898  3.937798  0.005
C  C165  1  0.39128115  0.16398118  0.92437379  1  0.495139  0.007628  0.052428  0.107933  0.005891  3.938125  0.005
C  C166  1  0.89129890  0.16396453  0.57562939  1  0.496704  0.007631  0.052785  0.108206  0.005896  3.938038  0.005
C  C167  1  0.60869121  0.83603709  0.07561758  1  0.495761  0.007627  0.05267  0.108045  0.005893  3.93793  0.005
C  C168  1  0.15368107  0.78169079  0.37141562  1  -0.089809  -0.000333  -0.081054  -0.17785  -0.001115  3.931357  0.0
C  C169  1  0.34631650  0.21834833  0.87140686  1  -0.089914  -0.000331  -0.080897  -0.177825  -0.001113  3.931509  0.0
C  C170  1  0.84632114  0.21832487  0.62859284  1  -0.090363  -0.000332  -0.081058  -0.177891  -0.001115  3.931461  0.0
C  C171  1  0.65367649  0.78168064  0.12858175  1  -0.089954  -0.00033  -0.081034  -0.177867  -0.001112  3.931576  0.0
C  C172  1  0.68824114  0.49935969  0.09513881  1  1.504318  0.007326  0.210748  0.57707  0.006763  4.186272  0.006
C  C173  1  0.81176175  0.50060499  0.59513619  1  1.504932  0.007323  0.210489  0.576992  0.006766  4.187519  0.006
C  C174  1  0.31177965  0.50058734  0.90487461  1  1.504298  0.007325  0.210615  0.576953  0.006769  4.187385  0.006
C  C175  1  0.18824260  0.49941843  0.40487833  1  1.504229  0.007314  0.210549  0.576974  0.006758  4.187688  0.006
C  C176  1  0.79160936  0.53001424  0.09659209  1  -0.058718  0.001372  -0.044204  -0.190246  0.000826  4.035422  0.001
C  C177  1  0.70838554  0.46995515  0.59659503  1  -0.058325  0.001374  -0.044189  -0.190182  0.000828  4.034978  0.001
C  C178  1  0.20840753  0.46991414  0.90342408  1  -0.059105  0.001374  -0.044164  -0.189805  0.000828  4.034608  0.001
C  C179  1  0.29160902  0.53006836  0.40341893  1  -0.058697  0.001371  -0.04445  -0.190354  0.000826  4.035079  0.001
C  C180  1  0.83568613  0.60359843  0.04481409  1  0.503048  0.000705  0.077937  0.230369  0.000477  4.063242  0.0
C  C181  1  0.66430677  0.39638101  0.54480653  1  0.502855  0.000704  0.07787  0.230087  0.000476  4.063218  0.0
C  C182  1  0.16433146  0.39635173  0.95521200  1  0.503391  0.000705  0.077988  0.23041  0.000477  4.062959  0.0
C  C183  1  0.33569560  0.60365099  0.45518705  1  0.503185  0.000704  0.078056  0.230236  0.000476  4.063462  0.0
C  C184  1  0.93338031  0.62379239  0.04125263  1  0.009212  -0.000398  -0.024726  -0.049875  -0.00043  3.917093  0.0
C  C185  1  0.56661326  0.37620032  0.54124278  1  0.008813  -0.000397  -0.024658  -0.049595  -0.000429  3.917272  0.0
C  C186  1  0.06662327  0.37616491  0.95877015  1  0.007683  -0.000397  -0.024776  -0.049904  -0.000429  3.917502  0.0
C  C187  1  0.43339074  0.62383400  0.45874419  1  0.008809  -0.000397  -0.024765  -0.049735  -0.00043  3.91741  0.0
C  C188  1  0.98990610  0.56770184  0.08870324  1  0.008271  0.000864  -0.006115  0.039659  0.000663  3.965819  0.001
C  C189  1  0.51008830  0.43228945  0.58869117  1  0.007941  0.000864  -0.005998  0.039873  0.000663  3.965569  0.001
C  C190  1  0.01012430  0.43225054  0.91131293  1  0.007918  0.000864  -0.006136  0.039834  0.000663  3.966169  0.001
C  C191  1  0.48991028  0.56771768  0.41130021  1  0.007976  0.000864  -0.00596  0.039791  0.000663  3.965565  0.001
C  C192  1  0.94599967  0.49865424  0.14372507  1  -0.055968  2.9e-05  -0.019479  0.042863  -4.2e-05  4.042469  0.0
C  C193  1  0.55400049  0.50133782  0.64371251  1  -0.05676  2.9e-05  -0.019614  0.042524  -4.1e-05  4.041842  0.0
C  C194  1  0.05401837  0.50127881  0.85629110  1  -0.056078  2.9e-05  -0.019573  0.042645  -4.1e-05  4.042051  0.0
C  C195  1  0.44599284  0.49868025  0.35628272  1  -0.055725  2.9e-05  -0.019762  0.042531  -4.1e-05  4.041834  0.0
C  C196  1  0.84711222  0.48167216  0.14587757  1  0.030223  0.002609  -0.078713  -0.107326  0.002047  3.986398  0.002
C  C197  1  0.65288332  0.51831602  0.64587172  1  0.029967  0.002607  -0.078651  -0.107127  0.002046  3.986022  0.002
C  C198  1  0.15292233  0.51825061  0.85413915  1  0.030509  0.002609  -0.078763  -0.107532  0.002047  3.985477  0.002
C  C199  1  0.34710627  0.48170676  0.35413233  1  0.030562  0.002607  -0.078541  -0.107069  0.002046  3.98525  0.002
C  C200  1  0.00270514  0.44530403  0.19244330  1  -0.095586  0.000803  -0.089975  -0.125221  0.000612  3.995472  0.0
C  C201  1  0.49729671  0.55468453  0.69243266  1  -0.094765  0.000803  -0.090152  -0.125383  0.000612  3.99552  0.0
C  C202  1  0.99733547  0.55463814  0.80756460  1  -0.094937  0.000802  -0.0901  -0.125389  0.000612  3.994964  0.0
C  C203  1  0.50269336  0.44531413  0.30756478  1  -0.095943  0.000803  -0.090088  -0.125551  0.000612  3.995355  0.0
C  C204  1  0.09918626  0.45462789  0.18568322  1  -0.018149  -7.6e-05  -0.101835  -0.105345  -0.000109  4.034083  0.0
C  C205  1  0.40081801  0.54538408  0.68567517  1  -0.018373  -7.6e-05  -0.10174  -0.105342  -0.000109  4.033744  0.0
C  C206  1  0.90084464  0.54533694  0.81433405  1  -0.017638  -7.6e-05  -0.101749  -0.105296  -0.000109  4.033566  0.0
C  C207  1  0.59917705  0.45463009  0.31432612  1  -0.017841  -7.6e-05  -0.101714  -0.104995  -0.000109  4.033564  0.0
C  C208  1  0.14214486  0.51708436  0.12867170  1  -0.069245  0.000834  -0.092003  -0.065579  0.000641  4.015137  0.0
C  C209  1  0.35785818  0.48292993  0.62865581  1  -0.06909  0.000833  -0.09206  -0.065746  0.000641  4.015173  0.0
C  C210  1  0.85787575  0.48288989  0.87134943  1  -0.068506  0.000833  -0.092157  -0.065675  0.00064  4.014324  0.0
C  C211  1  0.64214387  0.51708417  0.37133887  1  -0.068935  0.000833  -0.092074  -0.065836  0.00064  4.015158  0.0
C  C212  1  0.08956162  0.57289084  0.08210820  1  -0.026596  -0.000252  -0.09823  -0.143397  -0.000291  3.972531  0.0
C  C213  1  0.41044107  0.42711552  0.58210561  1  -0.026944  -0.000252  -0.098159  -0.143146  -0.000291  3.972769  0.0
C  C214  1  0.91046036  0.42706862  0.91790577  1  -0.027108  -0.000252  -0.098251  -0.143457  -0.000291  3.972053  0.0
C  C215  1  0.58956054  0.57289392  0.41789513  1  -0.026693  -0.000252  -0.09821  -0.143282  -0.000291  3.972951  0.0
C  C216  1  0.97653566  0.69780099  0.98298081  1  -0.037013  0.000112  -0.159838  -0.208013  7.4e-05  3.940492  0.0
C  C217  1  0.52345601  0.30218663  0.48297650  1  -0.036847  0.000112  -0.159879  -0.208297  7.4e-05  3.941143  0.0
C  C218  1  0.02346480  0.30216022  0.01703426  1  -0.030116  0.000112  -0.159539  -0.207594  7.4e-05  3.94011  0.0
C  C219  1  0.47655538  0.69784451  0.51700551  1  -0.038293  0.000112  -0.159714  -0.20772  7.4e-05  3.940263  0.0
C  C220  1  0.03999050  0.79045654  0.01040075  1  0.006253  -0.000359  -0.023339  -0.048676  -0.000401  3.916874  0.0
C  C221  1  0.45999715  0.20954313  0.51039806  1  0.004643  -0.00036  -0.0233  -0.04843  -0.000402  3.916554  0.0
C  C222  1  0.95998703  0.20950644  0.98961377  1  0.004921  -0.000359  -0.023329  -0.048653  -0.000402  3.916311  0.0
C  C223  1  0.54002201  0.79048871  0.48958009  1  0.006092  -0.000359  -0.023277  -0.048471  -0.000401  3.916876  0.0
C  C224  1  0.13267997  0.80531205  0.98521843  1  0.540112  0.001291  0.082626  0.232187  0.000988  4.063304  0.001
C  C225  1  0.36730563  0.19468910  0.48522060  1  0.54062  0.001292  0.082573  0.232134  0.000989  4.063246  0.001
C  C226  1  0.86729634  0.19466728  0.01478231  1  0.541584  0.00129  0.082624  0.232251  0.000988  4.064192  0.001
C  C227  1  0.63271238  0.80533809  0.51474433  1  0.542179  0.00129  0.082571  0.23209  0.000988  4.064258  0.001
C  C228  1  0.19635033  0.89016801  0.01153441  1  -0.002452  0.001504  -0.042692  -0.190555  0.000968  4.056025  0.001
C  C229  1  0.30363530  0.10982545  0.51152303  1  -0.002642  0.001502  -0.042855  -0.190564  0.000966  4.056324  0.001
C  C230  1  0.80362723  0.10980976  0.98846854  1  -0.002449  0.001504  -0.042753  -0.190374  0.000968  4.05647  0.001
C  C231  1  0.69638401  0.89020795  0.48843749  1  -0.001341  0.001503  -0.042401  -0.190167  0.000968  4.056152  0.001
C  C232  1  0.16395328  0.96183752  0.05953194  1  -0.069104  0.002497  -0.081338  -0.116372  0.001769  3.981388  0.001
C  C233  1  0.33602588  0.03815147  0.55952322  1  -0.06911  0.002499  -0.081215  -0.11639  0.00177  3.981527  0.001
C  C234  1  0.83602667  0.03814334  0.94047100  1  -0.068777  0.002498  -0.081162  -0.116325  0.00177  3.981344  0.001
C  C235  1  0.66397720  0.96188052  0.44044501  1  -0.069039  0.002497  -0.081288  -0.116212  0.001769  3.981125  0.001
C  C236  1  0.06909860  0.95449717  0.08169680  1  0.015749  -0.000145  -0.018378  0.04963  -0.000179  4.035239  0.0
C  C237  1  0.43087548  0.04547368  0.58168553  1  0.015655  -0.000145  -0.018525  0.04949  -0.000179  4.035271  0.0
C  C238  1  0.93088220  0.04546345  0.91830174  1  0.015586  -0.000145  -0.018456  0.049432  -0.000179  4.034966  0.0
C  C239  1  0.56912125  0.95455059  0.41828050  1  0.017878  -0.000145  -0.018354  0.049252  -0.000179  4.035279  0.0
C  C240  1  0.00627289  0.86738764  0.05693478  1  -0.055039  0.000767  -0.0037  0.046869  0.000598  3.964527  0.0
C  C241  1  0.49370958  0.13258423  0.55691878  1  -0.05462  0.000768  -0.003792  0.046745  0.000599  3.964  0.0
C  C242  1  0.99371321  0.13256982  0.94308029  1  -0.054436  0.000767  -0.003929  0.046637  0.000598  3.964207  0.0
C  C243  1  0.50630019  0.86742280  0.44305276  1  -0.055402  0.000767  -0.003905  0.046788  0.000598  3.964409  0.0
C  C244  1  0.90993542  0.86495846  0.07757688  1  -0.012191  -0.00025  -0.09811  -0.143328  -0.000278  3.969591  0.0
C  C245  1  0.59005103  0.13501283  0.57755973  1  -0.011916  -0.00025  -0.098148  -0.1433  -0.000278  3.970064  0.0
C  C246  1  0.09004811  0.13500136  0.92244094  1  -0.012224  -0.00025  -0.098145  -0.143286  -0.000278  3.970062  0.0
C  C247  1  0.40995762  0.86500433  0.42242834  1  -0.012211  -0.00025  -0.09798  -0.142887  -0.000278  3.969653  0.0
C  C248  1  0.87811841  0.94336727  0.11952091  1  -0.087573  0.000686  -0.095329  -0.076153  0.000507  4.037006  0.0
C  C249  1  0.62186091  0.05660585  0.61950041  1  -0.087438  0.000687  -0.095307  -0.076047  0.000508  4.037935  0.0
C  C250  1  0.12186704  0.05659797  0.88049195  1  -0.087625  0.000686  -0.095267  -0.076212  0.000508  4.0373  0.0
C  C251  1  0.37814224  0.94342692  0.38049868  1  -0.087358  0.000686  -0.095384  -0.076417  0.000507  4.037724  0.0
C  C252  1  0.94034354  0.02804634  0.14450333  1  -0.056859  -0.000202  -0.104749  -0.109126  -0.000243  4.056917  0.0
C  C253  1  0.55963833  0.97193032  0.64448150  1  -0.058025  -0.000202  -0.104936  -0.1095  -0.000243  4.057602  0.0
C  C254  1  0.05964645  0.97192976  0.85549961  1  -0.058144  -0.000202  -0.104875  -0.109218  -0.000243  4.057535  0.0
C  C255  1  0.44035186  0.02809868  0.35549940  1  -0.057666  -0.000202  -0.104661  -0.109021  -0.000243  4.056964  0.0
C  C256  1  0.03410638  0.03302957  0.12580248  1  -0.079837  0.000749  -0.087588  -0.122359  0.000575  3.998549  0.0
C  C257  1  0.46587976  0.96693201  0.62577352  1  -0.079256  0.000749  -0.087419  -0.122138  0.000576  3.998406  0.0
C  C258  1  0.96588653  0.96693327  0.87420653  1  -0.079185  0.000749  -0.087585  -0.122219  0.000576  3.998539  0.0
C  C259  1  0.53411445  0.03310240  0.37419857  1  -0.080923  0.000749  -0.087681  -0.12235  0.000575  3.998425  0.0
C  C260  1  0.29653212  0.90168616  0.98833130  1  1.497289  0.008285  0.217025  0.589634  0.0084  4.174978  0.007
C  C261  1  0.20345872  0.09832657  0.48832156  1  1.497047  0.008283  0.216825  0.589146  0.008399  4.175586  0.007
C  C262  1  0.70343826  0.09829712  0.01165788  1  1.497175  0.008283  0.217077  0.589609  0.008399  4.175572  0.007
C  C263  1  0.79656444  0.90173947  0.51163621  1  1.495606  0.00828  0.216659  0.589559  0.008396  4.175541  0.007
N  N264  1  0.43417830  0.59844082  0.08025745  1  -1.274554  0.048259  -0.329926  -0.266826  0.030947  3.531839  0.012
N  N265  1  0.06583517  0.40158258  0.58026124  1  -1.274789  0.048255  -0.32995  -0.266864  0.030948  3.532313  0.012
N  N266  1  0.56585097  0.40156525  0.91974109  1  -1.275012  0.048255  -0.3302  -0.267104  0.030945  3.532512  0.012
N  N267  1  0.93415766  0.59844484  0.41974501  1  -1.275289  0.048246  -0.330171  -0.267086  0.030942  3.532521  0.012
N  N268  1  0.04478903  0.90248938  0.40741298  1  -1.250177  0.050173  -0.328946  -0.27131  0.033345  3.527588  0.016
N  N269  1  0.45519527  0.09755172  0.90741097  1  -1.250145  0.050175  -0.328786  -0.270998  0.033347  3.527466  0.016
N  N270  1  0.95522121  0.09755888  0.59258887  1  -1.251052  0.050179  -0.329086  -0.271227  0.033343  3.527797  0.016
N  N271  1  0.54477529  0.90244790  0.09258591  1  -1.250596  0.050193  -0.329062  -0.271108  0.033343  3.527837  0.016
O  O272  1  0.63919419  0.54652372  0.04711401  1  -1.209122  0.055506  -0.316773  -0.579777  0.040501  2.339952  0.025
O  O273  1  0.86081172  0.45345324  0.54710430  1  -1.209524  0.055511  -0.316654  -0.57964  0.040506  2.340265  0.025
O  O274  1  0.36082130  0.45342647  0.95291153  1  -1.209569  0.055507  -0.316749  -0.579577  0.040505  2.340266  0.025
O  O275  1  0.13921076  0.54656223  0.45291793  1  -1.209665  0.055494  -0.316735  -0.579597  0.04049  2.34049  0.025
O  O276  1  0.50198237  0.14612277  0.07562137  1  -1.276338  0.05472  -0.545912  -0.743813  0.039697  2.083884  0.025
O  O277  1  0.99799787  0.85387816  0.57562506  1  -1.27667  0.05472  -0.546058  -0.743874  0.039696  2.083895  0.025
O  O278  1  0.49798711  0.85385118  0.92435734  1  -1.276559  0.054721  -0.546097  -0.744112  0.039688  2.08333  0.025
O  O279  1  0.00200513  0.14617484  0.42436081  1  -1.27625  0.054709  -0.546035  -0.744019  0.039678  2.083463  0.025
O  O280  1  0.65223551  0.42908413  0.13766240  1  -1.181495  0.005784  -0.313964  -0.537865  0.003537  2.172226  0.004
O  O281  1  0.84774945  0.57087937  0.63765941  1  -1.181376  0.005784  -0.313883  -0.537952  0.003538  2.173042  0.004
O  O282  1  0.34777312  0.57085289  0.86235047  1  -1.180652  0.005784  -0.313731  -0.537853  0.003538  2.173136  0.004
O  O283  1  0.15222578  0.42916144  0.36234078  1  -1.180778  0.005778  -0.313825  -0.537975  0.003533  2.172922  0.004
O  O284  1  0.48644733  0.37071444  0.08336873  1  -1.300105  0.061544  -0.582374  -0.765596  0.044546  2.077022  0.029
O  O285  1  0.01355228  0.62927481  0.58337977  1  -1.299865  0.061539  -0.582379  -0.765415  0.044538  2.076984  0.029
O  O286  1  0.51355549  0.62925686  0.91663642  1  -1.299875  0.061523  -0.582345  -0.765277  0.044539  2.077305  0.029
O  O287  1  0.98645796  0.37075167  0.41663585  1  -1.299833  0.061533  -0.582383  -0.765329  0.044544  2.077249  0.029
O  O288  1  0.78154419  0.65373086  0.99763725  1  -1.177673  0.001384  -0.36162  -0.461025  0.000751  2.323493  0.001
O  O289  1  0.71845268  0.34624173  0.49763915  1  -1.177501  0.001385  -0.361551  -0.460907  0.000752  2.323321  0.001
O  O290  1  0.21846119  0.34624509  0.00239931  1  -1.178195  0.001385  -0.361494  -0.46081  0.000752  2.323906  0.001
O  O291  1  0.28156121  0.65380805  0.50235883  1  -1.177917  0.001384  -0.361672  -0.461035  0.000752  2.323508  0.001
O  O292  1  0.35471789  0.96478357  0.02298813  1  -1.201581  0.061299  -0.317197  -0.559994  0.041938  2.323189  0.027
O  O293  1  0.14527337  0.03524936  0.52299770  1  -1.201687  0.061299  -0.317103  -0.559765  0.041939  2.323498  0.027
O  O294  1  0.64523804  0.03522396  0.97699443  1  -1.202233  0.061286  -0.317181  -0.560056  0.041938  2.323888  0.027
O  O295  1  0.85474956  0.96483613  0.47697935  1  -1.201842  0.061279  -0.316843  -0.55986  0.04194  2.324163  0.027
O  O296  1  0.32028080  0.84460952  0.93421033  1  -1.168717  0.005557  -0.310953  -0.548609  0.003351  2.213651  0.004
O  O297  1  0.17969781  0.15540093  0.43420394  1  -1.168683  0.005559  -0.310762  -0.54838  0.003351  2.213873  0.004
O  O298  1  0.67968779  0.15537689  0.06577443  1  -1.168242  0.005558  -0.31097  -0.548683  0.003351  2.213593  0.004
O  O299  1  0.82031660  0.84465429  0.56575603  1  -1.16744  0.005553  -0.310996  -0.548994  0.003349  2.213448  0.004
O  O300  1  0.16284897  0.73664075  0.93628583  1  -1.166562  0.000525  -0.351342  -0.444441  0.00031  2.355304  0.0
O  O301  1  0.33713394  0.26337119  0.43629027  1  -1.165937  0.000525  -0.351219  -0.444426  0.00031  2.354978  0.0
O  O302  1  0.83712684  0.26332614  0.06371381  1  -1.167348  0.000525  -0.35125  -0.444406  0.00031  2.35547  0.0
O  O303  1  0.66288245  0.73667546  0.56367906  1  -1.167853  0.000525  -0.351346  -0.444488  0.000309  2.355436  0.0
