# generated using pymatgen
data_AgH3C3N2
_symmetry_space_group_name_H-M   'P 1'
_cell_length_a   6.03591701
_cell_length_b   6.50407596
_cell_length_c   20.52341491
_cell_angle_alpha   90.00673707
_cell_angle_beta   90.00040601
_cell_angle_gamma   89.99946143
_symmetry_Int_Tables_number   1
_chemical_formula_structural   AgH3C3N2
_chemical_formula_sum   'Ag8 H24 C24 N16'
_cell_volume   805.70950383
_cell_formula_units_Z   8
loop_
 _symmetry_equiv_pos_site_id
 _symmetry_equiv_pos_as_xyz
  1  'x, y, z'
loop_
 _atom_site_type_symbol
 _atom_site_label
 _atom_site_symmetry_multiplicity
 _atom_site_fract_x
 _atom_site_fract_y
 _atom_site_fract_z
 _atom_site_occupancy
 _atom_site_hle17_bader_spin_density
 _atom_site_hle17_ddec_charge
 _atom_site_hle17_ddec_spin_density
 _atom_site_hle17_ddec_sum_bond_order
 _atom_site_hle17_magmom
 _atom_site_hse06_10hf_bader_spin_density
 _atom_site_hse06_10hf_ddec_charge
 _atom_site_hse06_10hf_ddec_spin_density
 _atom_site_hse06_10hf_ddec_sum_bond_order
 _atom_site_hse06_10hf_magmom
 _atom_site_hse06_bader_spin_density
 _atom_site_hse06_ddec_charge
 _atom_site_hse06_ddec_spin_density
 _atom_site_hse06_ddec_sum_bond_order
 _atom_site_hse06_magmom
 _atom_site_pbe_bader_spin_density
 _atom_site_pbe_cm5_charge
 _atom_site_pbe_ddec_charge
 _atom_site_pbe_ddec_spin_density
 _atom_site_pbe_ddec_sum_bond_order
 _atom_site_pbe_magmom
Ag  Ag0  1  0.22662158  0.32602158  0.00288998  1  0  0.360643  0  1.751226  0  0  0.219831  0  2.252453  0  0  0.250049  0  2.197539  0  0  0.434332  0.197586  0  2.293683  0
Ag  Ag1  1  0.27334618  0.67395649  0.50288646  1  0  0.360714  0  1.75095  0  0  0.219813  0  2.252209  0  0  0.250038  0  2.19729  0  0  0.434271  0.197562  0  2.293449  0
Ag  Ag2  1  0.77334868  0.82602698  0.49711601  1  0  0.360711  0  1.751  0  0  0.219826  0  2.252274  0  0  0.250052  0  2.197352  0  0  0.4343  0.197579  0  2.293509  0
Ag  Ag3  1  0.72663124  0.17399076  0.99710801  1  0  0.360608  0  1.751144  0  0  0.219767  0  2.25237  0  0  0.249988  0  2.197458  0  0  0.434283  0.197523  0  2.293599  0
Ag  Ag4  1  0.77334067  0.67399247  0.99711001  1  0  0.360626  0  1.750982  0  0  0.219764  0  2.252232  0  0  0.24999  0  2.197309  0  0  0.434249  0.197515  0  2.293465  0
Ag  Ag5  1  0.72667570  0.32601143  0.49711255  1  0  0.360607  0  1.750901  0  0  0.219721  0  2.252168  0  0  0.249949  0  2.197247  0  0  0.434243  0.197471  0  2.293402  0
Ag  Ag6  1  0.22668315  0.17394555  0.50288495  1  0  0.360721  0  1.75102  0  0  0.219878  0  2.252284  0  0  0.250101  0  2.197362  0  0  0.43431  0.197631  0  2.29352  0
Ag  Ag7  1  0.27335088  0.82601714  0.00289246  1  0  0.360632  0  1.751016  0  0  0.219765  0  2.252272  0  0  0.249993  0  2.197351  0  0  0.434239  0.197515  0  2.293506  0
H  H8  1  0.16306393  0.48175236  0.84455343  1  0  0.089852  0  0.995938  0  0  0.101166  0  1.060187  0  0  0.102117  0  1.060588  0  0  0.111089  0.100483  0  1.059875  0
H  H9  1  0.33687675  0.51813385  0.34454692  1  0  0.089945  0  0.995874  0  0  0.101042  0  1.060375  0  0  0.10201  0  1.060733  0  0  0.111015  0.100361  0  1.060063  0
H  H10  1  0.83687420  0.98184576  0.65545540  1  0  0.089872  0  0.995991  0  0  0.101003  0  1.060442  0  0  0.101953  0  1.060852  0  0  0.110987  0.100319  0  1.06013  0
H  H11  1  0.66307316  0.01825769  0.15543984  1  0  0.089812  0  0.996143  0  0  0.10108  0  1.060428  0  0  0.102031  0  1.060827  0  0  0.111064  0.100398  0  1.060118  0
H  H12  1  0.83689832  0.51825400  0.15545094  1  0  0.089783  0  0.996261  0  0  0.101  0  1.060586  0  0  0.101951  0  1.06099  0  0  0.110989  0.100316  0  1.060275  0
H  H13  1  0.66316005  0.48184945  0.65545258  1  0  0.089688  0  0.996182  0  0  0.10086  0  1.060593  0  0  0.101824  0  1.060959  0  0  0.110956  0.10018  0  1.060278  0
H  H14  1  0.16315100  0.01813293  0.34454166  1  0  0.089942  0  0.995958  0  0  0.100974  0  1.0605  0  0  0.101933  0  1.060882  0  0  0.110997  0.100292  0  1.060186  0
H  H15  1  0.33689405  0.98175328  0.84455722  1  0  0.089843  0  0.996296  0  0  0.101142  0  1.060518  0  0  0.102095  0  1.060914  0  0  0.11106  0.100461  0  1.060206  0
H  H16  1  0.48601145  0.37121010  0.75585365  1  0  0.114975  0  0.983335  0  0  0.129028  0  1.038459  0  0  0.130921  0  1.039583  0  0  0.103183  0.12769  0  1.037801  0
H  H17  1  0.01397708  0.62871660  0.25584445  1  0  0.115005  0  0.983336  0  0  0.129043  0  1.038498  0  0  0.13094  0  1.03962  0  0  0.103194  0.127699  0  1.037837  0
H  H18  1  0.51397970  0.87126975  0.74415411  1  0  0.114974  0  0.983418  0  0  0.129014  0  1.038561  0  0  0.130912  0  1.039687  0  0  0.103182  0.127668  0  1.037897  0
H  H19  1  0.98598773  0.12881166  0.24414387  1  0  0.115049  0  0.983402  0  0  0.129079  0  1.038545  0  0  0.130975  0  1.039664  0  0  0.10317  0.127736  0  1.037883  0
H  H20  1  0.51397729  0.62881625  0.24415316  1  0  0.115106  0  0.983438  0  0  0.129146  0  1.038543  0  0  0.13104  0  1.039662  0  0  0.103204  0.127808  0  1.037887  0
H  H21  1  0.98606137  0.37126363  0.74415505  1  0  0.114935  0  0.983544  0  0  0.128972  0  1.038698  0  0  0.130871  0  1.039819  0  0  0.103153  0.127625  0  1.038034  0
H  H22  1  0.48604716  0.12871970  0.25584198  1  0  0.114992  0  0.98352  0  0  0.129042  0  1.03865  0  0  0.130938  0  1.039774  0  0  0.103191  0.1277  0  1.037992  0
H  H23  1  0.01399771  0.87119778  0.75585368  1  0  0.115012  0  0.983602  0  0  0.12905  0  1.038715  0  0  0.130946  0  1.039834  0  0  0.103165  0.127711  0  1.038057  0
H  H24  1  0.80342605  0.17966394  0.83192271  1  0  0.091124  0  0.981219  0  0  0.103692  0  1.043665  0  0  0.104928  0  1.043612  0  0  0.111098  0.102819  0  1.043684  0
H  H25  1  0.69658655  0.82034113  0.33191574  1  0  0.091134  0  0.981123  0  0  0.103703  0  1.043582  0  0  0.104942  0  1.043524  0  0  0.111068  0.102826  0  1.04361  0
H  H26  1  0.19658897  0.67965618  0.66808554  1  0  0.091194  0  0.981179  0  0  0.103738  0  1.043639  0  0  0.104974  0  1.043585  0  0  0.111082  0.102865  0  1.043659  0
H  H27  1  0.30340244  0.32035916  0.16807745  1  0  0.091135  0  0.981355  0  0  0.103703  0  1.043796  0  0  0.104931  0  1.043765  0  0  0.111094  0.10283  0  1.043813  0
H  H28  1  0.19656601  0.82037317  0.16808653  1  0  0.091048  0  0.981272  0  0  0.103586  0  1.043749  0  0  0.104822  0  1.043696  0  0  0.111082  0.102715  0  1.043765  0
H  H29  1  0.30344362  0.17962833  0.66808181  1  0  0.091054  0  0.9813  0  0  0.103625  0  1.043733  0  0  0.104862  0  1.043678  0  0  0.111024  0.102744  0  1.043774  0
H  H30  1  0.80341967  0.32035479  0.33191640  1  0  0.091165  0  0.981192  0  0  0.103679  0  1.043676  0  0  0.104912  0  1.043628  0  0  0.111093  0.102799  0  1.043713  0
H  H31  1  0.69657969  0.67966258  0.83191474  1  0  0.091147  0  0.981292  0  0  0.103699  0  1.043729  0  0  0.104933  0  1.043677  0  0  0.11109  0.10282  0  1.043765  0
C  C32  1  0.31908578  0.40282238  0.85230246  1  0  0.034848  0  3.758278  0  0  -0.004944  0  4.013348  0  0  0.003048  0  4.032473  0  0  -6.1e-05  -0.010048  0  3.999891  0
C  C33  1  0.18087428  0.59711854  0.35229384  1  0  0.034524  0  3.758086  0  0  -0.005156  0  4.013161  0  0  0.002836  0  4.032303  0  0  -0.000153  -0.010258  0  3.999698  0
C  C34  1  0.68087271  0.90287014  0.64770358  1  0  0.034679  0  3.757535  0  0  -0.00499  0  4.012625  0  0  0.002996  0  4.031756  0  0  -9.9e-05  -0.010092  0  3.999166  0
C  C35  1  0.81907184  0.09717859  0.14769277  1  0  0.035076  0  3.757941  0  0  -0.004675  0  4.012972  0  0  0.003321  0  4.032092  0  0  3.4e-05  -0.009783  0  3.999516  0
C  C36  1  0.68089303  0.59719321  0.14770434  1  0  0.034947  0  3.757889  0  0  -0.004769  0  4.012943  0  0  0.00322  0  4.032067  0  0  0.000103  -0.009872  0  3.999485  0
C  C37  1  0.81915423  0.40286322  0.64770517  1  0  0.034886  0  3.757738  0  0  -0.004813  0  4.012824  0  0  0.003178  0  4.031969  0  0  -1e-05  -0.009915  0  3.999358  0
C  C38  1  0.31913592  0.09711624  0.35229299  1  0  0.034543  0  3.75758  0  0  -0.005034  0  4.01268  0  0  0.002953  0  4.03182  0  0  -0.000149  -0.010133  0  3.99922  0
C  C39  1  0.18090863  0.90284007  0.85230331  1  0  0.034942  0  3.758055  0  0  -0.004847  0  4.013091  0  0  0.003148  0  4.032214  0  0  1e-05  -0.009952  0  3.999633  0
C  C40  1  0.48399574  0.34528432  0.80795576  1  0  -0.226757  0  3.796166  0  0  -0.234373  0  4.045927  0  0  -0.243459  0  4.066093  0  0  -0.1284  -0.228476  0  4.03236  0
C  C41  1  0.01598825  0.65465687  0.30794673  1  0  -0.226775  0  3.796121  0  0  -0.234349  0  4.045778  0  0  -0.24344  0  4.065948  0  0  -0.128537  -0.228442  0  4.032203  0
C  C42  1  0.51598615  0.84532960  0.69205628  1  0  -0.22676  0  3.795604  0  0  -0.23436  0  4.045297  0  0  -0.243454  0  4.065465  0  0  -0.128528  -0.228447  0  4.03172  0
C  C43  1  0.98396263  0.15472195  0.19204949  1  0  -0.226797  0  3.795065  0  0  -0.234398  0  4.044809  0  0  -0.243485  0  4.064971  0  0  -0.12832  -0.22849  0  4.031235  0
C  C44  1  0.51598804  0.65474050  0.19205738  1  0  -0.226888  0  3.795823  0  0  -0.2345  0  4.045554  0  0  -0.243586  0  4.065715  0  0  -0.128382  -0.228603  0  4.031989  0
C  C45  1  0.98404027  0.34533258  0.69205472  1  0  -0.226677  0  3.795591  0  0  -0.234263  0  4.045273  0  0  -0.243357  0  4.065442  0  0  -0.128434  -0.228349  0  4.031695  0
C  C46  1  0.48403243  0.15465678  0.30793933  1  0  -0.226729  0  3.795647  0  0  -0.234326  0  4.04531  0  0  -0.243415  0  4.06547  0  0  -0.128494  -0.228424  0  4.031744  0
C  C47  1  0.01600789  0.84529210  0.80794465  1  0  -0.226758  0  3.795487  0  0  -0.234354  0  4.04521  0  0  -0.243444  0  4.065372  0  0  -0.128375  -0.228455  0  4.031645  0
C  C48  1  0.64666605  0.24876407  0.84574160  1  0  0.026995  0  3.760947  0  0  -0.011808  0  4.015645  0  0  -0.003916  0  4.03404  0  0  -0.001442  -0.016871  0  4.002709  0
C  C49  1  0.85331952  0.75120506  0.34574089  1  0  0.027118  0  3.760817  0  0  -0.011667  0  4.01545  0  0  -0.003775  0  4.033848  0  0  -0.001287  -0.016733  0  4.002515  0
C  C50  1  0.35330464  0.74877707  0.65426189  1  0  0.026991  0  3.760549  0  0  -0.011772  0  4.015203  0  0  -0.003879  0  4.033598  0  0  -0.001345  -0.016837  0  4.002271  0
C  C51  1  0.14667072  0.25125884  0.15425462  1  0  0.02692  0  3.760094  0  0  -0.011857  0  4.014776  0  0  -0.003969  0  4.033162  0  0  -0.001486  -0.016922  0  4.001844  0
C  C52  1  0.35330447  0.75126382  0.15426667  1  0  0.027126  0  3.760652  0  0  -0.011636  0  4.015341  0  0  -0.003742  0  4.033732  0  0  -0.001466  -0.016699  0  4.002409  0
C  C53  1  0.14672888  0.24876748  0.65425813  1  0  0.02703  0  3.760317  0  0  -0.011731  0  4.014965  0  0  -0.003837  0  4.033359  0  0  -0.001259  -0.016799  0  4.002031  0
C  C54  1  0.64671062  0.25120930  0.34573663  1  0  0.026942  0  3.760596  0  0  -0.011786  0  4.015265  0  0  -0.003892  0  4.03366  0  0  -0.001373  -0.016853  0  4.002331  0
C  C55  1  0.85330478  0.74875521  0.84573952  1  0  0.026795  0  3.760371  0  0  -0.011983  0  4.015086  0  0  -0.004089  0  4.033478  0  0  -0.001528  -0.01705  0  4.002151  0
N  N56  1  0.37996720  0.34433796  0.91268442  1  0  -0.246327  0  3.397529  0  0  -0.15207  0  3.66303  0  0  -0.172687  0  3.689176  0  0  -0.314483  -0.1373  0  3.644593  0
N  N57  1  0.12000091  0.65562325  0.41268370  1  0  -0.246256  0  3.397398  0  0  -0.151822  0  3.662669  0  0  -0.172446  0  3.688822  0  0  -0.314326  -0.137052  0  3.644235  0
N  N58  1  0.61998993  0.84436177  0.58731249  1  0  -0.246275  0  3.39718  0  0  -0.151903  0  3.662531  0  0  -0.172523  0  3.688673  0  0  -0.314365  -0.137133  0  3.6441  0
N  N59  1  0.87997639  0.15566668  0.08731302  1  0  -0.246371  0  3.397493  0  0  -0.152078  0  3.662961  0  0  -0.172697  0  3.689103  0  0  -0.314481  -0.137308  0  3.644525  0
N  N60  1  0.61999836  0.65568224  0.08731995  1  0  -0.246271  0  3.397249  0  0  -0.151961  0  3.662684  0  0  -0.172576  0  3.688824  0  0  -0.314495  -0.137194  0  3.644251  0
N  N61  1  0.88003588  0.34435236  0.58731677  1  0  -0.246122  0  3.397163  0  0  -0.151791  0  3.662567  0  0  -0.172412  0  3.688712  0  0  -0.314326  -0.137021  0  3.644133  0
N  N62  1  0.38002368  0.15561999  0.41268165  1  0  -0.246274  0  3.397495  0  0  -0.151937  0  3.66284  0  0  -0.172557  0  3.688989  0  0  -0.314328  -0.13717  0  3.644408  0
N  N63  1  0.11999248  0.84434891  0.91268501  1  0  -0.246338  0  3.397352  0  0  -0.152037  0  3.662826  0  0  -0.172657  0  3.688969  0  0  -0.314395  -0.137267  0  3.644388  0
N  N64  1  0.58149242  0.24801415  0.90867075  1  0  -0.245335  0  3.388281  0  0  -0.150487  0  3.653972  0  0  -0.170974  0  3.679733  0  0  -0.315271  -0.135843  0  3.635633  0
N  N65  1  0.91848724  0.75196273  0.40866701  1  0  -0.245397  0  3.388399  0  0  -0.150579  0  3.654029  0  0  -0.171067  0  3.679795  0  0  -0.315251  -0.135937  0  3.635694  0
N  N66  1  0.41847834  0.74802947  0.59133663  1  0  -0.245378  0  3.388383  0  0  -0.150556  0  3.654048  0  0  -0.171042  0  3.679813  0  0  -0.31522  -0.135914  0  3.635712  0
N  N67  1  0.08149630  0.25199715  0.09132412  1  0  -0.245423  0  3.388443  0  0  -0.15063  0  3.654218  0  0  -0.17111  0  3.679973  0  0  -0.315371  -0.135989  0  3.635884  0
N  N68  1  0.41847976  0.75200605  0.09133606  1  0  -0.245473  0  3.388167  0  0  -0.150641  0  3.653843  0  0  -0.171128  0  3.679603  0  0  -0.315276  -0.135996  0  3.635504  0
N  N69  1  0.08154955  0.24800981  0.59133102  1  0  -0.245465  0  3.388498  0  0  -0.150667  0  3.654232  0  0  -0.171151  0  3.679991  0  0  -0.315386  -0.136026  0  3.635897  0
N  N70  1  0.58153029  0.25195383  0.40866336  1  0  -0.245313  0  3.388484  0  0  -0.150465  0  3.654122  0  0  -0.170953  0  3.679888  0  0  -0.315229  -0.135821  0  3.635784  0
N  N71  1  0.91846926  0.74801997  0.90867148  1  0  -0.245253  0  3.388268  0  0  -0.150416  0  3.653945  0  0  -0.1709  0  3.679705  0  0  -0.315274  -0.135773  0  3.635606  0
