# generated using pymatgen
data_CuH20C18(N2O3)2
_symmetry_space_group_name_H-M   'P 1'
_cell_length_a   7.70605039
_cell_length_b   7.94787651
_cell_length_c   8.88810194
_cell_angle_alpha   66.62998767
_cell_angle_beta   71.94851482
_cell_angle_gamma   81.91081973
_symmetry_Int_Tables_number   1
_chemical_formula_structural   CuH20C18(N2O3)2
_chemical_formula_sum   'Cu1 H20 C18 N4 O6'
_cell_volume   475.01340512
_cell_formula_units_Z   1
loop_
 _symmetry_equiv_pos_site_id
 _symmetry_equiv_pos_as_xyz
  1  'x, y, z'
loop_
 _atom_site_type_symbol
 _atom_site_label
 _atom_site_symmetry_multiplicity
 _atom_site_fract_x
 _atom_site_fract_y
 _atom_site_fract_z
 _atom_site_occupancy
 _atom_site_pbe_cm5_charge
 _atom_site_pbe_ddec_charge
 _atom_site_pbe_ddec_spin_density
 _atom_site_pbe_ddec_sum_bond_order
 _atom_site_pbe_magmom
Cu  Cu0  1  0.50000010  0.00000026  0.00000225  1  0.735048  0.733714  0.717362  2.161511  0.551
H  H1  1  0.44629346  0.72657743  0.51456954  1  0.300781  0.327541  -5.6e-05  1.012859  0.0
H  H2  1  0.55370867  0.27342113  0.48543739  1  0.30078  0.327604  -5.6e-05  1.012696  0.0
H  H3  1  0.75749248  0.00584103  0.17835652  1  0.117508  0.091187  0.001147  1.027442  0.002
H  H4  1  0.24250542  0.99416436  0.82164123  1  0.117505  0.091174  0.001147  1.027513  0.002
H  H5  1  0.04501564  0.16918476  0.10846731  1  0.109445  0.129339  0.000656  1.025209  0.001
H  H6  1  0.95498090  0.83081928  0.89153131  1  0.109453  0.129336  0.000656  1.025153  0.001
H  H7  1  0.93866225  0.52390426  0.63102367  1  0.112425  0.117822  0.00057  1.02939  0.001
H  H8  1  0.06134119  0.47608734  0.36897642  1  0.112464  0.117927  0.00057  1.029372  0.001
H  H9  1  0.65737533  0.34899016  0.71990866  1  0.11812  0.092167  0.001034  1.038426  0.001
H  H10  1  0.34263080  0.65100275  0.28008796  1  0.118085  0.092133  0.001034  1.038445  0.001
H  H11  1  0.26940404  0.40189951  0.91061398  1  0.120293  0.109589  -0.000119  0.98202  0.0
H  H12  1  0.73059671  0.59809629  0.08939096  1  0.120276  0.109587  -0.000119  0.982033  0.0
H  H13  1  0.30492909  0.20024380  0.43356144  1  0.105983  0.133334  -0.000249  0.982666  0.0
H  H14  1  0.69507014  0.79976431  0.56643384  1  0.105995  0.133365  -0.00025  0.982628  0.0
H  H15  1  0.28026374  0.96806105  0.57514386  1  0.096848  0.108998  0.00101  1.017879  0.001
H  H16  1  0.71973137  0.03195536  0.42485181  1  0.096812  0.108938  0.00101  1.017849  0.001
H  H17  1  0.98070604  0.13847690  0.58558164  1  0.085357  0.079608  -3.2e-05  1.004951  0.0
H  H18  1  0.01929047  0.86152987  0.41441488  1  0.085371  0.079624  -3.3e-05  1.004935  0.0
H  H19  1  0.01658203  0.19637889  0.36614478  1  0.0857  0.073858  0.000309  1.037751  0.0
H  H20  1  0.98341998  0.80362508  0.63385236  1  0.085687  0.073824  0.000309  1.037701  0.0
C  C21  1  0.80283535  0.12244287  0.05927728  1  0.043491  0.093826  -0.001167  3.944278  0.0
C  C22  1  0.19716391  0.87756112  0.94071948  1  0.043526  0.09388  -0.001167  3.94426  0.0
C  C23  1  0.96120908  0.21409206  0.02002552  1  -0.084186  -0.180539  0.00399  3.926885  0.005
C  C24  1  0.03878480  0.78590933  0.97997930  1  -0.084212  -0.180498  0.003989  3.92706  0.005
C  C25  1  0.01921783  0.35814577  0.86126061  1  0.013419  0.126694  -0.003257  4.013375  -0.002
C  C26  1  0.98078687  0.64185399  0.13873168  1  0.013464  0.126755  -0.003256  4.013489  -0.002
C  C27  1  0.90390643  0.40996022  0.75358254  1  -0.078382  -0.164858  0.004081  3.910595  0.005
C  C28  1  0.09608883  0.59004254  0.24642365  1  -0.078469  -0.165111  0.004081  3.910677  0.005
C  C29  1  0.74675053  0.31325145  0.80232364  1  0.043488  0.088524  -0.000558  3.937353  0.0
C  C30  1  0.25325283  0.68674560  0.19767113  1  0.043593  0.088676  -0.000558  3.937394  0.0
C  C31  1  0.19332652  0.44309269  0.81509707  1  0.036946  -0.042546  0.000501  3.959888  0.001
C  C32  1  0.80667964  0.55690163  0.18490241  1  0.036975  -0.042552  0.000501  3.959947  0.001
C  C33  1  0.35681450  0.01207547  0.31118154  1  0.211095  0.633357  -0.002461  4.102129  -0.004
C  C34  1  0.64318624  0.98791620  0.68882264  1  0.211187  0.633526  -0.002461  4.102002  -0.004
C  C35  1  0.24991307  0.06820314  0.45877852  1  -0.167575  -0.297282  0.006352  3.899168  0.007
C  C36  1  0.75008482  0.93180362  0.54121875  1  -0.167572  -0.297304  0.006352  3.899229  0.007
C  C37  1  0.04421023  0.08898359  0.48093375  1  -0.170168  -0.127002  0.000249  3.943206  0.0
C  C38  1  0.95578630  0.91102182  0.51906438  1  -0.170177  -0.127013  0.000248  3.943233  0.0
N  N39  1  0.69839630  0.16783342  0.95158435  1  -0.353706  -0.233829  0.058363  3.599135  0.075
N  N40  1  0.30160851  0.83216093  0.04841662  1  -0.353744  -0.23389  0.05836  3.599137  0.075
N  N41  1  0.25549223  0.56235315  0.66255921  1  -0.213817  -0.055206  -0.001572  3.265524  -0.001
N  N42  1  0.74450574  0.43764955  0.33744400  1  -0.213876  -0.055296  -0.001571  3.265565  -0.001
O  O43  1  0.42099028  0.62964378  0.63628713  1  -0.263143  -0.354618  -0.000846  2.300922  -0.001
O  O44  1  0.57900633  0.37035481  0.36371570  1  -0.263124  -0.354615  -0.000845  2.300688  -0.001
O  O45  1  0.46997305  0.87764508  0.33155173  1  -0.315346  -0.57891  -0.000356  2.240152  0.001
O  O46  1  0.53003312  0.12235199  0.66844900  1  -0.31541  -0.579013  -0.000355  2.240096  0.001
O  O47  1  0.33092000  0.10767240  0.16439805  1  -0.3221  -0.537893  0.073731  2.289165  0.103
O  O48  1  0.66908072  0.89232338  0.83560465  1  -0.322112  -0.537935  0.073733  2.289023  0.103
