# generated using pymatgen
data_Cu3H10C13I3N4
_symmetry_space_group_name_H-M   'P 1'
_cell_length_a   9.31344655
_cell_length_b   9.52237395
_cell_length_c   10.70068481
_cell_angle_alpha   99.84917751
_cell_angle_beta   108.56971313
_cell_angle_gamma   97.07060499
_symmetry_Int_Tables_number   1
_chemical_formula_structural   Cu3H10C13I3N4
_chemical_formula_sum   'Cu6 H20 C26 I6 N8'
_cell_volume   870.16935343
_cell_formula_units_Z   2
loop_
 _symmetry_equiv_pos_site_id
 _symmetry_equiv_pos_as_xyz
  1  'x, y, z'
loop_
 _atom_site_type_symbol
 _atom_site_label
 _atom_site_symmetry_multiplicity
 _atom_site_fract_x
 _atom_site_fract_y
 _atom_site_fract_z
 _atom_site_occupancy
 _atom_site_hle17_bader_spin_density
 _atom_site_hle17_ddec_charge
 _atom_site_hle17_ddec_spin_density
 _atom_site_hle17_ddec_sum_bond_order
 _atom_site_hle17_magmom
 _atom_site_hse06_10hf_bader_spin_density
 _atom_site_hse06_10hf_ddec_charge
 _atom_site_hse06_10hf_ddec_spin_density
 _atom_site_hse06_10hf_ddec_sum_bond_order
 _atom_site_hse06_10hf_magmom
 _atom_site_hse06_bader_spin_density
 _atom_site_hse06_ddec_charge
 _atom_site_hse06_ddec_spin_density
 _atom_site_hse06_ddec_sum_bond_order
 _atom_site_hse06_magmom
 _atom_site_pbe_bader_spin_density
 _atom_site_pbe_cm5_charge
 _atom_site_pbe_ddec_charge
 _atom_site_pbe_ddec_spin_density
 _atom_site_pbe_ddec_sum_bond_order
 _atom_site_pbe_magmom
Cu  Cu0  1  0.28456189  0.28843150  0.73994605  1  0  0.293746  0  2.180214  0  0  0.201353  0  2.675892  0  0  0.208436  0  2.623157  0  0  0.335154  0.200308  0  2.707978  0
Cu  Cu1  1  0.71543889  0.71156726  0.26005407  1  0  0.293755  0  2.180217  0  0  0.201355  0  2.675893  0  0  0.208446  0  2.62314  0  0  0.335157  0.200302  0  2.707994  0
Cu  Cu2  1  0.50199544  0.33735738  0.96788586  1  0  0.16545  0  2.30645  0  0  0.11214  0  2.778374  0  0  0.13205  0  2.714636  0  0  0.129376  0.098808  0  2.821622  0
Cu  Cu3  1  0.49800512  0.66264031  0.03211497  1  0  0.165453  0  2.306424  0  0  0.112156  0  2.77834  0  0  0.132061  0  2.714602  0  0  0.129399  0.098822  0  2.82159  0
Cu  Cu4  1  0.59332677  0.08070848  0.95914624  1  0  0.244144  0  2.190573  0  0  0.169282  0  2.659065  0  0  0.181969  0  2.60539  0  0  0.241022  0.163093  0  2.693384  0
Cu  Cu5  1  0.40667106  0.91929250  0.04085713  1  0  0.244133  0  2.190537  0  0  0.169273  0  2.659029  0  0  0.181942  0  2.605384  0  0  0.241021  0.163088  0  2.693342  0
H  H6  1  0.70174532  0.99675291  0.54046527  1  0  0.129832  0  0.966329  0  0  0.138979  0  1.027849  0  0  0.142693  0  1.02617  0  0  0.098767  0.135489  0  1.030993  0
H  H7  1  0.29825590  0.00324803  0.45953623  1  0  0.129841  0  0.966286  0  0  0.138974  0  1.027828  0  0  0.14269  0  1.026145  0  0  0.098774  0.135485  0  1.030966  0
H  H8  1  0.75748451  0.18509035  0.38984625  1  0  0.101263  0  1.004152  0  0  0.109253  0  1.074492  0  0  0.112376  0  1.071089  0  0  0.104288  0.106829  0  1.076925  0
H  H9  1  0.24251671  0.81491059  0.61015524  1  0  0.101242  0  1.004175  0  0  0.109237  0  1.074509  0  0  0.112363  0  1.071096  0  0  0.104291  0.106809  0  1.076943  0
H  H10  1  0.88460341  0.32968443  0.30636168  1  0  0.119488  0  0.95902  0  0  0.126028  0  1.026849  0  0  0.129242  0  1.026587  0  0  0.102919  0.123599  0  1.027223  0
H  H11  1  0.11539850  0.67031433  0.69363876  1  0  0.119501  0  0.958994  0  0  0.12604  0  1.026818  0  0  0.129253  0  1.026558  0  0  0.10292  0.123612  0  1.027192  0
H  H12  1  0.04799586  0.51025755  0.24289722  1  0  0.095777  0  0.955383  0  0  0.105636  0  1.018446  0  0  0.109103  0  1.015055  0  0  0.094016  0.103494  0  1.019827  0
H  H13  1  0.95200379  0.48974122  0.75710259  1  0  0.095786  0  0.955379  0  0  0.105643  0  1.018448  0  0  0.109111  0  1.015055  0  0  0.094015  0.103502  0  1.019829  0
H  H14  1  0.32625879  0.60131195  0.39077593  1  0  0.10043  0  0.981544  0  0  0.108539  0  1.047562  0  0  0.111861  0  1.046921  0  0  0.09095  0.105177  0  1.050272  0
H  H15  1  0.67374062  0.39869117  0.60922539  1  0  0.100386  0  0.981513  0  0  0.108497  0  1.047546  0  0  0.111834  0  1.04689  0  0  0.090922  0.105133  0  1.050254  0
H  H16  1  0.42778723  0.50594557  0.60188582  1  0  0.076087  0  0.946385  0  0  0.083975  0  1.012803  0  0  0.086698  0  1.010401  0  0  0.106284  0.081774  0  1.014871  0
H  H17  1  0.57221399  0.49405535  0.39811380  1  0  0.076096  0  0.946377  0  0  0.083991  0  1.012791  0  0  0.086713  0  1.010389  0  0  0.106286  0.081788  0  1.01486  0
H  H18  1  0.75349229  0.90370750  0.73064100  1  0  0.097368  0  0.950683  0  0  0.107889  0  1.014349  0  0  0.111556  0  1.01091  0  0  0.096116  0.104305  0  1.018789  0
H  H19  1  0.24650645  0.09629236  0.26935872  1  0  0.097312  0  0.950712  0  0  0.107871  0  1.014334  0  0  0.111505  0  1.010938  0  0  0.096087  0.104277  0  1.018785  0
H  H20  1  0.82188857  0.75824255  0.90564151  1  0  0.097231  0  1.000961  0  0  0.104282  0  1.068328  0  0  0.107158  0  1.068446  0  0  0.083498  0.102356  0  1.067643  0
H  H21  1  0.17811017  0.24175731  0.09435821  1  0  0.097245  0  1.000964  0  0  0.104287  0  1.068333  0  0  0.10716  0  1.068456  0  0  0.083507  0.102363  0  1.067645  0
H  H22  1  0.10075227  0.76790236  0.03566663  1  0  0.078017  0  0.937609  0  0  0.082666  0  1.008845  0  0  0.086159  0  1.005653  0  0  0.102056  0.079736  0  1.011562  0
H  H23  1  0.89924487  0.23210078  0.96433499  1  0  0.078031  0  0.937615  0  0  0.082692  0  1.008836  0  0  0.086189  0  1.005648  0  0  0.102094  0.079766  0  1.011551  0
H  H24  1  0.24276036  0.05207548  0.82608185  1  0  0.061055  0  0.999075  0  0  0.05814  0  1.093185  0  0  0.064949  0  1.082773  0  0  0.089847  0.052671  0  1.101199  0
H  H25  1  0.75723906  0.94792220  0.17391680  1  0  0.061037  0  0.999073  0  0  0.058122  0  1.093174  0  0  0.064931  0  1.082764  0  0  0.08982  0.052651  0  1.101189  0
C  C26  1  0.95686135  0.07315441  0.65721519  1  0  0.180341  0  3.762723  0  0  0.166602  0  4.024368  0  0  0.17637  0  4.04009  0  0  0.101509  0.16103  0  4.011348  0
C  C27  1  0.04314056  0.92684435  0.34278431  1  0  0.180358  0  3.762572  0  0  0.166582  0  4.024315  0  0  0.176351  0  4.040035  0  0  0.10149  0.161009  0  4.011291  0
C  C28  1  0.81087203  0.06514059  0.55676731  1  0  -0.214692  0  3.725608  0  0  -0.239663  0  3.995945  0  0  -0.247973  0  4.011403  0  0  -0.108659  -0.233672  0  3.983888  0
C  C29  1  0.18912875  0.93485816  0.44323094  1  0  -0.214699  0  3.725531  0  0  -0.23965  0  3.995912  0  0  -0.247958  0  4.011368  0  0  -0.108661  -0.233658  0  3.983849  0
C  C30  1  0.83612360  0.15893789  0.47836852  1  0  0.022119  0  3.665828  0  0  -0.034673  0  3.928719  0  0  -0.017946  0  3.94638  0  0  0.017922  -0.041495  0  3.918538  0
C  C31  1  0.16387853  0.84106195  0.52163214  1  0  0.022109  0  3.665764  0  0  -0.034701  0  3.928642  0  0  -0.017968  0  3.946306  0  0  0.017882  -0.041517  0  3.918457  0
C  C32  1  0.07317355  0.32325928  0.48766790  1  0  0.319736  0  3.76051  0  0  0.284193  0  4.014708  0  0  0.305595  0  4.033215  0  0  0.223677  0.273655  0  4.002973  0
C  C33  1  0.92682654  0.67674167  0.51233422  1  0  0.319756  0  3.760428  0  0  0.284193  0  4.014621  0  0  0.305597  0  4.033133  0  0  0.223687  0.273655  0  4.002889  0
C  C34  1  0.00517119  0.37055935  0.36975047  1  0  -0.18731  0  3.705436  0  0  -0.204023  0  3.959769  0  0  -0.213866  0  3.980348  0  0  -0.086351  -0.197582  0  3.945382  0
C  C35  1  0.99482846  0.62943942  0.63024933  1  0  -0.18731  0  3.705452  0  0  -0.204027  0  3.959815  0  0  -0.213874  0  3.980399  0  0  -0.086338  -0.19759  0  3.945429  0
C  C36  1  0.09762295  0.47144740  0.33453537  1  0  0.015813  0  3.719065  0  0  -0.004213  0  3.968177  0  0  0.002118  0  3.984196  0  0  -0.070897  -0.00804  0  3.956237  0
C  C37  1  0.90237692  0.52855246  0.66546466  1  0  0.015783  0  3.719095  0  0  -0.004249  0  3.968204  0  0  0.002081  0  3.984227  0  0  -0.070884  -0.008077  0  3.956267  0
C  C38  1  0.25216850  0.52190383  0.41658833  1  0  -0.138207  0  3.746242  0  0  -0.149203  0  3.993828  0  0  -0.157755  0  4.015765  0  0  -0.095245  -0.143759  0  3.979421  0
C  C39  1  0.74783182  0.47809820  0.58341308  1  0  -0.138115  0  3.746156  0  0  -0.14912  0  3.993751  0  0  -0.157684  0  4.015679  0  0  -0.095232  -0.143671  0  3.979339  0
C  C40  1  0.30888783  0.46949834  0.53265807  1  0  0.132995  0  3.709906  0  0  0.105475  0  3.958897  0  0  0.112496  0  3.975687  0  0  0.039866  0.101237  0  3.947801  0
C  C41  1  0.69111249  0.53050369  0.46734240  1  0  0.132943  0  3.709868  0  0  0.105419  0  3.958858  0  0  0.112437  0  3.975656  0  0  0.039866  0.101185  0  3.947763  0
C  C42  1  0.99293181  0.98980188  0.76197262  1  0  -0.019944  0  3.78363  0  0  0.000207  0  4.01733  0  0  -0.005302  0  4.039726  0  0  -0.006647  0.004353  0  4.000578  0
C  C43  1  0.00706806  0.01019797  0.23802741  1  0  -0.019917  0  3.783511  0  0  0.000224  0  4.017255  0  0  -0.005279  0  4.039641  0  0  -0.006637  0.004377  0  4.000495  0
C  C44  1  0.87437514  0.90530622  0.78647206  1  0  -0.042418  0  3.679971  0  0  -0.070201  0  3.927892  0  0  -0.065531  0  3.943228  0  0  -0.073422  -0.073628  0  3.917759  0
C  C45  1  0.12562269  0.09469472  0.21352663  1  0  -0.04237  0  3.679953  0  0  -0.070169  0  3.92787  0  0  -0.065478  0  3.943211  0  0  -0.073388  -0.073595  0  3.917732  0
C  C46  1  0.91180577  0.82427823  0.88454551  1  0  -0.106869  0  3.757726  0  0  -0.116221  0  4.003162  0  0  -0.123411  0  4.025339  0  0  -0.089306  -0.111271  0  3.987524  0
C  C47  1  0.08819297  0.17572162  0.11545326  1  0  -0.106903  0  3.757751  0  0  -0.116238  0  4.003187  0  0  -0.123426  0  4.025357  0  0  -0.08932  -0.111293  0  3.987558  0
C  C48  1  0.06614927  0.82935984  0.95731943  1  0  0.118017  0  3.677762  0  0  0.086361  0  3.932766  0  0  0.093808  0  3.948583  0  0  0.035911  0.081436  0  3.922018  0
C  C49  1  0.93384946  0.17064002  0.04268028  1  0  0.118014  0  3.67772  0  0  0.086345  0  3.932716  0  0  0.093786  0  3.948541  0  0  0.035883  0.081418  0  3.921969  0
C  C50  1  0.14545035  0.98829768  0.84009490  1  0  0.09441  0  3.640607  0  0  0.05871  0  3.88977  0  0  0.064992  0  3.905575  0  0  0.039484  0.053828  0  3.880027  0
C  C51  1  0.85454929  0.01170108  0.15990491  1  0  0.094411  0  3.640572  0  0  0.058742  0  3.889707  0  0  0.065013  0  3.905529  0  0  0.039513  0.053853  0  3.879985  0
I  I52  1  0.53420691  0.19285152  0.74347237  1  0  -0.332943  0  1.725434  0  0  -0.27697  0  2.16295  0  0  -0.292289  0  2.121049  0  0  -0.168458  -0.266141  0  2.19483  0
I  I53  1  0.46579725  0.80715267  0.25653042  1  0  -0.332925  0  1.725396  0  0  -0.276971  0  2.162945  0  0  -0.292281  0  2.121034  0  0  -0.168449  -0.266134  0  2.194826  0
I  I54  1  0.24906787  0.45470640  0.94262422  1  0  -0.31751  0  1.770193  0  0  -0.266724  0  2.218508  0  0  -0.285411  0  2.176772  0  0  -0.167997  -0.253447  0  2.244791  0
I  I55  1  0.75093223  0.54529454  0.05737603  1  0  -0.317509  0  1.770204  0  0  -0.266726  0  2.218525  0  0  -0.285416  0  2.176788  0  0  -0.167997  -0.253447  0  2.24481  0
I  I56  1  0.51128065  0.20148478  0.16308640  1  0  -0.334424  0  1.775491  0  0  -0.279866  0  2.214111  0  0  -0.296746  0  2.173532  0  0  -0.157951  -0.267354  0  2.244451  0
I  I57  1  0.48871785  0.79851945  0.83691576  1  0  -0.334418  0  1.775453  0  0  -0.279857  0  2.214057  0  0  -0.296742  0  2.17348  0  0  -0.15796  -0.267349  0  2.244399  0
N  N58  1  0.06537053  0.16817396  0.64048973  1  0  -0.251547  0  3.12478  0  0  -0.217537  0  3.414439  0  0  -0.217784  0  3.426981  0  0  -0.258338  -0.215088  0  3.409457  0
N  N59  1  0.93463025  0.83182480  0.35951039  1  0  -0.251483  0  3.124682  0  0  -0.217524  0  3.414393  0  0  -0.217766  0  3.426933  0  0  -0.258329  -0.215072  0  3.409408  0
N  N60  1  0.98998638  0.21980175  0.53104984  1  0  0.007186  0  3.569799  0  0  0.115213  0  3.74854  0  0  0.076947  0  3.807286  0  0  -0.131127  0.126831  0  3.727427  0
N  N61  1  0.01001327  0.78019701  0.46894903  1  0  0.00714  0  3.569753  0  0  0.115239  0  3.748444  0  0  0.076967  0  3.807198  0  0  -0.131102  0.126859  0  3.727326  0
N  N62  1  0.22096100  0.37186643  0.56839642  1  0  -0.335163  0  3.313264  0  0  -0.273197  0  3.604441  0  0  -0.285274  0  3.608658  0  0  -0.354285  -0.265332  0  3.599788  0
N  N63  1  0.77903932  0.62813560  0.43160405  1  0  -0.335174  0  3.313252  0  0  -0.273185  0  3.604399  0  0  -0.285265  0  3.608618  0  0  -0.354317  -0.265328  0  3.599756  0
N  N64  1  0.18145445  0.91051728  0.93563758  1  0  -0.269487  0  3.390739  0  0  -0.192433  0  3.669189  0  0  -0.207275  0  3.682056  0  0  -0.363982  -0.183198  0  3.660445  0
N  N65  1  0.81854407  0.08948150  0.06436285  1  0  -0.2695  0  3.390695  0  0  -0.192463  0  3.669179  0  0  -0.207305  0  3.682047  0  0  -0.363997  -0.183228  0  3.660434  0
