# generated using pymatgen
data_AgH23C22(NO2)2
_symmetry_space_group_name_H-M   'P 1'
_cell_length_a   6.62756404
_cell_length_b   11.47400154
_cell_length_c   14.24613927
_cell_angle_alpha   120.28715999
_cell_angle_beta   89.99368316
_cell_angle_gamma   90.00765527
_symmetry_Int_Tables_number   1
_chemical_formula_structural   AgH23C22(NO2)2
_chemical_formula_sum   'Ag2 H46 C44 N4 O8'
_cell_volume   935.47606853
_cell_formula_units_Z   2
loop_
 _symmetry_equiv_pos_site_id
 _symmetry_equiv_pos_as_xyz
  1  'x, y, z'
loop_
 _atom_site_type_symbol
 _atom_site_label
 _atom_site_symmetry_multiplicity
 _atom_site_fract_x
 _atom_site_fract_y
 _atom_site_fract_z
 _atom_site_occupancy
 _atom_site_hle17_bader_spin_density
 _atom_site_hle17_ddec_charge
 _atom_site_hle17_ddec_spin_density
 _atom_site_hle17_ddec_sum_bond_order
 _atom_site_hle17_magmom
 _atom_site_hse06_10hf_bader_spin_density
 _atom_site_hse06_10hf_ddec_charge
 _atom_site_hse06_10hf_ddec_spin_density
 _atom_site_hse06_10hf_ddec_sum_bond_order
 _atom_site_hse06_10hf_magmom
 _atom_site_hse06_bader_spin_density
 _atom_site_hse06_ddec_charge
 _atom_site_hse06_ddec_spin_density
 _atom_site_hse06_ddec_sum_bond_order
 _atom_site_hse06_magmom
 _atom_site_pbe_bader_spin_density
 _atom_site_pbe_cm5_charge
 _atom_site_pbe_ddec_charge
 _atom_site_pbe_ddec_spin_density
 _atom_site_pbe_ddec_sum_bond_order
 _atom_site_pbe_magmom
Ag  Ag0  1  0.25018197  0.95894894  0.05257492  1  0  0.485778  0  1.414591  0  0  0.319266  0  1.86173  0  0  0.354668  0  1.813512  0  0  0.439001  0.295074  0  1.895107  0
Ag  Ag1  1  0.74997328  0.04105090  0.94741854  1  0  0.485667  0  1.41467  0  0  0.319155  0  1.861742  0  0  0.354573  0  1.813519  0  0  0.439029  0.294967  0  1.89511  0
H  H2  1  0.25061938  0.74296549  0.72766629  1  0  0.423402  0  0.777516  0  0  0.400977  0  0.843417  0  0  0.411702  0  0.830719  0  0  0.344147  0.393105  0  0.852852  0
H  H3  1  0.75037781  0.25703237  0.27234257  1  0  0.423435  0  0.777616  0  0  0.400967  0  0.843533  0  0  0.411695  0  0.830832  0  0  0.344052  0.3931  0  0.852949  0
H  H4  1  0.24980552  0.24667962  0.20052596  1  0  0.094752  0  0.949234  0  0  0.1041  0  1.007204  0  0  0.106292  0  1.006113  0  0  0.120349  0.102362  0  1.008136  0
H  H5  1  0.74990160  0.75331149  0.79945369  1  0  0.094953  0  0.94917  0  0  0.104274  0  1.007149  0  0  0.106468  0  1.006058  0  0  0.120436  0.10254  0  1.008082  0
H  H6  1  0.24991753  0.46757172  0.21119721  1  0  0.100898  0  0.97862  0  0  0.11304  0  1.039593  0  0  0.115582  0  1.039311  0  0  0.109063  0.111083  0  1.040139  0
H  H7  1  0.74997668  0.53241685  0.78878922  1  0  0.10112  0  0.978201  0  0  0.113259  0  1.039153  0  0  0.115794  0  1.038876  0  0  0.10925  0.111293  0  1.039716  0
H  H8  1  0.25007427  0.25114627  0.85872385  1  0  0.0981  0  0.977243  0  0  0.111924  0  1.033924  0  0  0.114573  0  1.033501  0  0  0.106361  0.109977  0  1.034368  0
H  H9  1  0.74996932  0.74884757  0.14126806  1  0  0.098114  0  0.977228  0  0  0.111932  0  1.033908  0  0  0.114585  0  1.03348  0  0  0.106355  0.109945  0  1.034406  0
H  H10  1  0.25002361  0.04074303  0.86307614  1  0  0.110713  0  0.922433  0  0  0.12149  0  0.978662  0  0  0.124634  0  0.974887  0  0  0.125535  0.118963  0  0.981746  0
H  H11  1  0.74995511  0.95925760  0.13691411  1  0  0.110737  0  0.922415  0  0  0.121476  0  0.978664  0  0  0.124635  0  0.974857  0  0  0.125518  0.118946  0  0.981753  0
H  H12  1  0.25004833  0.64616505  0.87022590  1  0  0.084866  0  0.979167  0  0  0.090998  0  1.049493  0  0  0.094097  0  1.045939  0  0  0.113104  0.088655  0  1.052115  0
H  H13  1  0.74998168  0.35384405  0.12977385  1  0  0.084734  0  0.979179  0  0  0.090905  0  1.04939  0  0  0.09401  0  1.045828  0  0  0.113105  0.08855  0  1.052045  0
H  H14  1  0.25010074  0.42672997  0.86135057  1  0  0.093087  0  0.991246  0  0  0.104005  0  1.055005  0  0  0.106847  0  1.054161  0  0  0.102818  0.101907  0  1.055836  0
H  H15  1  0.74997906  0.57326865  0.13863892  1  0  0.093368  0  0.991065  0  0  0.104221  0  1.054905  0  0  0.10707  0  1.054035  0  0  0.102904  0.102132  0  1.055722  0
H  H16  1  0.24986564  0.64325808  0.21301091  1  0  0.104446  0  0.968988  0  0  0.116765  0  1.029112  0  0  0.119339  0  1.028759  0  0  0.109777  0.114825  0  1.029614  0
H  H17  1  0.75003310  0.35672997  0.78698304  1  0  0.104326  0  0.968908  0  0  0.116567  0  1.029152  0  0  0.119137  0  1.028808  0  0  0.109705  0.114628  0  1.029654  0
H  H18  1  0.24979741  0.85433807  0.20665816  1  0  0.092539  0  0.94945  0  0  0.102157  0  1.008174  0  0  0.1043  0  1.00643  0  0  0.122251  0.100413  0  1.00956  0
H  H19  1  0.75006362  0.14566226  0.79334322  1  0  0.09251  0  0.949514  0  0  0.102124  0  1.008309  0  0  0.104266  0  1.006569  0  0  0.122209  0.10038  0  1.009693  0
H  H20  1  0.11621400  0.35206417  0.42278838  1  0  0.081506  0  0.956484  0  0  0.093905  0  1.024022  0  0  0.094906  0  1.0245  0  0  0.090648  0.093166  0  1.023754  0
H  H21  1  0.61616413  0.64792891  0.57722015  1  0  0.081527  0  0.95634  0  0  0.093835  0  1.024014  0  0  0.094838  0  1.024492  0  0  0.090598  0.0931  0  1.023743  0
H  H22  1  0.88377980  0.64798168  0.57724837  1  0  0.08153  0  0.956586  0  0  0.093911  0  1.024075  0  0  0.094912  0  1.024564  0  0  0.090653  0.093171  0  1.02381  0
H  H23  1  0.38381760  0.35204463  0.42276203  1  0  0.081515  0  0.956252  0  0  0.093905  0  1.023807  0  0  0.094905  0  1.024288  0  0  0.090598  0.093167  0  1.023541  0
H  H24  1  0.06137062  0.44263706  0.71459024  1  0  0.058574  0  0.963602  0  0  0.073313  0  1.036508  0  0  0.074043  0  1.037239  0  0  0.080904  0.072946  0  1.035847  0
H  H25  1  0.56139710  0.55734326  0.28541288  1  0  0.058502  0  0.963482  0  0  0.073215  0  1.036378  0  0  0.073942  0  1.0371  0  0  0.080868  0.072849  0  1.03571  0
H  H26  1  0.93871975  0.55742018  0.28543954  1  0  0.058592  0  0.963168  0  0  0.073283  0  1.036139  0  0  0.073981  0  1.036881  0  0  0.080864  0.072918  0  1.035484  0
H  H27  1  0.43868119  0.44259789  0.71457118  1  0  0.058508  0  0.963338  0  0  0.073229  0  1.036242  0  0  0.07394  0  1.036983  0  0  0.080871  0.072864  0  1.035589  0
H  H28  1  0.92451302  0.40718930  0.59543883  1  0  0.091317  0  0.959786  0  0  0.10716  0  1.02235  0  0  0.108801  0  1.021878  0  0  0.093661  0.10586  0  1.023011  0
H  H29  1  0.42451097  0.59279838  0.40457316  1  0  0.091356  0  0.959639  0  0  0.107138  0  1.022238  0  0  0.108773  0  1.021759  0  0  0.093676  0.105843  0  1.022895  0
H  H30  1  0.07555773  0.59286974  0.40460427  1  0  0.0912  0  0.959897  0  0  0.107075  0  1.022393  0  0  0.1087  0  1.021914  0  0  0.093663  0.105779  0  1.023062  0
H  H31  1  0.57555072  0.40714439  0.59540518  1  0  0.091241  0  0.959867  0  0  0.107081  0  1.022381  0  0  0.108711  0  1.021906  0  0  0.093687  0.105784  0  1.023047  0
H  H32  1  0.92496062  0.20636587  0.61985941  1  0  0.028577  0  0.936245  0  0  0.044123  0  0.995461  0  0  0.044563  0  0.995804  0  0  0.084235  0.043655  0  0.995616  0
H  H33  1  0.42503357  0.79360714  0.38012176  1  0  0.028349  0  0.936285  0  0  0.044017  0  0.995501  0  0  0.044417  0  0.995894  0  0  0.084113  0.043546  0  0.995666  0
H  H34  1  0.07506185  0.79371559  0.38021179  1  0  0.02843  0  0.936325  0  0  0.04394  0  0.995648  0  0  0.044376  0  0.996  0  0  0.084178  0.043471  0  0.995795  0
H  H35  1  0.57498286  0.20630834  0.61981331  1  0  0.028342  0  0.936189  0  0  0.043983  0  0.995569  0  0  0.044456  0  0.995873  0  0  0.084182  0.043511  0  0.995721  0
H  H36  1  0.05708232  0.03729604  0.43733623  1  0  0.065225  0  0.948948  0  0  0.082501  0  1.01484  0  0  0.083014  0  1.015487  0  0  0.085704  0.082139  0  1.014371  0
H  H37  1  0.55711513  0.96269830  0.56265903  1  0  0.065311  0  0.948954  0  0  0.082576  0  1.014753  0  0  0.083094  0  1.015395  0  0  0.085726  0.082204  0  1.014292  0
H  H38  1  0.94283452  0.96274302  0.56271834  1  0  0.0652  0  0.949029  0  0  0.082549  0  1.014892  0  0  0.083073  0  1.01553  0  0  0.085717  0.082163  0  1.014464  0
H  H39  1  0.44278814  0.03727163  0.43729650  1  0  0.065244  0  0.948927  0  0  0.082551  0  1.014727  0  0  0.08308  0  1.015355  0  0  0.085651  0.082147  0  1.014316  0
H  H40  1  0.92532430  0.16666789  0.42993654  1  0  0.087914  0  0.950548  0  0  0.099794  0  1.020468  0  0  0.102249  0  1.018388  0  0  0.090252  0.097821  0  1.022384  0
H  H41  1  0.42531116  0.83332062  0.57005605  1  0  0.087826  0  0.950666  0  0  0.099756  0  1.020458  0  0  0.102171  0  1.018417  0  0  0.090205  0.097782  0  1.022377  0
H  H42  1  0.07457897  0.83339454  0.57012962  1  0  0.087747  0  0.950747  0  0  0.099595  0  1.020724  0  0  0.102049  0  1.018636  0  0  0.090205  0.097631  0  1.022635  0
H  H43  1  0.57459664  0.16663317  0.42989341  1  0  0.087779  0  0.950724  0  0  0.099616  0  1.020605  0  0  0.102062  0  1.018523  0  0  0.090196  0.09765  0  1.022509  0
H  H44  1  0.24992266  0.08940184  0.60950663  1  0  0.079425  0  0.939318  0  0  0.097937  0  0.999666  0  0  0.098956  0  1.000076  0  0  0.093223  0.097106  0  0.999518  0
H  H45  1  0.75003191  0.91059441  0.39049251  1  0  0.079333  0  0.939205  0  0  0.097883  0  0.999537  0  0  0.098903  0  0.999948  0  0  0.09318  0.097053  0  0.999389  0
H  H46  1  0.24998428  0.25566238  0.72181877  1  0  0.042753  0  0.987577  0  0  0.060797  0  1.054699  0  0  0.062049  0  1.053853  0  0  0.075616  0.060003  0  1.055244  0
H  H47  1  0.75011212  0.74432726  0.27818491  1  0  0.042631  0  0.987643  0  0  0.060685  0  1.054802  0  0  0.061942  0  1.053953  0  0  0.075644  0.059883  0  1.055356  0
C  C48  1  0.24988982  0.25330109  0.12689863  1  0  0.130544  0  3.687108  0  0  0.103202  0  3.925195  0  0  0.109942  0  3.94449  0  0  0.047182  0.098639  0  3.91251  0
C  C49  1  0.74993952  0.74667717  0.87308041  1  0  0.130135  0  3.687241  0  0  0.102772  0  3.925315  0  0  0.109506  0  3.94462  0  0  0.047055  0.098235  0  3.912561  0
C  C50  1  0.24993302  0.37691777  0.13147263  1  0  -0.154984  0  3.709873  0  0  -0.17477  0  3.955788  0  0  -0.182651  0  3.978055  0  0  -0.082164  -0.169725  0  3.941183  0
C  C51  1  0.74995818  0.62307203  0.86851777  1  0  -0.155278  0  3.709834  0  0  -0.174973  0  3.9558  0  0  -0.182849  0  3.978073  0  0  -0.082436  -0.169929  0  3.941207  0
C  C52  1  0.24999252  0.38199255  0.03501156  1  0  0.080674  0  3.760187  0  0  0.093072  0  3.988982  0  0  0.096803  0  4.011246  0  0  0.0068  0.090705  0  3.974035  0
C  C53  1  0.74998921  0.61800238  0.96498217  1  0  0.080681  0  3.760009  0  0  0.092931  0  3.98908  0  0  0.096658  0  4.011344  0  0  0.006771  0.090564  0  3.974128  0
C  C54  1  0.25004214  0.25772880  0.93751957  1  0  -0.134896  0  3.677994  0  0  -0.157712  0  3.926516  0  0  -0.165092  0  3.948557  0  0  -0.079708  -0.152872  0  3.91191  0
C  C55  1  0.74996373  0.74227249  0.06246531  1  0  -0.13488  0  3.678088  0  0  -0.157639  0  3.926632  0  0  -0.165026  0  3.948684  0  0  -0.079645  -0.152776  0  3.912056  0
C  C56  1  0.24999864  0.13718465  0.93879334  1  0  0.132853  0  3.676919  0  0  0.099644  0  3.932437  0  0  0.108271  0  3.946978  0  0  0.053524  0.09366  0  3.923129  0
C  C57  1  0.74994839  0.86281365  0.06119111  1  0  0.132541  0  3.677199  0  0  0.09938  0  3.932662  0  0  0.108009  0  3.947207  0  0  0.053407  0.093395  0  3.923347  0
C  C58  1  0.25000942  0.64155740  0.94472500  1  0  0.111204  0  3.723447  0  0  0.080934  0  3.971707  0  0  0.087765  0  3.991361  0  0  0.041253  0.076495  0  3.958628  0
C  C59  1  0.74999494  0.35843951  0.05526877  1  0  0.111381  0  3.723093  0  0  0.081146  0  3.971462  0  0  0.08799  0  3.991117  0  0  0.041332  0.076703  0  3.958381  0
C  C60  1  0.25005669  0.51797342  0.94074646  1  0  -0.155918  0  3.718344  0  0  -0.17837  0  3.970952  0  0  -0.186084  0  3.992356  0  0  -0.086136  -0.173451  0  3.957044  0
C  C61  1  0.74999596  0.48202756  0.05924954  1  0  -0.156322  0  3.718383  0  0  -0.178748  0  3.971106  0  0  -0.186461  0  3.992504  0  0  -0.086208  -0.173827  0  3.957195  0
C  C62  1  0.25000508  0.51229512  0.03669694  1  0  0.090569  0  3.76284  0  0  0.103783  0  3.990633  0  0  0.108382  0  4.011927  0  0  0.009532  0.100659  0  3.976554  0
C  C63  1  0.75000079  0.48769907  0.96330073  1  0  0.090764  0  3.762834  0  0  0.103923  0  3.990798  0  0  0.108532  0  4.01207  0  0  0.009619  0.100803  0  3.976714  0
C  C64  1  0.24991139  0.63697429  0.13420377  1  0  -0.158087  0  3.688576  0  0  -0.177837  0  3.936919  0  0  -0.185787  0  3.958339  0  0  -0.08209  -0.172736  0  3.922811  0
C  C65  1  0.75002206  0.36301885  0.86579280  1  0  -0.157887  0  3.688518  0  0  -0.177477  0  3.936905  0  0  -0.185429  0  3.958324  0  0  -0.082047  -0.172379  0  3.922786  0
C  C66  1  0.24988400  0.75668241  0.13195756  1  0  0.131266  0  3.68549  0  0  0.103236  0  3.927188  0  0  0.110627  0  3.946387  0  0  0.049552  0.098298  0  3.91445  0
C  C67  1  0.75001927  0.24332173  0.86804173  1  0  0.131085  0  3.685418  0  0  0.10298  0  3.927254  0  0  0.110377  0  3.946458  0  0  0.049466  0.098047  0  3.914513  0
C  C68  1  0.24992443  0.10212790  0.29205321  1  0  0.610756  0  3.897749  0  0  0.568072  0  4.189055  0  0  0.599942  0  4.185381  0  0  0.178741  0.546394  0  4.190179  0
C  C69  1  0.74985360  0.89789018  0.70794851  1  0  0.610502  0  3.898076  0  0  0.567855  0  4.189151  0  0  0.599723  0  4.185488  0  0  0.178903  0.546174  0  4.190278  0
C  C70  1  0.24996397  0.17658053  0.41760306  1  0  0.016566  0  3.565421  0  0  0.044756  0  3.788893  0  0  0.039956  0  3.806603  0  0  -0.021399  0.048025  0  3.776671  0
C  C71  1  0.74994382  0.82342488  0.58240094  1  0  0.016352  0  3.565796  0  0  0.044874  0  3.788736  0  0  0.040083  0  3.806437  0  0  -0.021428  0.048144  0  3.776521  0
C  C72  1  0.25000810  0.32815428  0.45511377  1  0  -0.18855  0  3.625555  0  0  -0.232121  0  3.859194  0  0  -0.233442  0  3.873651  0  0  -0.164917  -0.230996  0  3.849101  0
C  C73  1  0.74998268  0.67184452  0.54489476  1  0  -0.188451  0  3.625804  0  0  -0.232035  0  3.859373  0  0  -0.233371  0  3.873852  0  0  -0.164864  -0.230913  0  3.849282  0
C  C74  1  0.25004154  0.41506737  0.57991063  1  0  0.015944  0  3.569332  0  0  0.043096  0  3.795414  0  0  0.037798  0  3.813831  0  0  -0.011212  0.046734  0  3.782754  0
C  C75  1  0.75003373  0.58493047  0.42009825  1  0  0.015825  0  3.569353  0  0  0.042825  0  3.795505  0  0  0.037528  0  3.813907  0  0  -0.011304  0.046461  0  3.78285  0
C  C76  1  0.25010861  0.56236348  0.61039784  1  0  0.645697  0  3.692438  0  0  0.594178  0  4.001628  0  0  0.625986  0  3.992567  0  0  0.245774  0.572438  0  4.00739  0
C  C77  1  0.75007530  0.43764427  0.38961194  1  0  0.645376  0  3.692708  0  0  0.593952  0  4.001759  0  0  0.625765  0  3.992704  0  0  0.245495  0.572208  0  4.007521  0
C  C78  1  0.06043830  0.38132657  0.62522381  1  0  -0.182512  0  3.606462  0  0  -0.232683  0  3.85443  0  0  -0.234183  0  3.868064  0  0  -0.166061  -0.231489  0  3.845002  0
C  C79  1  0.56045543  0.61866368  0.37478169  1  0  -0.182447  0  3.606088  0  0  -0.232399  0  3.854008  0  0  -0.23386  0  3.867591  0  0  -0.165987  -0.231206  0  3.844586  0
C  C80  1  0.93962944  0.61871603  0.37480820  1  0  -0.182528  0  3.605668  0  0  -0.232535  0  3.853458  0  0  -0.234039  0  3.867145  0  0  -0.166017  -0.231308  0  3.843955  0
C  C81  1  0.43959420  0.38129316  0.62520124  1  0  -0.182647  0  3.606063  0  0  -0.232604  0  3.85411  0  0  -0.234096  0  3.867764  0  0  -0.166112  -0.231379  0  3.844601  0
C  C82  1  0.06129946  0.23006752  0.58816855  1  0  0.046305  0  3.619071  0  0  0.050111  0  3.856092  0  0  0.049776  0  3.873858  0  0  -0.091163  0.050484  0  3.843736  0
C  C83  1  0.56135358  0.76991818  0.41182605  1  0  0.046742  0  3.61884  0  0  0.050113  0  3.856269  0  0  0.049791  0  3.87401  0  0  -0.091132  0.050486  0  3.843901  0
C  C84  1  0.93871848  0.76997772  0.41187429  1  0  0.046456  0  3.619131  0  0  0.050198  0  3.856295  0  0  0.049856  0  3.874037  0  0  -0.09117  0.050583  0  3.843942  0
C  C85  1  0.43865983  0.23004391  0.58814620  1  0  0.046985  0  3.618759  0  0  0.050133  0  3.856497  0  0  0.049767  0  3.874276  0  0  -0.091185  0.050517  0  3.844136  0
C  C86  1  0.06036096  0.14538394  0.46331485  1  0  -0.17971  0  3.629095  0  0  -0.22945  0  3.876465  0  0  -0.230606  0  3.889934  0  0  -0.168291  -0.228394  0  3.867158  0
C  C87  1  0.56037585  0.85460438  0.53667516  1  0  -0.179839  0  3.629501  0  0  -0.229456  0  3.876719  0  0  -0.230578  0  3.890186  0  0  -0.168189  -0.228405  0  3.867435  0
C  C88  1  0.93956192  0.85465117  0.53672348  1  0  -0.178979  0  3.62937  0  0  -0.229024  0  3.877136  0  0  -0.230179  0  3.890604  0  0  -0.168089  -0.227918  0  3.86772  0
C  C89  1  0.43954251  0.14536828  0.46329263  1  0  -0.179575  0  3.629472  0  0  -0.22908  0  3.876852  0  0  -0.230233  0  3.890317  0  0  -0.168036  -0.227984  0  3.867483  0
C  C90  1  0.24996807  0.19643796  0.63232049  1  0  -0.170351  0  3.652349  0  0  -0.218906  0  3.904563  0  0  -0.220529  0  3.918041  0  0  -0.166919  -0.217574  0  3.894949  0
C  C91  1  0.75006194  0.80355659  0.36768293  1  0  -0.170076  0  3.652258  0  0  -0.21868  0  3.904432  0  0  -0.220299  0  3.917897  0  0  -0.166895  -0.21734  0  3.894805  0
N  N92  1  0.24990539  0.13464591  0.03231533  1  0  -0.308486  0  3.369807  0  0  -0.217347  0  3.656145  0  0  -0.236861  0  3.669487  0  0  -0.342311  -0.204336  0  3.6474  0
N  N93  1  0.74992696  0.86533915  0.96766205  1  0  -0.307934  0  3.36946  0  0  -0.216666  0  3.655547  0  0  -0.236184  0  3.66891  0  0  -0.342044  -0.20365  0  3.646793  0
N  N94  1  0.24992183  0.76014055  0.03880698  1  0  -0.285188  0  3.336635  0  0  -0.194425  0  3.604885  0  0  -0.214788  0  3.62394  0  0  -0.340253  -0.180805  0  3.59205  0
N  N95  1  0.75000106  0.23986459  0.96119270  1  0  -0.285116  0  3.336391  0  0  -0.194404  0  3.604763  0  0  -0.2148  0  3.623856  0  0  -0.340328  -0.180782  0  3.591926  0
O  O96  1  0.42011761  0.07565016  0.24373443  1  0  -0.66848  0  1.901561  0  0  -0.610085  0  2.140201  0  0  -0.637332  0  2.130028  0  0  -0.361571  -0.590093  0  2.146119  0
O  O97  1  0.92002832  0.92443284  0.75627848  1  0  -0.66833  0  1.901435  0  0  -0.609935  0  2.139918  0  0  -0.637169  0  2.129769  0  0  -0.361606  -0.589958  0  2.145837  0
O  O98  1  0.57962268  0.92411533  0.75621246  1  0  -0.668472  0  1.901832  0  0  -0.610116  0  2.140325  0  0  -0.637341  0  2.130132  0  0  -0.361711  -0.590139  0  2.146262  0
O  O99  1  0.07971201  0.07584199  0.24378176  1  0  -0.668532  0  1.901432  0  0  -0.610193  0  2.140011  0  0  -0.637416  0  2.129826  0  0  -0.361585  -0.590227  0  2.145953  0
O  O100  1  0.24989232  0.60184335  0.54503376  1  0  -0.526018  0  1.997976  0  0  -0.483389  0  2.226767  0  0  -0.503512  0  2.219277  0  0  -0.265106  -0.469715  0  2.232003  0
O  O101  1  0.74998831  0.39815199  0.45498261  1  0  -0.525931  0  1.997473  0  0  -0.483247  0  2.226051  0  0  -0.503422  0  2.218627  0  0  -0.264931  -0.469571  0  2.231285  0
O  O102  1  0.25048061  0.65214653  0.71917811  1  0  -0.551888  0  2.052024  0  0  -0.499942  0  2.265567  0  0  -0.520222  0  2.24946  0  0  -0.328026  -0.48555  0  2.276489  0
O  O103  1  0.75027968  0.34785296  0.28084120  1  0  -0.551909  0  2.05258  0  0  -0.499877  0  2.265947  0  0  -0.520158  0  2.249854  0  0  -0.327825  -0.48548  0  2.276863  0
