# generated using pymatgen
data_ZnH10C22NO8
_symmetry_space_group_name_H-M   'P 1'
_cell_length_a   14.29401886
_cell_length_b   15.33188065
_cell_length_c   16.09959951
_cell_angle_alpha   92.54752605
_cell_angle_beta   89.97985821
_cell_angle_gamma   90.01398790
_symmetry_Int_Tables_number   1
_chemical_formula_structural   ZnH10C22NO8
_chemical_formula_sum   'Zn2 H20 C44 N2 O16'
_cell_volume   3524.80737132
_cell_formula_units_Z   2
loop_
 _symmetry_equiv_pos_site_id
 _symmetry_equiv_pos_as_xyz
  1  'x, y, z'
loop_
 _atom_site_type_symbol
 _atom_site_label
 _atom_site_symmetry_multiplicity
 _atom_site_fract_x
 _atom_site_fract_y
 _atom_site_fract_z
 _atom_site_occupancy
 _atom_site_pbe_bader_charge
 _atom_site_pbe_bader_spin_density
 _atom_site_pbe_cm5_charge
 _atom_site_pbe_ddec_charge
 _atom_site_pbe_ddec_spin_density
 _atom_site_pbe_ddec_sum_bond_order
 _atom_site_pbe_magmom
Zn  Zn0  1  0.39775222  0.49970132  0.50018704  1  1.272435  0  0.671648  0.837458  0  2.370016  0
Zn  Zn1  1  0.60279677  0.50013428  0.50029699  1  1.288531  0  0.671739  0.834522  0  2.373842  0
H  H2  1  0.34839118  0.47240409  0.07626904  1  0.098711  0  0.117355  0.122055  0  0.973294  0
H  H3  1  0.07038885  0.57464064  0.61778043  1  0.14476  0  0.126054  0.137847  0  0.988825  0
H  H4  1  0.93029427  0.62119188  0.57539624  1  0.151257  0  0.126304  0.138277  0  0.987063  0
H  H5  1  0.07051965  0.42557139  0.38157213  1  0.153392  0  0.126114  0.137981  0  0.988561  0
H  H6  1  0.53952827  0.30899010  0.65327790  1  0.07969  0  0.101464  0.047769  0  0.979141  0
H  H7  1  0.53862735  0.69054190  0.34668396  1  0.076075  0  0.101312  0.047078  0  0.979092  0
H  H8  1  0.47307242  0.70715823  0.65712244  1  0.060888  0  0.100867  0.043429  0  0.973925  0
H  H9  1  0.47389273  0.29289794  0.34275275  1  0.058857  0  0.100573  0.042728  0  0.974052  0
H  H10  1  0.67498540  0.37775798  0.39366933  1  0.168351  0  0.114753  0.077653  0  1.021821  0
H  H11  1  0.32508592  0.60590352  0.62199926  1  0.120002  0  0.114379  0.072839  0  1.025156  0
H  H12  1  0.67518333  0.62231336  0.60654646  1  0.17091  0  0.114829  0.078217  0  1.021889  0
H  H13  1  0.64464854  0.52878641  0.92421443  1  0.089832  0  0.115771  0.11876  0  0.975936  0
H  H14  1  0.32501083  0.39316540  0.37818708  1  0.162009  0  0.114565  0.07332  0  1.02344  0
H  H15  1  0.34830459  0.47496259  0.92141795  1  0.078005  0  0.117144  0.120947  0  0.974314  0
H  H16  1  0.64488830  0.52573257  0.07894982  1  0.099953  0  0.115676  0.118415  0  0.976057  0
H  H17  1  0.55071286  0.06742070  0.62673880  1  0.129534  0  0.116534  0.121443  0  0.99222  0
H  H18  1  0.55054619  0.93216090  0.37280724  1  0.138505  0  0.11664  0.123567  0  0.98985  0
H  H19  1  0.45131879  0.94459853  0.62724492  1  0.104375  0  0.116462  0.120097  0  0.992265  0
H  H20  1  0.45144609  0.05549106  0.37237148  1  0.098319  0  0.116322  0.119867  0  0.992063  0
H  H21  1  0.93005086  0.37883309  0.42431886  1  0.142208  0  0.126321  0.138156  0  0.986974  0
C  C22  1  0.50354374  0.33049077  0.49846775  1  1.586841  0  0.218772  0.587983  0  4.2027  0
C  C23  1  0.20073257  0.54135258  0.56178877  1  0.482364  0  0.127267  0.183651  0  3.916284  0
C  C24  1  0.79987038  0.56335026  0.54208445  1  0.472157  0  0.127085  0.184299  0  3.914541  0
C  C25  1  0.20082264  0.45855820  0.43785088  1  0.4322  0  0.127444  0.187536  0  3.910042  0
C  C26  1  0.94860932  0.50005114  0.49978263  1  -0.019929  0  0.024677  0.115362  0  3.975128  0
C  C27  1  0.05193565  0.50004264  0.49970432  1  0.109835  0  0.0242  0.115958  0  3.979307  0
C  C28  1  0.49720221  0.49897793  0.33980594  1  1.670555  0  0.218233  0.661616  0  4.252365  0
C  C29  1  0.49690709  0.50127370  0.66061005  1  1.679936  0  0.217471  0.661073  0  4.252365  0
C  C30  1  0.41274054  0.48602141  0.95642721  1  0.053657  0  -0.067247  -0.106512  0  3.935098  0
C  C31  1  0.58043135  0.51465882  0.04395925  1  -0.005689  0  -0.068796  -0.107432  0  3.941384  0
C  C32  1  0.41273549  0.48473326  0.04244451  1  -0.052347  0  -0.067566  -0.107619  0  3.93364  0
C  C33  1  0.50332823  0.66937247  0.50164337  1  1.580719  0  0.219172  0.589389  0  4.201744  0
C  C34  1  0.58027835  0.51643153  0.95798954  1  -0.033735  0  -0.068766  -0.10864  0  3.94163  0
C  C35  1  0.49645625  0.50195700  0.91306121  1  0.074107  0  0.009486  0.128227  0  4.100723  0
C  C36  1  0.49663452  0.49895623  0.08732044  1  0.108136  0  0.009947  0.127634  0  4.10202  0
C  C37  1  0.49646652  0.50269906  0.82536570  1  -0.494415  0  -0.011749  -0.011275  0  4.068716  0
C  C38  1  0.49679144  0.49814573  0.17502947  1  -0.48078  0  -0.010553  -0.009176  0  4.066488  0
C  C39  1  0.49710545  0.49816874  0.25071621  1  0.157963  0  -0.048056  -0.200846  0  3.976632  0
C  C40  1  0.49663242  0.50256051  0.74966889  1  0.167206  0  -0.049085  -0.202192  0  3.979358  0
C  C41  1  0.52842210  0.09828068  0.57024498  1  -0.034177  0  -0.05703  -0.111515  0  3.879316  0
C  C42  1  0.52817142  0.90141998  0.42934561  1  -0.040239  0  -0.057021  -0.112586  0  3.878733  0
C  C43  1  0.47409344  0.90839241  0.57095188  1  -0.011665  0  -0.057966  -0.110507  0  3.879909  0
C  C44  1  0.50084036  0.04811602  0.49965118  1  -0.026693  0  0.001969  0.070189  0  4.00899  0
C  C45  1  0.47433039  0.09159487  0.42868313  1  -0.009174  0  -0.057804  -0.11091  0  3.879369  0
C  C46  1  0.52994471  0.18955685  0.57069834  1  -0.008815  0  -0.012729  0.000192  0  3.977141  0
C  C47  1  0.52948214  0.81015534  0.42904740  1  -0.011114  0  -0.013429  -0.000821  0  3.977628  0
C  C48  1  0.47493383  0.81723666  0.57224118  1  -0.012561  0  -0.013274  -0.002314  0  3.983009  0
C  C49  1  0.47535370  0.18276080  0.42756218  1  -0.011577  0  -0.013489  -0.001392  0  3.983312  0
C  C50  1  0.50316335  0.23255794  0.49894576  1  -0.058503  0  0.008252  -0.062222  0  3.888765  0
C  C51  1  0.50265297  0.76730524  0.50091277  1  -0.070604  0  0.008515  -0.061472  0  3.887639  0
C  C52  1  0.55750352  0.23833304  0.64901682  1  0.942431  0  0.10033  0.278616  0  3.949097  0
C  C53  1  0.55700647  0.76112961  0.35085186  1  0.95449  0  0.100163  0.279258  0  3.947198  0
C  C54  1  0.44997735  0.77607562  0.65134684  1  0.947679  0  0.099817  0.274495  0  3.955365  0
C  C55  1  0.50070778  0.95172367  0.49990979  1  0.067867  0  0.002149  0.069886  0  4.009768  0
C  C56  1  0.45031234  0.22413410  0.34859885  1  0.951263  0  0.0999  0.275417  0  3.956483  0
C  C57  1  0.74938798  0.36589667  0.40762148  1  0.942512  0  0.110558  0.243285  0  3.879995  0
C  C58  1  0.25042011  0.59109732  0.63168330  1  0.959994  0  0.111573  0.245829  0  3.882025  0
C  C59  1  0.74968845  0.63401397  0.59277069  1  0.934999  0  0.110043  0.242416  0  3.881297  0
C  C60  1  0.25067325  0.40893476  0.36797322  1  0.966999  0  0.110836  0.243336  0  3.881637  0
C  C61  1  0.89728659  0.43414752  0.45781926  1  -0.025858  0  -0.04887  -0.154445  0  3.844484  0
C  C62  1  0.10317261  0.54159327  0.56393561  1  -0.011928  0  -0.049719  -0.155911  0  3.850034  0
C  C63  1  0.89742549  0.56590406  0.54195290  1  -0.036978  0  -0.048661  -0.154202  0  3.844814  0
C  C64  1  0.10325487  0.45847731  0.43550587  1  -0.024158  0  -0.049527  -0.157097  0  3.848806  0
C  C65  1  0.79972577  0.43666857  0.45802388  1  0.468375  0  0.127174  0.184506  0  3.914708  0
N  N66  1  0.75063275  0.50001869  0.50011379  1  -1.208979  0  -0.285052  -0.249668  0  3.393582  0
N  N67  1  0.24998977  0.49983882  0.49990831  1  -1.19767  0  -0.285843  -0.250955  0  3.392969  0
O  O68  1  0.42658616  0.36710911  0.48112319  1  -1.167481  0  -0.311514  -0.555887  0  2.354701  0
O  O69  1  0.59631828  0.79527916  0.29310009  1  -1.067482  0  -0.266449  -0.352958  0  2.081007  0
O  O70  1  0.40848526  0.81459791  0.70839108  1  -1.066626  0  -0.260682  -0.343331  0  2.082026  0
O  O71  1  0.40822683  0.18592807  0.29173497  1  -1.069752  0  -0.260889  -0.344241  0  2.082172  0
O  O72  1  0.79089557  0.30048114  0.38196907  1  -1.04957  0  -0.244501  -0.317752  0  2.083093  0
O  O73  1  0.20814541  0.61494598  0.69453826  1  -1.051227  0  -0.239492  -0.31212  0  2.087959  0
O  O74  1  0.79138690  0.69916898  0.61883500  1  -1.045482  0  -0.244282  -0.317615  0  2.084358  0
O  O75  1  0.20887523  0.38615850  0.30456462  1  -1.050146  0  -0.239522  -0.31217  0  2.089174  0
O  O76  1  0.58087949  0.63169021  0.48509659  1  -1.155596  0  -0.307513  -0.547254  0  2.351364  0
O  O77  1  0.42648229  0.63247026  0.51891867  1  -1.165571  0  -0.311528  -0.557088  0  2.355465  0
O  O78  1  0.58084538  0.36851340  0.51526958  1  -1.157688  0  -0.307238  -0.547175  0  2.35238  0
O  O79  1  0.41996836  0.51757723  0.37655066  1  -1.145046  0  -0.31267  -0.548358  0  2.303376  0
O  O80  1  0.57400524  0.51972614  0.62510564  1  -1.154562  0  -0.314734  -0.557763  0  2.318519  0
O  O81  1  0.41992599  0.48184907  0.62373588  1  -1.145389  0  -0.314323  -0.550178  0  2.302091  0
O  O82  1  0.57435394  0.48094271  0.37527401  1  -1.154574  0  -0.314455  -0.557296  0  2.315879  0
O  O83  1  0.59642440  0.20385109  0.70674895  1  -1.065106  0  -0.265836  -0.351681  0  2.081829  0
