# generated using pymatgen
data_CaH8C12SO4
_symmetry_space_group_name_H-M   'P 1'
_cell_length_a   7.07065345
_cell_length_b   9.35327086
_cell_length_c   9.35327303
_cell_angle_alpha   95.55736078
_cell_angle_beta   90.00014431
_cell_angle_gamma   89.99976800
_symmetry_Int_Tables_number   1
_chemical_formula_structural   CaH8C12SO4
_chemical_formula_sum   'Ca2 H16 C24 S2 O8'
_cell_volume   615.65947565
_cell_formula_units_Z   2
loop_
 _symmetry_equiv_pos_site_id
 _symmetry_equiv_pos_as_xyz
  1  'x, y, z'
loop_
 _atom_site_type_symbol
 _atom_site_label
 _atom_site_symmetry_multiplicity
 _atom_site_fract_x
 _atom_site_fract_y
 _atom_site_fract_z
 _atom_site_occupancy
 _atom_site_hle17_bader_spin_density
 _atom_site_hle17_ddec_charge
 _atom_site_hle17_ddec_spin_density
 _atom_site_hle17_ddec_sum_bond_order
 _atom_site_hle17_magmom
 _atom_site_hse06_10hf_bader_spin_density
 _atom_site_hse06_10hf_ddec_charge
 _atom_site_hse06_10hf_ddec_spin_density
 _atom_site_hse06_10hf_ddec_sum_bond_order
 _atom_site_hse06_10hf_magmom
 _atom_site_hse06_bader_spin_density
 _atom_site_hse06_ddec_charge
 _atom_site_hse06_ddec_spin_density
 _atom_site_hse06_ddec_sum_bond_order
 _atom_site_hse06_magmom
 _atom_site_pbe_bader_spin_density
 _atom_site_pbe_cm5_charge
 _atom_site_pbe_ddec_charge
 _atom_site_pbe_ddec_spin_density
 _atom_site_pbe_ddec_sum_bond_order
 _atom_site_pbe_magmom
Ca  Ca0  1  0.49999998  0.49999982  0.49999912  1  0  1.528702  0  1.134892  0  0  1.39881  0  1.486474  0  0  1.441856  0  1.443951  0  0  0.889949  1.365099  0  1.520051  0
Ca  Ca1  1  0.00000093  0.50000054  0.49999979  1  0  1.528684  0  1.135047  0  0  1.398801  0  1.486593  0  0  1.441834  0  1.444086  0  0  0.889877  1.36508  0  1.520189  0
H  H2  1  0.55555939  0.62632669  0.80957929  1  0  0.106923  0  0.972923  0  0  0.11554  0  1.037447  0  0  0.119199  0  1.036251  0  0  0.10898  0.112705  0  1.038928  0
H  H3  1  0.05555855  0.37367134  0.19042163  1  0  0.106947  0  0.97298  0  0  0.115567  0  1.037493  0  0  0.119226  0  1.036298  0  0  0.109005  0.112733  0  1.038972  0
H  H4  1  0.44444298  0.80957800  0.62632647  1  0  0.106913  0  0.972912  0  0  0.115533  0  1.037432  0  0  0.119192  0  1.036237  0  0  0.108981  0.112699  0  1.038912  0
H  H5  1  0.94444042  0.19042428  0.37367349  1  0  0.106955  0  0.973  0  0  0.115567  0  1.037533  0  0  0.119221  0  1.036334  0  0  0.108994  0.112732  0  1.039012  0
H  H6  1  0.44444057  0.37367076  0.19042301  1  0  0.10691  0  0.97297  0  0  0.115526  0  1.037495  0  0  0.119186  0  1.036299  0  0  0.108988  0.112692  0  1.038976  0
H  H7  1  0.94444141  0.62632938  0.80957566  1  0  0.10692  0  0.972989  0  0  0.115562  0  1.037471  0  0  0.119222  0  1.036275  0  0  0.108999  0.112728  0  1.038951  0
H  H8  1  0.55555698  0.19042380  0.37366986  1  0  0.10692  0  0.972978  0  0  0.115565  0  1.037451  0  0  0.119225  0  1.036254  0  0  0.108994  0.112729  0  1.038934  0
H  H9  1  0.05556096  0.80957097  0.62633606  1  0  0.106948  0  0.973028  0  0  0.115612  0  1.037495  0  0  0.119266  0  1.036296  0  0  0.109026  0.112775  0  1.038978  0
H  H10  1  0.55537980  0.67999522  0.07417753  1  0  0.099733  0  0.939962  0  0  0.113686  0  0.993227  0  0  0.116627  0  0.991172  0  0  0.107907  0.111557  0  0.994838  0
H  H11  1  0.05538032  0.32000712  0.92582170  1  0  0.099479  0  0.939742  0  0  0.113495  0  0.992993  0  0  0.116433  0  0.990937  0  0  0.107823  0.11137  0  0.9946  0
H  H12  1  0.44462040  0.07417704  0.67999472  1  0  0.099675  0  0.939965  0  0  0.113624  0  0.993254  0  0  0.116558  0  0.991199  0  0  0.107892  0.111496  0  0.994864  0
H  H13  1  0.94461657  0.92582309  0.32000502  1  0  0.099493  0  0.939759  0  0  0.113508  0  0.993016  0  0  0.116443  0  0.990963  0  0  0.107825  0.111381  0  0.994624  0
H  H14  1  0.44461309  0.32000331  0.92582488  1  0  0.099717  0  0.939962  0  0  0.113682  0  0.993218  0  0  0.116618  0  0.991166  0  0  0.107895  0.111552  0  0.994831  0
H  H15  1  0.94461398  0.67999789  0.07417604  1  0  0.099461  0  0.9397  0  0  0.11348  0  0.99296  0  0  0.116415  0  0.990904  0  0  0.10781  0.111353  0  0.994569  0
H  H16  1  0.55538380  0.92582477  0.32000054  1  0  0.099735  0  0.939953  0  0  0.113694  0  0.993215  0  0  0.11663  0  0.991163  0  0  0.107905  0.111564  0  0.994828  0
H  H17  1  0.05538763  0.07417325  0.68000251  1  0  0.099488  0  0.939842  0  0  0.113516  0  0.993072  0  0  0.116455  0  0.991015  0  0  0.107823  0.111389  0  0.994683  0
C  C18  1  0.25000203  0.62263813  0.78917295  1  0  0.39714  0  3.873972  0  0  0.387631  0  4.128989  0  0  0.405632  0  4.141809  0  0  0.096408  0.374231  0  4.119942  0
C  C19  1  0.74999651  0.37736042  0.21082626  1  0  0.397084  0  3.874062  0  0  0.387574  0  4.129075  0  0  0.405571  0  4.141897  0  0  0.096385  0.374176  0  4.120023  0
C  C20  1  0.75000036  0.78917177  0.62263930  1  0  0.397156  0  3.874042  0  0  0.38765  0  4.129052  0  0  0.405651  0  4.141872  0  0  0.09643  0.37425  0  4.120002  0
C  C21  1  0.25000243  0.21082786  0.37735895  1  0  0.39709  0  3.874097  0  0  0.387615  0  4.129066  0  0  0.405613  0  4.141886  0  0  0.096403  0.374214  0  4.120015  0
C  C22  1  0.42193248  0.63991676  0.86740690  1  0  -0.209416  0  3.72299  0  0  -0.226388  0  3.975947  0  0  -0.236313  0  3.996791  0  0  -0.102227  -0.219163  0  3.962104  0
C  C23  1  0.92193951  0.36007593  0.13258988  1  0  -0.209338  0  3.722675  0  0  -0.226334  0  3.975671  0  0  -0.236258  0  3.996515  0  0  -0.102207  -0.219112  0  3.961828  0
C  C24  1  0.57806699  0.86740867  0.63991680  1  0  -0.209347  0  3.72293  0  0  -0.226325  0  3.975884  0  0  -0.236252  0  3.996728  0  0  -0.102215  -0.219101  0  3.96204  0
C  C25  1  0.07805811  0.13259258  0.36007594  1  0  -0.209289  0  3.72277  0  0  -0.226294  0  3.975767  0  0  -0.236208  0  3.996601  0  0  -0.102172  -0.219071  0  3.961921  0
C  C26  1  0.57806748  0.36007963  0.13259315  1  0  -0.209335  0  3.723095  0  0  -0.226307  0  3.976051  0  0  -0.23623  0  3.996894  0  0  -0.10222  -0.219083  0  3.962206  0
C  C27  1  0.07806044  0.63992583  0.86741179  1  0  -0.209276  0  3.722719  0  0  -0.22629  0  3.975702  0  0  -0.236213  0  3.996543  0  0  -0.102166  -0.219066  0  3.961857  0
C  C28  1  0.42193014  0.13259531  0.36007548  1  0  -0.209409  0  3.723156  0  0  -0.226402  0  3.976081  0  0  -0.236326  0  3.996923  0  0  -0.102252  -0.219177  0  3.962235  0
C  C29  1  0.92194044  0.86740916  0.63992894  1  0  -0.209366  0  3.722951  0  0  -0.22641  0  3.975939  0  0  -0.236326  0  3.996776  0  0  -0.102219  -0.219185  0  3.962093  0
C  C30  1  0.42235666  0.67051183  0.01526921  1  0  -0.03431  0  3.79244  0  0  -0.057554  0  4.039473  0  0  -0.053091  0  4.059781  0  0  -0.084783  -0.060888  0  4.025695  0
C  C31  1  0.92233704  0.32949163  0.98472548  1  0  -0.034005  0  3.792366  0  0  -0.05731  0  4.039427  0  0  -0.05284  0  4.059733  0  0  -0.084703  -0.060644  0  4.025649  0
C  C32  1  0.57764643  0.01526826  0.67050747  1  0  -0.034297  0  3.792392  0  0  -0.05756  0  4.039422  0  0  -0.053085  0  4.059718  0  0  -0.084802  -0.060893  0  4.025646  0
C  C33  1  0.07766120  0.98472867  0.32948803  1  0  -0.034082  0  3.792625  0  0  -0.057389  0  4.039699  0  0  -0.052917  0  4.060002  0  0  -0.084741  -0.060722  0  4.025915  0
C  C34  1  0.57764188  0.32949317  0.98473066  1  0  -0.03433  0  3.792589  0  0  -0.05759  0  4.039623  0  0  -0.05312  0  4.059926  0  0  -0.084775  -0.060922  0  4.025846  0
C  C35  1  0.07766150  0.67050800  0.01527277  1  0  -0.034032  0  3.792506  0  0  -0.057337  0  4.039587  0  0  -0.052862  0  4.059889  0  0  -0.084736  -0.060669  0  4.025804  0
C  C36  1  0.42235635  0.98473245  0.32949089  1  0  -0.03431  0  3.7925  0  0  -0.057568  0  4.039554  0  0  -0.053098  0  4.059856  0  0  -0.084764  -0.060901  0  4.025772  0
C  C37  1  0.92234300  0.01526987  0.67051331  1  0  -0.034111  0  3.79277  0  0  -0.05744  0  4.039843  0  0  -0.052971  0  4.060148  0  0  -0.084774  -0.060773  0  4.026058  0
C  C38  1  0.24999786  0.68452789  0.08973129  1  0  -0.181209  0  3.819647  0  0  -0.15978  0  4.08133  0  0  -0.171566  0  4.106804  0  0  -0.045476  -0.150746  0  4.063953  0
C  C39  1  0.74999927  0.31547388  0.91026931  1  0  -0.181145  0  3.819726  0  0  -0.1597  0  4.081381  0  0  -0.171484  0  4.106856  0  0  -0.045442  -0.150668  0  4.064007  0
C  C40  1  0.75000374  0.08972848  0.68452922  1  0  -0.181061  0  3.819553  0  0  -0.159566  0  4.081124  0  0  -0.171349  0  4.106596  0  0  -0.045386  -0.150533  0  4.063747  0
C  C41  1  0.24999764  0.91027006  0.31547212  1  0  -0.18113  0  3.819687  0  0  -0.159686  0  4.081344  0  0  -0.171473  0  4.106821  0  0  -0.045436  -0.150652  0  4.063962  0
S  S42  1  0.25002211  0.72424595  0.27575579  1  0  1.122135  0  5.212741  0  0  1.043599  0  5.703436  0  0  1.084073  0  5.691275  0  0  0.500601  1.013137  0  5.715028  0
S  S43  1  0.74997644  0.27575366  0.72424566  1  0  1.122041  0  5.212858  0  0  1.043487  0  5.703531  0  0  1.083959  0  5.691373  0  0  0.500554  1.013027  0  5.715133  0
O  O44  1  0.24999622  0.59115085  0.64761800  1  0  -0.801422  0  1.992221  0  0  -0.730642  0  2.248492  0  0  -0.759281  0  2.24059  0  0  -0.462209  -0.708151  0  2.254838  0
O  O45  1  0.75000374  0.40884770  0.35238121  1  0  -0.80142  0  1.992234  0  0  -0.730635  0  2.248489  0  0  -0.759272  0  2.240585  0  0  -0.462207  -0.708142  0  2.25483  0
O  O46  1  0.75000351  0.64761880  0.59115642  1  0  -0.801426  0  1.992295  0  0  -0.730636  0  2.248528  0  0  -0.759274  0  2.240627  0  0  -0.462207  -0.708143  0  2.254871  0
O  O47  1  0.24999645  0.35238297  0.40884419  1  0  -0.801427  0  1.992275  0  0  -0.730648  0  2.2485  0  0  -0.759284  0  2.240597  0  0  -0.462223  -0.708156  0  2.254843  0
O  O48  1  0.42697771  0.66856393  0.33143672  1  0  -0.665709  0  1.987988  0  0  -0.608925  0  2.255352  0  0  -0.63054  0  2.24256  0  0  -0.343708  -0.592812  0  2.265516  0
O  O49  1  0.92699378  0.33143949  0.66856012  1  0  -0.666214  0  1.987173  0  0  -0.609363  0  2.254428  0  0  -0.63099  0  2.241645  0  0  -0.343871  -0.593271  0  2.264629  0
O  O50  1  0.57302225  0.33143355  0.66856130  1  0  -0.665669  0  1.988053  0  0  -0.608919  0  2.255499  0  0  -0.630534  0  2.242709  0  0  -0.343687  -0.592796  0  2.265639  0
O  O51  1  0.07300618  0.66856226  0.33144156  1  0  -0.666168  0  1.987146  0  0  -0.609324  0  2.254409  0  0  -0.630945  0  2.241622  0  0  -0.343845  -0.593225  0  2.264606  0
