# generated using pymatgen
data_ZnH17C12Br(NO)2
_symmetry_space_group_name_H-M   'P 1'
_cell_length_a   7.30873001
_cell_length_b   13.46969182
_cell_length_c   16.09644087
_cell_angle_alpha   89.99986482
_cell_angle_beta   90.00008475
_cell_angle_gamma   90.00018352
_symmetry_Int_Tables_number   1
_chemical_formula_structural   ZnH17C12Br(NO)2
_chemical_formula_sum   'Zn4 H68 C48 Br4 N8 O8'
_cell_volume   1584.63570435
_cell_formula_units_Z   4
loop_
 _symmetry_equiv_pos_site_id
 _symmetry_equiv_pos_as_xyz
  1  'x, y, z'
loop_
 _atom_site_type_symbol
 _atom_site_label
 _atom_site_symmetry_multiplicity
 _atom_site_fract_x
 _atom_site_fract_y
 _atom_site_fract_z
 _atom_site_occupancy
 _atom_site_pbe_bader_charge
 _atom_site_pbe_bader_spin_density
 _atom_site_pbe_cm5_charge
 _atom_site_pbe_ddec_charge
 _atom_site_pbe_ddec_spin_density
 _atom_site_pbe_ddec_sum_bond_order
 _atom_site_pbe_magmom
Zn  Zn0  1  0.27684456  0.69809331  0.60622907  1  1.195804  0  0.625361  0.735866  0  2.378438  0
Zn  Zn1  1  0.22316021  0.30190673  0.10622761  1  1.195592  0  0.625385  0.735907  0  2.378457  0
Zn  Zn2  1  0.77684384  0.80190860  0.39377223  1  1.19578  0  0.62539  0.7359  0  2.378432  0
Zn  Zn3  1  0.72315911  0.19809151  0.89377279  1  1.19569  0  0.625357  0.735863  0  2.378427  0
H  H4  1  0.88140907  0.62557321  0.63357017  1  0.117487  0  0.109423  0.087049  0  1.040936  0
H  H5  1  0.61859306  0.37442763  0.13357036  1  0.117491  0  0.109427  0.087074  0  1.040932  0
H  H6  1  0.38140595  0.87442665  0.36643244  1  0.117427  0  0.109475  0.087112  0  1.040772  0
H  H7  1  0.11859555  0.12557192  0.86643058  1  0.117454  0  0.109486  0.08713  0  1.040766  0
H  H8  1  0.73075739  0.47849465  0.69523918  1  0.067341  0  0.106135  0.114157  0  1.009833  0
H  H9  1  0.76924220  0.52150750  0.19524042  1  0.067352  0  0.106148  0.114192  0  1.009804  0
H  H10  1  0.23075747  0.02150212  0.30475873  1  0.067313  0  0.106111  0.114138  0  1.009884  0
H  H11  1  0.26924110  0.97849365  0.80476088  1  0.067348  0  0.10614  0.114179  0  1.009828  0
H  H12  1  0.26925971  0.36096735  0.74879694  1  0.123992  0  0.088261  0.112806  0  1.072683  0
H  H13  1  0.23073731  0.63903155  0.24879544  1  0.124122  0  0.088241  0.112795  0  1.072709  0
H  H14  1  0.76925621  0.13903245  0.25120348  1  0.124022  0  0.088261  0.11282  0  1.072604  0
H  H15  1  0.73073808  0.86096880  0.75120459  1  0.124141  0  0.08824  0.112803  0  1.072635  0
H  H16  1  0.39843300  0.51808028  0.68780757  1  0.090975  0  0.104016  0.075071  0  1.040068  0
H  H17  1  0.10156930  0.48191879  0.18780443  1  0.090991  0  0.104005  0.075048  0  1.040003  0
H  H18  1  0.89842898  0.98191887  0.31219071  1  0.09104  0  0.103972  0.075018  0  1.040063  0
H  H19  1  0.60156688  0.01808295  0.81219216  1  0.091007  0  0.103982  0.075031  0  1.040013  0
H  H20  1  0.81802234  0.27508617  0.72570888  1  0.094142  0  0.109878  0.102233  0  0.975752  0
H  H21  1  0.68196640  0.72491664  0.22571090  1  0.093894  0  0.109877  0.102227  0  0.975731  0
H  H22  1  0.31803036  0.22491521  0.27428785  1  0.09418  0  0.109877  0.102251  0  0.975768  0
H  H23  1  0.18197084  0.77508436  0.77429158  1  0.094128  0  0.109886  0.102234  0  0.975749  0
H  H24  1  0.02006025  0.26620916  0.78682523  1  0.089062  0  0.107369  0.096631  0  0.998665  0
H  H25  1  0.47993279  0.73378740  0.28682992  1  0.089585  0  0.107402  0.096626  0  0.998581  0
H  H26  1  0.52006129  0.23378501  0.21317005  1  0.089162  0  0.10738  0.096646  0  0.998621  0
H  H27  1  0.97993562  0.76621040  0.71317400  1  0.089041  0  0.10739  0.096647  0  0.998612  0
H  H28  1  0.98888726  0.45058529  0.87915014  1  0.067289  0  0.11013  0.078311  0  0.987692  0
H  H29  1  0.51111565  0.54941337  0.37915239  1  0.067527  0  0.110158  0.078342  0  0.987666  0
H  H30  1  0.48888144  0.04941267  0.12084733  1  0.067539  0  0.110146  0.078315  0  0.987739  0
H  H31  1  0.01111380  0.95058733  0.62085122  1  0.067477  0  0.110101  0.07826  0  0.987705  0
H  H32  1  0.81296485  0.48487295  0.01413273  1  0.059023  0  0.09559  0.102466  0  0.988252  0
H  H33  1  0.68704099  0.51512747  0.51413450  1  0.059019  0  0.095565  0.102445  0  0.988277  0
H  H34  1  0.31295887  0.01512767  0.98586399  1  0.059003  0  0.095566  0.10243  0  0.988297  0
H  H35  1  0.18704165  0.98487205  0.48586799  1  0.059073  0  0.095549  0.102383  0  0.988412  0
H  H36  1  0.63618990  0.40809315  0.97530113  1  0.076182  0  0.094763  0.104403  0  1.006762  0
H  H37  1  0.86381469  0.59190672  0.47530292  1  0.076173  0  0.094779  0.104402  0  1.006738  0
H  H38  1  0.13618403  0.09190716  0.02469548  1  0.076145  0  0.094763  0.10439  0  1.006774  0
H  H39  1  0.36381228  0.90809163  0.52470031  1  0.076175  0  0.094761  0.104391  0  1.006747  0
H  H40  1  0.62221224  0.52656003  0.84786725  1  -0.024519  0  0.080945  0.036809  0  0.988123  0
H  H41  1  0.87779194  0.47344095  0.34786679  1  -0.024473  0  0.08094  0.036857  0  0.988058  0
H  H42  1  0.12220903  0.97344236  0.15213209  1  -0.024461  0  0.080927  0.036809  0  0.988074  0
H  H43  1  0.37779042  0.02655756  0.65213433  1  -0.02451  0  0.080986  0.036941  0  0.988105  0
H  H44  1  0.39388823  0.52989604  0.96382820  1  0.045247  0  0.085061  0.125028  0  1.006071  0
H  H45  1  0.10611906  0.47010374  0.46382881  1  0.045195  0  0.085064  0.125058  0  1.006087  0
H  H46  1  0.89388051  0.97010533  0.03617131  1  0.045169  0  0.085057  0.125044  0  1.006089  0
H  H47  1  0.60611582  0.02989504  0.53617399  1  0.04531  0  0.085076  0.125083  0  1.006048  0
H  H48  1  0.43612020  0.65054552  0.92219032  1  0.031296  0  0.080354  0.109791  0  1.018568  0
H  H49  1  0.06388421  0.34945661  0.42219114  1  0.031463  0  0.080355  0.109794  0  1.0186  0
H  H50  1  0.93611054  0.84945815  0.07780985  1  0.031511  0  0.080381  0.109798  0  1.018586  0
H  H51  1  0.56388456  0.15054136  0.57780976  1  0.031317  0  0.080367  0.109801  0  1.018606  0
H  H52  1  0.53467613  0.61522090  0.01882858  1  0.030855  0  0.078685  0.107673  0  1.017641  0
H  H53  1  0.96532699  0.38477803  0.51882955  1  0.030834  0  0.078672  0.107653  0  1.01766  0
H  H54  1  0.03466684  0.88477985  0.98117069  1  0.030863  0  0.078691  0.107663  0  1.017682  0
H  H55  1  0.46532819  0.11521840  0.48117225  1  0.030904  0  0.078698  0.107657  0  1.017722  0
H  H56  1  0.85770790  0.65842278  0.96089156  1  0.001862  0  0.082631  0.113231  0  1.004455  0
H  H57  1  0.64230075  0.34157640  0.46089307  1  0.001822  0  0.082632  0.113243  0  1.004444  0
H  H58  1  0.35769396  0.84157630  0.03910607  1  0.001816  0  0.082613  0.113222  0  1.004468  0
H  H59  1  0.14229828  0.15842096  0.53910789  1  0.001855  0  0.08265  0.113277  0  1.004435  0
H  H60  1  0.75112435  0.69496337  0.86587545  1  0.04364  0  0.076115  0.116996  0  1.034909  0
H  H61  1  0.74888672  0.30503681  0.36587835  1  0.043882  0  0.076123  0.117001  0  1.034867  0
H  H62  1  0.25110777  0.80503775  0.13412086  1  0.043863  0  0.076172  0.117044  0  1.034827  0
H  H63  1  0.24888477  0.19496221  0.63412392  1  0.043889  0  0.07611  0.11698  0  1.034891  0
H  H64  1  0.93036180  0.60651607  0.86477287  1  0.010262  0  0.077932  0.105985  0  1.027126  0
H  H65  1  0.56964517  0.39348115  0.36477423  1  0.010356  0  0.0779  0.105956  0  1.027204  0
H  H66  1  0.43035122  0.89348091  0.13522543  1  0.0104  0  0.077886  0.105911  0  1.027227  0
H  H67  1  0.06964544  0.10651534  0.63522792  1  0.010301  0  0.077919  0.105987  0  1.027114  0
H  H68  1  0.67602821  0.37048304  0.82551155  1  0.422838  0  0.29437  0.245453  0  0.964054  0
H  H69  1  0.82397179  0.62951800  0.32551137  1  0.422836  0  0.294359  0.245486  0  0.964085  0
H  H70  1  0.17602440  0.12951735  0.17448757  1  0.4228  0  0.294372  0.245454  0  0.964086  0
H  H71  1  0.32396964  0.87048176  0.67448997  1  0.422848  0  0.294352  0.245482  0  0.964073  0
C  C72  1  0.96283621  0.56556445  0.65983880  1  0.520154  0  0.051848  0.103027  0  3.927985  0
C  C73  1  0.53716600  0.43443557  0.15983944  1  0.520184  0  0.051821  0.102922  0  3.927947  0
C  C74  1  0.46283200  0.93443333  0.34016138  1  0.52006  0  0.051749  0.102882  0  3.927964  0
C  C75  1  0.03716668  0.06556606  0.84016145  1  0.520047  0  0.051752  0.102877  0  3.927923  0
C  C76  1  0.87982981  0.48212812  0.69393521  1  -0.015855  0  -0.081306  -0.175389  0  3.938225  0
C  C77  1  0.62017114  0.51787329  0.19393822  1  -0.015853  0  -0.081309  -0.175367  0  3.938164  0
C  C78  1  0.37982576  0.01786891  0.30606342  1  -0.015792  0  -0.081277  -0.175384  0  3.938273  0
C  C79  1  0.12016870  0.98212983  0.80606484  1  -0.015785  0  -0.081287  -0.175392  0  3.93821  0
C  C80  1  0.98870765  0.40642117  0.72698363  1  -0.049597  0  0.010141  0.139995  0  3.945249  0
C  C81  1  0.51129341  0.59357867  0.22698641  1  -0.049846  0  0.010179  0.139979  0  3.945225  0
C  C82  1  0.48870668  0.09357531  0.27301322  1  -0.049801  0  0.010208  0.14011  0  3.94513  0
C  C83  1  0.01129041  0.90642204  0.77301595  1  -0.049574  0  0.01017  0.140048  0  3.945144  0
C  C84  1  0.17871059  0.41808443  0.72357575  1  -0.041687  0  -0.085501  -0.1759  0  3.929758  0
C  C85  1  0.32128771  0.58191603  0.22357504  1  -0.041836  0  -0.085526  -0.175891  0  3.929747  0
C  C86  1  0.67870820  0.08191373  0.27642399  1  -0.041694  0  -0.085623  -0.176032  0  3.92986  0
C  C87  1  0.82128754  0.91808522  0.77642629  1  -0.041835  0  -0.08552  -0.175921  0  3.929753  0
C  C88  1  0.25154013  0.50397886  0.68946877  1  0.489058  0  0.0484  0.106263  0  3.939498  0
C  C89  1  0.24846217  0.49602095  0.18946943  1  0.489047  0  0.048418  0.106262  0  3.93946  0
C  C90  1  0.75153482  0.99602078  0.31053065  1  0.489051  0  0.048507  0.106323  0  3.939446  0
C  C91  1  0.74846239  0.00398030  0.81053160  1  0.489049  0  0.048418  0.106261  0  3.939385  0
C  C92  1  0.90828171  0.31606262  0.76840340  1  0.227079  0  -0.067287  -0.09312  0  3.897915  0
C  C93  1  0.59171811  0.68393709  0.26840731  1  0.227067  0  -0.067316  -0.093074  0  3.89788  0
C  C94  1  0.40828252  0.18393445  0.23159401  1  0.227234  0  -0.067245  -0.093083  0  3.897904  0
C  C95  1  0.09171445  0.81606301  0.73159760  1  0.22709  0  -0.067335  -0.093166  0  3.897973  0
C  C96  1  0.88870012  0.39943700  0.90705570  1  0.27277  0  -0.002499  6.9e-05  0  3.84907  0
C  C97  1  0.61130699  0.60056084  0.40705544  1  0.27253  0  -0.002458  0.000118  0  3.849093  0
C  C98  1  0.38869178  0.10056227  0.09294605  1  0.272571  0  -0.002416  0.000185  0  3.849131  0
C  C99  1  0.11130201  0.89943781  0.59294637  1  0.272568  0  -0.002398  0.00028  0  3.848954  0
C  C100  1  0.74659908  0.45924293  0.95661251  1  -0.049166  0  -0.161422  -0.229128  0  3.855947  0
C  C101  1  0.75340271  0.54075700  0.45661371  1  -0.049194  0  -0.161455  -0.229166  0  3.855831  0
C  C102  1  0.24659707  0.04075832  0.04338541  1  -0.049182  0  -0.161412  -0.229101  0  3.855816  0
C  C103  1  0.25340203  0.95924264  0.54338882  1  -0.049188  0  -0.161396  -0.229031  0  3.855975  0
C  C104  1  0.66727496  0.54958575  0.91060968  1  0.081677  0  -0.094474  0.127355  0  3.870775  0
C  C105  1  0.83272805  0.45041506  0.41061048  1  0.081276  0  -0.094484  0.12737  0  3.870674  0
C  C106  1  0.16727141  0.95041523  0.08938906  1  0.081287  0  -0.094494  0.127378  0  3.870634  0
C  C107  1  0.33272921  0.04958412  0.58939061  1  0.081275  0  -0.09449  0.127229  0  3.8709  0
C  C108  1  0.49783668  0.58831322  0.95638119  1  -0.117307  0  -0.247031  -0.389716  0  3.923271  0
C  C109  1  0.00216922  0.41168807  0.45638309  1  -0.117106  0  -0.247013  -0.389741  0  3.923263  0
C  C110  1  0.99783138  0.91168833  0.04361777  1  -0.117182  0  -0.247045  -0.389751  0  3.923337  0
C  C111  1  0.50216635  0.08831053  0.54361964  1  -0.117111  0  -0.247078  -0.389767  0  3.923419  0
C  C112  1  0.80996892  0.63188992  0.89987498  1  -0.078211  0  -0.25043  -0.393492  0  3.930741  0
C  C113  1  0.69003816  0.36810943  0.39987647  1  -0.078443  0  -0.250395  -0.3935  0  3.930841  0
C  C114  1  0.30995944  0.86810833  0.10012262  1  -0.078445  0  -0.250418  -0.393467  0  3.930781  0
C  C115  1  0.19003436  0.13189024  0.60012515  1  -0.078431  0  -0.250441  -0.393546  0  3.930733  0
C  C116  1  0.99447078  0.33125059  0.96604462  1  1.560288  0  0.211044  0.574007  0  4.147271  0
C  C117  1  0.50553925  0.66875005  0.46604166  1  1.559625  0  0.210961  0.573927  0  4.147024  0
C  C118  1  0.49446539  0.16875480  0.03395968  1  1.56009  0  0.210949  0.57391  0  4.147044  0
C  C119  1  0.00553642  0.83125138  0.53395883  1  1.559625  0  0.210946  0.57384  0  4.147071  0
Br  Br120  1  0.55304867  0.70391166  0.70335249  1  -0.662412  0  -0.301946  -0.555483  0  1.142318  0
Br  Br121  1  0.94696052  0.29608749  0.20335244  1  -0.662379  0  -0.301939  -0.555489  0  1.142315  0
Br  Br122  1  0.05304624  0.79608466  0.29664928  1  -0.662387  0  -0.301938  -0.555475  0  1.142322  0
Br  Br123  1  0.44696051  0.20390743  0.79664563  1  -0.662393  0  -0.301945  -0.555488  0  1.142359  0
N  N124  1  0.14580100  0.57693816  0.65851275  1  -1.275615  0  -0.329038  -0.22134  0  3.553607  0
N  N125  1  0.35419847  0.42306396  0.15851176  1  -1.27558  0  -0.329002  -0.221284  0  3.553605  0
N  N126  1  0.64579672  0.92306203  0.34148722  1  -1.275615  0  -0.329023  -0.22126  0  3.553591  0
N  N127  1  0.85420059  0.07693896  0.84148872  1  -1.27565  0  -0.329011  -0.221253  0  3.553492  0
N  N128  1  0.79722567  0.33886324  0.84309252  1  -1.078623  0  -0.477453  -0.341173  0  3.544845  0
N  N129  1  0.70277576  0.66113701  0.34309344  1  -1.07868  0  -0.477464  -0.341257  0  3.545016  0
N  N130  1  0.29722063  0.16113587  0.15690730  1  -1.0787  0  -0.477537  -0.341305  0  3.545033  0
N  N131  1  0.20277336  0.83886255  0.65690905  1  -1.078635  0  -0.477451  -0.341244  0  3.544923  0
O  O132  1  0.11094379  0.37527444  0.01190168  1  -1.169042  0  -0.322369  -0.521696  0  2.350424  0
O  O133  1  0.38906478  0.62472067  0.51190398  1  -1.168918  0  -0.322415  -0.5218  0  2.349945  0
O  O134  1  0.61093162  0.12472138  0.98809740  1  -1.169261  0  -0.322414  -0.521813  0  2.349957  0
O  O135  1  0.88906617  0.87527847  0.48809553  1  -1.168943  0  -0.322437  -0.52179  0  2.350059  0
O  O136  1  0.95847794  0.23944074  0.96798178  1  -1.15615  0  -0.307685  -0.524228  0  2.284715  0
O  O137  1  0.54151157  0.76055842  0.46797493  1  -1.155678  0  -0.307618  -0.524117  0  2.284824  0
O  O138  1  0.45848950  0.26055865  0.03202499  1  -1.15569  0  -0.307615  -0.524085  0  2.284832  0
O  O139  1  0.04151366  0.73943937  0.53202186  1  -1.15568  0  -0.307577  -0.524072  0  2.284689  0
