# generated using pymatgen
data_ZnH9C16NO5
_symmetry_space_group_name_H-M   'P 1'
_cell_length_a   8.98899782
_cell_length_b   16.50414060
_cell_length_c   17.95635753
_cell_angle_alpha   89.13211984
_cell_angle_beta   89.20319165
_cell_angle_gamma   79.96455214
_symmetry_Int_Tables_number   1
_chemical_formula_structural   ZnH9C16NO5
_chemical_formula_sum   'Zn2 H18 C32 N2 O10'
_cell_volume   2622.69728889
_cell_formula_units_Z   2
loop_
 _symmetry_equiv_pos_site_id
 _symmetry_equiv_pos_as_xyz
  1  'x, y, z'
loop_
 _atom_site_type_symbol
 _atom_site_label
 _atom_site_symmetry_multiplicity
 _atom_site_fract_x
 _atom_site_fract_y
 _atom_site_fract_z
 _atom_site_occupancy
 _atom_site_pbe_bader_charge
 _atom_site_pbe_bader_spin_density
 _atom_site_pbe_cm5_charge
 _atom_site_pbe_ddec_charge
 _atom_site_pbe_ddec_spin_density
 _atom_site_pbe_ddec_sum_bond_order
 _atom_site_pbe_magmom
Zn  Zn0  1  0.48841148  0.58479283  0.49865091  1  1.280267  0  0.660862  0.809298  0  2.444663  0
Zn  Zn1  1  0.51160211  0.41520804  0.50135450  1  1.278112  0  0.660954  0.809496  0  2.444385  0
H  H2  1  0.02732282  0.40529988  0.49707493  1  0.105716  0  0.106446  0.124469  0  0.994489  0
H  H3  1  0.97268399  0.59471278  0.50291426  1  0.105551  0  0.106442  0.124494  0  0.994583  0
H  H4  1  0.50093478  0.62910006  0.87653284  1  0.07973  0  0.106247  0.110727  0  0.986092  0
H  H5  1  0.49952288  0.37084631  0.12346398  1  0.079187  0  0.105958  0.110193  0  0.986386  0
H  H6  1  0.49915608  0.62997691  0.73681653  1  0.079992  0  0.100244  0.107346  0  1.011511  0
H  H7  1  0.50135636  0.36995386  0.26318633  1  0.080334  0  0.100093  0.107504  0  1.010808  0
H  H8  1  0.50007960  0.36997211  0.73950459  1  0.068103  0  0.100634  0.115066  0  1.021642  0
H  H9  1  0.49988611  0.63001416  0.26050782  1  0.068433  0  0.100572  0.115136  0  1.02167  0
H  H10  1  0.67522323  0.84850052  0.41573098  1  0.093642  0  0.118487  0.12777  0  0.976968  0
H  H11  1  0.32483821  0.15148976  0.58426653  1  0.093679  0  0.118514  0.127851  0  0.976893  0
H  H12  1  0.66222233  0.69723061  0.41899108  1  0.142828  0  0.133402  0.114336  0  0.958719  0
H  H13  1  0.33781473  0.30276282  0.58101040  1  0.143501  0  0.1335  0.114473  0  0.958787  0
H  H14  1  0.32918191  0.72845058  0.58211578  1  0.122561  0  0.13456  0.111335  0  0.961453  0
H  H15  1  0.67082545  0.27156393  0.41787283  1  0.122235  0  0.134515  0.111418  0  0.961437  0
H  H16  1  0.32661199  0.88114996  0.58684198  1  0.095782  0  0.118294  0.127527  0  0.97825  0
H  H17  1  0.67342290  0.11886200  0.41314265  1  0.095199  0  0.118185  0.127403  0  0.978143  0
H  H18  1  0.49809720  0.30997783  0.85459516  1  0.597252  0  0.336509  0.361691  0  0.876978  0
H  H19  1  0.50188788  0.69001754  0.14542490  1  0.597227  0  0.336512  0.361639  0  0.877022  0
C  C20  1  0.50225917  0.50056157  0.35325488  1  1.498451  0  0.212406  0.592329  0  4.160909  0
C  C21  1  0.49785403  0.49940815  0.64675819  1  1.498783  0  0.212345  0.592356  0  4.161044  0
C  C22  1  0.50008225  0.49929925  0.96601416  1  -0.314896  0  -0.042927  -0.082728  0  4.120116  0
C  C23  1  0.50006626  0.50069676  0.03399854  1  -0.087784  0  -0.043301  -0.082643  0  4.120413  0
C  C24  1  0.59669351  0.82435322  0.45315452  1  -0.002076  0  -0.070087  -0.171496  0  3.911451  0
C  C25  1  0.40335472  0.17564388  0.54684187  1  -0.001504  0  -0.070025  -0.171775  0  3.911851  0
C  C26  1  0.58987447  0.74095954  0.45453383  1  0.473784  0  0.064316  0.102222  0  3.919212  0
C  C27  1  0.41015366  0.25903762  0.54546709  1  0.473267  0  0.064135  0.102063  0  3.919232  0
C  C28  1  0.40278992  0.75845904  0.54630794  1  0.523048  0  0.066078  0.107912  0  3.91969  0
C  C29  1  0.59721985  0.24155114  0.45368404  1  0.523109  0  0.065938  0.107519  0  3.920143  0
C  C30  1  0.40205525  0.84254782  0.54869321  1  -0.029612  0  -0.070915  -0.172594  0  3.912096  0
C  C31  1  0.59797128  0.15745862  0.45129595  1  -0.029234  0  -0.070744  -0.172491  0  3.911861  0
C  C32  1  0.50009594  0.87732939  0.50079216  1  0.113157  0  0.021608  0.175946  0  4.108398  0
C  C33  1  0.49994768  0.12267206  0.49919864  1  0.112142  0  0.021554  0.176378  0  4.108768  0
C  C34  1  0.50063715  0.96299767  0.50032884  1  -0.078742  0  -0.02894  -0.09152  0  4.083964  0
C  C35  1  0.49941725  0.03700498  0.49965968  1  -0.320556  0  -0.028877  -0.092006  0  4.084294  0
C  C36  1  0.79619034  0.47729321  0.49838150  1  1.54886  0  0.208971  0.631728  0  4.171685  0
C  C37  1  0.20381978  0.52271942  0.50161101  1  1.549574  0  0.208949  0.632043  0  4.171313  0
C  C38  1  0.96377281  0.46784532  0.49867382  1  -0.097153  0  -0.082608  -0.169198  0  3.886561  0
C  C39  1  0.03623493  0.53216795  0.50131591  1  0.023202  0  -0.0828  -0.169582  0  3.886543  0
C  C40  1  0.50000787  0.57269718  0.84591075  1  -0.093796  0  -0.084343  -0.113187  0  3.984423  0
C  C41  1  0.50033225  0.42726257  0.15408143  1  -0.093332  0  -0.083801  -0.112076  0  3.984292  0
C  C42  1  0.49896655  0.57334915  0.76864989  1  0.005552  0  -0.100217  -0.127248  0  4.031487  0
C  C43  1  0.50139899  0.42660371  0.23134782  1  0.006505  0  -0.100492  -0.12795  0  4.030669  0
C  C44  1  0.49859012  0.49998960  0.73022043  1  0.07693  0  -0.017919  0.002083  0  3.985309  0
C  C45  1  0.50160219  0.49998354  0.26978672  1  0.076053  0  -0.017692  0.002198  0  3.985304  0
C  C46  1  0.49933158  0.42658242  0.77034170  1  0.075375  0  -0.110325  -0.256934  0  4.01564  0
C  C47  1  0.50073777  0.57340348  0.22966584  1  0.074604  0  -0.110241  -0.256971  0  4.015654  0
C  C48  1  0.49941542  0.42570519  0.84788132  1  0.381796  0  0.084641  0.271116  0  4.056322  0
C  C49  1  0.50066930  0.57427755  0.15213120  1  0.382116  0  0.084843  0.271234  0  4.056246  0
C  C50  1  0.49986465  0.49934815  0.88750596  1  0.169262  0  -0.007621  0.039632  0  4.087898  0
C  C51  1  0.50032783  0.50062806  0.11250115  1  0.170052  0  -0.007651  0.039389  0  4.088693  0
N  N52  1  0.49406234  0.70885960  0.49980066  1  -1.201754  0  -0.310743  -0.183789  0  3.500957  0
N  N53  1  0.50595691  0.29114500  0.50019356  1  -1.201422  0  -0.310683  -0.18354  0  3.50105  0
O  O54  1  0.49196598  0.57035910  0.38441518  1  -1.16228  0  -0.323908  -0.553161  0  2.311342  0
O  O55  1  0.50803677  0.42961906  0.61559270  1  -1.162516  0  -0.323923  -0.553314  0  2.311225  0
O  O56  1  0.51288779  0.43123934  0.38687466  1  -1.167703  0  -0.320204  -0.553192  0  2.3232  0
O  O57  1  0.48726819  0.56872533  0.61313215  1  -1.167555  0  -0.320106  -0.553138  0  2.323566  0
O  O58  1  0.71992053  0.54997855  0.49717482  1  -1.170889  0  -0.32075  -0.558632  0  2.323299  0
O  O59  1  0.28008988  0.45003424  0.50278873  1  -1.170772  0  -0.320855  -0.558828  0  2.323133  0
O  O60  1  0.74207253  0.41062576  0.49969646  1  -1.148943  0  -0.326133  -0.552082  0  2.263623  0
O  O61  1  0.25794230  0.58938484  0.50032835  1  -1.149563  0  -0.326018  -0.552126  0  2.263781  0
O  O62  1  0.49919743  0.35503264  0.88886837  1  -1.115963  0  -0.35591  -0.446591  0  2.259799  0
O  O63  1  0.50077578  0.64496155  0.11115119  1  -1.116911  0  -0.355955  -0.446529  0  2.25999  0
