# generated using pymatgen
data_ZnH8C15NO6F
_symmetry_space_group_name_H-M   'P 1'
_cell_length_a   9.55783598
_cell_length_b   10.86900761
_cell_length_c   16.12937672
_cell_angle_alpha   89.66354393
_cell_angle_beta   89.40934557
_cell_angle_gamma   88.92735901
_symmetry_Int_Tables_number   1
_chemical_formula_structural   ZnH8C15NO6F
_chemical_formula_sum   'Zn2 H16 C30 N2 O12 F2'
_cell_volume   1675.17760032
_cell_formula_units_Z   2
loop_
 _symmetry_equiv_pos_site_id
 _symmetry_equiv_pos_as_xyz
  1  'x, y, z'
loop_
 _atom_site_type_symbol
 _atom_site_label
 _atom_site_symmetry_multiplicity
 _atom_site_fract_x
 _atom_site_fract_y
 _atom_site_fract_z
 _atom_site_occupancy
 _atom_site_pbe_bader_charge
 _atom_site_pbe_bader_spin_density
 _atom_site_pbe_cm5_charge
 _atom_site_pbe_ddec_charge
 _atom_site_pbe_ddec_spin_density
 _atom_site_pbe_ddec_sum_bond_order
 _atom_site_pbe_magmom
Zn  Zn0  1  0.64708333  0.50382294  0.49148584  1  1.278899  0  0.667923  0.823436  0  2.40466  0
Zn  Zn1  1  0.35289882  0.49618040  0.50850867  1  1.279844  0  0.667985  0.823416  0  2.404042  0
H  H2  1  0.66479454  0.65821713  0.95415618  1  0.081887  0  0.104819  0.108055  0  0.98627  0
H  H3  1  0.33526621  0.34177754  0.04583875  1  0.080742  0  0.104761  0.107818  0  0.986632  0
H  H4  1  0.27178566  0.53813638  0.93465583  1  0.106857  0  0.105457  0.109018  0  0.983286  0
H  H5  1  0.72827410  0.46185461  0.06533910  1  0.106261  0  0.105358  0.108816  0  0.983273  0
H  H6  1  0.38880590  0.09655625  0.62149851  1  0.099213  0  0.111415  0.122083  0  0.970274  0
H  H7  1  0.61115313  0.90344902  0.37850412  1  0.098728  0  0.111216  0.121802  0  0.970495  0
H  H8  1  0.75302602  0.04361082  0.49970097  1  0.05736  0  0.102502  0.107099  0  0.988106  0
H  H9  1  0.24692252  0.95639542  0.50030231  1  0.057228  0  0.102406  0.10699  0  0.988293  0
H  H10  1  0.87620222  0.53409305  0.63060714  1  0.145368  0  0.126882  0.131835  0  0.973593  0
H  H11  1  0.12378101  0.46590382  0.36939420  1  0.145483  0  0.126876  0.131738  0  0.973585  0
H  H12  1  0.10423802  0.68044866  0.56083750  1  0.133604  0  0.127297  0.127848  0  0.964036  0
H  H13  1  0.89574628  0.31954729  0.43916384  1  0.133405  0  0.12723  0.127814  0  0.964085  0
H  H14  1  0.38030358  0.77831308  0.00664889  1  0.580136  0  0.332299  0.361249  0  0.885886  0
H  H15  1  0.61973844  0.22167339  0.99334858  1  0.57995  0  0.332289  0.361305  0  0.885545  0
H  H16  1  0.99735102  0.72306286  0.37022192  1  0.624606  0  0.351852  0.382906  0  0.855647  0
H  H17  1  0.00263944  0.27693949  0.62978125  1  0.624513  0  0.351861  0.382902  0  0.855679  0
C  C18  1  0.47238360  0.73897592  0.50273367  1  1.610825  0  0.214489  0.608802  0  4.184936  0
C  C19  1  0.52758376  0.26103113  0.49727079  1  1.610904  0  0.214781  0.609345  0  4.184422  0
C  C20  1  0.43684051  0.05189639  0.56749298  1  -0.034271  0  -0.075897  -0.130553  0  3.635829  0
C  C21  1  0.56311429  0.94811258  0.43250841  1  -0.033663  0  -0.075796  -0.130444  0  3.636251  0
C  C22  1  0.52053024  0.12427496  0.49861672  1  -0.048691  0  -0.012419  -0.084381  0  3.658229  0
C  C23  1  0.47943393  0.87573672  0.50138588  1  -0.048604  0  -0.012285  -0.083811  0  3.65761  0
C  C24  1  0.64115806  0.02452067  0.49958575  1  -0.006878  0  -0.084336  -0.139564  0  3.657582  0
C  C25  1  0.35879362  0.97548740  0.50041565  1  -0.006785  0  -0.084361  -0.139584  0  3.657291  0
C  C26  1  0.05065360  0.60207452  0.53462378  1  0.178579  0  0.016504  -0.042446  0  3.560988  0
C  C27  1  0.94933174  0.39792235  0.46537632  1  0.178756  0  0.016537  -0.042597  0  3.561093  0
C  C28  1  0.93871840  0.51977020  0.57431329  1  0.157483  0  0.016145  -0.04717  0  3.567259  0
C  C29  1  0.06126696  0.48022482  0.42568743  1  0.157063  0  0.016272  -0.046687  0  3.567103  0
C  C30  1  0.97069966  0.59502608  0.45076289  1  0.874103  0  0.183343  0.36698  0  3.75868  0
C  C31  1  0.02928880  0.40497076  0.54923905  1  0.873845  0  0.183436  0.367404  0  3.758138  0
C  C32  1  0.48003717  0.50433074  0.33768228  1  1.652086  0  0.217378  0.67065  0  4.244543  0
C  C33  1  0.51995745  0.49567621  0.66231529  1  1.65236  0  0.217215  0.670077  0  4.245204  0
C  C34  1  0.59204200  0.58778720  0.97507886  1  -0.059465  0  -0.07946  -0.156445  0  3.645241  0
C  C35  1  0.40802295  0.41220375  0.02492040  1  -0.058748  0  -0.079272  -0.155605  0  3.645439  0
C  C36  1  0.45000039  0.61184733  0.02297895  1  0.594238  0  0.088573  0.287558  0  3.73475  0
C  C37  1  0.55005095  0.38814461  0.97701973  1  0.594617  0  0.088502  0.28725  0  3.734479  0
C  C38  1  0.47221145  0.50495085  0.24820315  1  0.125372  0  -0.058687  -0.2078  0  4.000762  0
C  C39  1  0.52780737  0.49504399  0.75180057  1  0.125156  0  -0.058497  -0.207349  0  4.00108  0
C  C40  1  0.62752932  0.47906023  0.03547701  1  -0.083678  0  -0.081566  -0.158976  0  3.649883  0
C  C41  1  0.37252518  0.52092985  0.96452166  1  -0.082834  0  -0.081814  -0.159793  0  3.65035  0
C  C42  1  0.48594666  0.50239755  0.08514373  1  0.165187  0  0.00261  0.078824  0  3.803729  0
C  C43  1  0.51411207  0.49759253  0.91485121  1  0.164881  0  0.002774  0.07941  0  3.803387  0
C  C44  1  0.47411869  0.50480854  0.17263691  1  -0.456855  0  -0.040387  -0.040334  0  4.097607  0
C  C45  1  0.52592108  0.49518992  0.82735806  1  -0.457023  0  -0.040559  -0.040615  0  4.09814  0
C  C46  1  0.55783203  0.95390249  0.56797336  1  0.587769  0  0.106326  0.286034  0  3.709856  0
C  C47  1  0.44212380  0.04610832  0.43202741  1  0.586203  0  0.106439  0.285932  0  3.710272  0
N  N48  1  0.86060008  0.51190677  0.49118479  1  -0.825358  0  -0.303451  -0.206288  0  3.030386  0
N  N49  1  0.13938314  0.48809195  0.50881530  1  -0.825222  0  -0.303515  -0.206341  0  3.030108  0
O  O50  1  0.59140671  0.68448731  0.49886380  1  -1.162664  0  -0.317999  -0.544479  0  2.328377  0
O  O51  1  0.40856766  0.31550430  0.50108735  1  -1.163317  0  -0.317957  -0.54443  0  2.328832  0
O  O52  1  0.35359748  0.68857441  0.50759055  1  -1.166579  0  -0.319069  -0.552153  0  2.294075  0
O  O53  1  0.64638608  0.31144435  0.49245229  1  -1.166308  0  -0.319436  -0.552551  0  2.293257  0
O  O54  1  0.60305477  0.49856218  0.36739050  1  -1.14769  0  -0.316725  -0.539006  0  2.257244  0
O  O55  1  0.39694295  0.50137203  0.63261525  1  -1.147687  0  -0.316704  -0.53891  0  2.258016  0
O  O56  1  0.36525608  0.50962162  0.37848784  1  -1.159333  0  -0.315495  -0.560702  0  2.283511  0
O  O57  1  0.63474908  0.49045802  0.62149840  1  -1.159408  0  -0.315319  -0.56039  0  2.283156  0
O  O58  1  0.39921250  0.72314921  0.05325395  1  -1.117525  0  -0.381774  -0.497583  0  2.222591  0
O  O59  1  0.60084629  0.27683811  0.94673914  1  -1.117385  0  -0.381739  -0.497611  0  2.221644  0
O  O60  1  0.91999583  0.68804196  0.40183287  1  -1.14304  0  -0.350375  -0.470044  0  2.228774  0
O  O61  1  0.07999262  0.31195673  0.59816721  1  -1.142928  0  -0.35042  -0.470183  0  2.228631  0
F  F62  1  0.61540061  0.90499424  0.63885844  1  -0.641031  0  -0.138204  -0.194825  0  1.261919  0
F  F63  1  0.38455528  0.09501197  0.36114233  1  -0.640549  0  -0.138234  -0.194748  0  1.262217  0
