# generated using pymatgen
data_CdH3C6(N3O)2
_symmetry_space_group_name_H-M   'P 1'
_cell_length_a   10.49988974
_cell_length_b   11.36610214
_cell_length_c   16.86800000
_cell_angle_alpha   90.00000000
_cell_angle_beta   90.00000000
_cell_angle_gamma   115.31052377
_symmetry_Int_Tables_number   1
_chemical_formula_structural   CdH3C6(N3O)2
_chemical_formula_sum   'Cd8 H24 C48 N48 O16'
_cell_volume   1819.82763750
_cell_formula_units_Z   8
loop_
 _symmetry_equiv_pos_site_id
 _symmetry_equiv_pos_as_xyz
  1  'x, y, z'
loop_
 _atom_site_type_symbol
 _atom_site_label
 _atom_site_symmetry_multiplicity
 _atom_site_fract_x
 _atom_site_fract_y
 _atom_site_fract_z
 _atom_site_occupancy
 _atom_site_hle17_bader_spin_density
 _atom_site_hle17_ddec_charge
 _atom_site_hle17_ddec_spin_density
 _atom_site_hle17_ddec_sum_bond_order
 _atom_site_hle17_magmom
 _atom_site_hse06_10hf_bader_spin_density
 _atom_site_hse06_10hf_ddec_charge
 _atom_site_hse06_10hf_ddec_spin_density
 _atom_site_hse06_10hf_ddec_sum_bond_order
 _atom_site_hse06_10hf_magmom
 _atom_site_hse06_bader_spin_density
 _atom_site_hse06_ddec_charge
 _atom_site_hse06_ddec_spin_density
 _atom_site_hse06_ddec_sum_bond_order
 _atom_site_hse06_magmom
 _atom_site_pbe_bader_charge
 _atom_site_pbe_bader_spin_density
 _atom_site_pbe_cm5_charge
 _atom_site_pbe_ddec_charge
 _atom_site_pbe_ddec_spin_density
 _atom_site_pbe_ddec_sum_bond_order
 _atom_site_pbe_magmom
Cd  Cd0  1  0.66872703  0.09905789  0.18690538  1  0  1.091176  0  1.781176  0  0  0.880383  0  2.244365  0  0  0.937335  0  2.194895  0  1.30288  0  0.792119  0.83969  0  2.278401  0
Cd  Cd1  1  0.33127106  0.40094200  0.68690479  1  0  1.091197  0  1.781115  0  0  0.880418  0  2.24427  0  0  0.937369  0  2.194802  0  1.302926  0  0.792137  0.839725  0  2.278303  0
Cd  Cd2  1  0.33127434  0.90094287  0.81309521  1  0  1.091226  0  1.781159  0  0  0.880422  0  2.244362  0  0  0.937376  0  2.194888  0  1.302921  0  0.792127  0.839727  0  2.278398  0
Cd  Cd3  1  0.66872840  0.59905875  0.31309462  1  0  1.091208  0  1.781118  0  0  0.880429  0  2.244279  0  0  0.93738  0  2.19481  0  1.302916  0  0.792146  0.839736  0  2.278313  0
Cd  Cd4  1  0.28754841  0.34941112  0.31084242  1  0  1.09955  0  1.757131  0  0  0.887289  0  2.216442  0  0  0.944417  0  2.166677  0  1.302447  0  0.794018  0.846526  0  2.250747  0
Cd  Cd5  1  0.71244973  0.15058683  0.81084183  1  0  1.099548  0  1.75717  0  0  0.887274  0  2.216499  0  0  0.944402  0  2.166732  0  1.302435  0  0.793997  0.84651  0  2.250806  0
Cd  Cd6  1  0.71245156  0.65058867  0.68915817  1  0  1.099554  0  1.757143  0  0  0.887286  0  2.216464  0  0  0.944413  0  2.166698  0  1.302436  0  0.794025  0.846525  0  2.250769  0
Cd  Cd7  1  0.28755119  0.84941295  0.18915758  1  0  1.09957  0  1.757142  0  0  0.8873  0  2.216476  0  0  0.944429  0  2.166708  0  1.302521  0  0.794022  0.846539  0  2.250781  0
H  H8  1  0.06413516  0.13725739  0.47013102  1  0  0.080517  0  0.952536  0  0  0.080622  0  1.030999  0  0  0.083544  0  1.027654  0  0.134136  0  0.118138  0.078467  0  1.033477  0
H  H9  1  0.93586293  0.36274250  0.97013042  1  0  0.080482  0  0.952566  0  0  0.080578  0  1.031047  0  0  0.0835  0  1.027703  0  0.134107  0  0.118132  0.078425  0  1.033524  0
H  H10  1  0.93586335  0.86274336  0.52986898  1  0  0.080513  0  0.952547  0  0  0.080599  0  1.031027  0  0  0.083522  0  1.027682  0  0.134077  0  0.118139  0.078445  0  1.033504  0
H  H11  1  0.06413940  0.63725825  0.02987017  1  0  0.080482  0  0.952589  0  0  0.080567  0  1.031065  0  0  0.083489  0  1.02772  0  0.134066  0  0.118148  0.078414  0  1.03354  0
H  H12  1  0.80514761  0.99271511  0.49012509  1  0  0.131745  0  0.944899  0  0  0.135303  0  1.010886  0  0  0.139127  0  1.009641  0  0.169126  0  0.118741  0.132586  0  1.011938  0
H  H13  1  0.19485328  0.50728456  0.99012746  1  0  0.131756  0  0.944913  0  0  0.135316  0  1.010905  0  0  0.139138  0  1.009658  0  0.169051  0  0.11876  0.132599  0  1.011958  0
H  H14  1  0.19485286  0.00728370  0.50987432  1  0  0.131738  0  0.94489  0  0  0.135288  0  1.010884  0  0  0.139111  0  1.009639  0  0.169094  0  0.118741  0.132572  0  1.011935  0
H  H15  1  0.80514859  0.49271522  0.00987373  1  0  0.131744  0  0.944961  0  0  0.135311  0  1.010944  0  0  0.139133  0  1.009698  0  0.169099  0  0.118764  0.132594  0  1.011996  0
H  H16  1  0.64285278  0.96634334  0.37422397  1  0  0.09539  0  0.915544  0  0  0.102697  0  0.976456  0  0  0.105478  0  0.973206  0  0.161515  0  0.129704  0.100664  0  0.978791  0
H  H17  1  0.35714621  0.53365633  0.87422338  1  0  0.095409  0  0.915546  0  0  0.102712  0  0.976452  0  0  0.105493  0  0.9732  0  0.161523  0  0.12971  0.100679  0  0.978787  0
H  H18  1  0.35714814  0.03365644  0.62577543  1  0  0.09539  0  0.915556  0  0  0.102683  0  0.976472  0  0  0.105464  0  0.973221  0  0.161501  0  0.129694  0.10065  0  0.978807  0
H  H19  1  0.64285707  0.46634442  0.12577780  1  0  0.095426  0  0.915524  0  0  0.102746  0  0.976411  0  0  0.105528  0  0.973157  0  0.161482  0  0.129724  0.100712  0  0.978746  0
H  H20  1  0.85040905  0.89888642  0.86627164  1  0  0.093431  0  0.926136  0  0  0.101541  0  0.986011  0  0  0.104271  0  0.983438  0  0.130922  0  0.121015  0.099451  0  0.987899  0
H  H21  1  0.14958949  0.60111228  0.36627342  1  0  0.093372  0  0.926091  0  0  0.101473  0  0.985968  0  0  0.104203  0  0.983394  0  0.130917  0  0.12101  0.099382  0  0.987857  0
H  H22  1  0.14958812  0.10111141  0.13372895  1  0  0.093401  0  0.926151  0  0  0.101521  0  0.986015  0  0  0.104252  0  0.983441  0  0.130868  0  0.121022  0.099438  0  0.987893  0
H  H23  1  0.85041243  0.39888556  0.63372658  1  0  0.09344  0  0.926153  0  0  0.101539  0  0.986025  0  0  0.10427  0  0.983451  0  0.130883  0  0.121024  0.09945  0  0.987911  0
H  H24  1  0.86433383  0.77792586  0.98980377  1  0  0.114384  0  0.971676  0  0  0.118929  0  1.038332  0  0  0.121607  0  1.039688  0  0.119022  0  0.107526  0.116788  0  1.038019  0
H  H25  1  0.13566420  0.72207381  0.48980436  1  0  0.114412  0  0.97165  0  0  0.118953  0  1.038312  0  0  0.121634  0  1.039666  0  0.118998  0  0.10752  0.11681  0  1.038003  0
H  H26  1  0.13566473  0.22207294  0.01019623  1  0  0.114382  0  0.971678  0  0  0.118934  0  1.038329  0  0  0.121609  0  1.03969  0  0.118948  0  0.107516  0.116792  0  1.038017  0
H  H27  1  0.86433622  0.27792695  0.51019327  1  0  0.114384  0  0.971687  0  0  0.118919  0  1.038351  0  0  0.121606  0  1.0397  0  0.118931  0  0.107492  0.116776  0  1.03804  0
H  H28  1  0.78900229  0.84399884  0.12068769  1  0  0.09113  0  0.930364  0  0  0.100089  0  0.990084  0  0  0.102791  0  0.987499  0  0.13551  0  0.118873  0.097998  0  0.992078  0
H  H29  1  0.21099765  0.65600083  0.62068829  1  0  0.09113  0  0.930419  0  0  0.100088  0  0.990139  0  0  0.10279  0  0.987553  0  0.135505  0  0.118882  0.097996  0  0.992134  0
H  H30  1  0.21099767  0.15600094  0.87931231  1  0  0.091145  0  0.930405  0  0  0.100106  0  0.990123  0  0  0.102807  0  0.987536  0  0.135488  0  0.118886  0.098019  0  0.992111  0
H  H31  1  0.78900037  0.34400090  0.37931053  1  0  0.091103  0  0.930409  0  0  0.100068  0  0.99013  0  0  0.102769  0  0.987545  0  0.135459  0  0.118868  0.097991  0  0.992112  0
C  C32  1  0.99341748  0.24860141  0.22595506  1  0  0.188843  0  3.85597  0  0  0.164309  0  4.111843  0  0  0.171104  0  4.131106  0  0.923277  0  0.207855  0.159971  0  4.098302  0
C  C33  1  0.00658107  0.25139946  0.72595388  1  0  0.188849  0  3.856026  0  0  0.164306  0  4.111919  0  0  0.171089  0  4.131189  0  0.923031  0  0.207867  0.159967  0  4.098377  0
C  C34  1  0.00658344  0.75139838  0.77404494  1  0  0.188912  0  3.855877  0  0  0.164344  0  4.111825  0  0  0.171135  0  4.131091  0  0.923274  0  0.207877  0.160005  0  4.098283  0
C  C35  1  0.99341885  0.74860227  0.27404612  1  0  0.18877  0  3.856007  0  0  0.164251  0  4.111887  0  0  0.171038  0  4.13116  0  0.923192  0  0.207834  0.159913  0  4.098344  0
C  C36  1  0.94183535  0.17418780  0.29851020  1  0  0.340622  0  3.787675  0  0  0.3255  0  4.028385  0  0  0.340521  0  4.04227  0  1.17508  0  0.257578  0.315433  0  4.018769  0
C  C37  1  0.05816324  0.32581112  0.79851079  1  0  0.340693  0  3.7876  0  0  0.32556  0  4.028336  0  0  0.340601  0  4.042188  0  1.175107  0  0.257568  0.315492  0  4.018721  0
C  C38  1  0.05816467  0.82581004  0.70148921  1  0  0.340606  0  3.787697  0  0  0.325443  0  4.028475  0  0  0.340465  0  4.04236  0  1.175096  0  0.257558  0.315375  0  4.018859  0
C  C39  1  0.94183903  0.67419158  0.20148921  1  0  0.340732  0  3.787739  0  0  0.325553  0  4.028516  0  0  0.340578  0  4.0424  0  1.174938  0  0.257601  0.315484  0  4.018901  0
C  C40  1  0.98790358  0.12330606  0.42313315  1  0  0.199265  0  3.662652  0  0  0.160554  0  3.930498  0  0  0.172085  0  3.944073  0  0.463665  0  0.075745  0.152981  0  3.921372  0
C  C41  1  0.01209551  0.37669189  0.92313434  1  0  0.199278  0  3.662641  0  0  0.160577  0  3.930482  0  0  0.172107  0  3.944059  0  0.463665  0  0.07573  0.153003  0  3.921354  0
C  C42  1  0.01209593  0.87669275  0.57686626  1  0  0.199259  0  3.662661  0  0  0.160595  0  3.930445  0  0  0.172126  0  3.94402  0  0.463714  0  0.075771  0.153021  0  3.921318  0
C  C43  1  0.98790591  0.62330692  0.07686626  1  0  0.199277  0  3.662697  0  0  0.160638  0  3.930455  0  0  0.172169  0  3.944029  0  0.463902  0  0.075734  0.153063  0  3.92133  0
C  C44  1  0.84516313  0.04268320  0.43414868  1  0  -0.161368  0  3.657702  0  0  -0.174106  0  3.914469  0  0  -0.184853  0  3.934158  0  0.043908  0  -0.07027  -0.167399  0  3.901627  0
C  C45  1  0.15483792  0.45731280  0.93415224  1  0  -0.161398  0  3.657655  0  0  -0.174176  0  3.914463  0  0  -0.18492  0  3.934148  0  0.04395  0  -0.070307  -0.16747  0  3.901622  0
C  C46  1  0.15483784  0.95731463  0.56585072  1  0  -0.161342  0  3.657739  0  0  -0.174109  0  3.914513  0  0  -0.184855  0  3.9342  0  0.043948  0  -0.070307  -0.167402  0  3.90167  0
C  C47  1  0.84516244  0.54268991  0.06584776  1  0  -0.161409  0  3.657703  0  0  -0.174218  0  3.914494  0  0  -0.184962  0  3.934178  0  0.04365  0  -0.070355  -0.167512  0  3.901654  0
C  C48  1  0.75515203  0.03014501  0.37082701  1  0  0.210469  0  3.632633  0  0  0.174522  0  3.884464  0  0  0.185789  0  3.899434  0  0.457826  0  0.083301  0.167188  0  3.874222  0
C  C49  1  0.24484752  0.46985391  0.87082820  1  0  0.210442  0  3.632593  0  0  0.174544  0  3.884409  0  0  0.185809  0  3.899381  0  0.457914  0  0.083323  0.167209  0  3.874166  0
C  C50  1  0.24484939  0.96985380  0.62917180  1  0  0.210441  0  3.632661  0  0  0.174534  0  3.884465  0  0  0.185802  0  3.899433  0  0.457892  0  0.083331  0.167199  0  3.874223  0
C  C51  1  0.75515526  0.53014782  0.12917299  1  0  0.21045  0  3.632707  0  0  0.174543  0  3.884503  0  0  0.18581  0  3.899473  0  0.458003  0  0.083331  0.167209  0  3.87426  0
C  C52  1  0.66959264  0.13020630  0.99955300  1  0  0.199819  0  3.836845  0  0  0.169793  0  4.101849  0  0  0.178314  0  4.12021  0  0.964834  0  0.210194  0.16418  0  4.089197  0
C  C53  1  0.33040735  0.36979359  0.49955300  1  0  0.19983  0  3.836831  0  0  0.169798  0  4.101835  0  0  0.178319  0  4.120196  0  0.964851  0  0.210185  0.164178  0  4.089178  0
C  C54  1  0.33040687  0.86979251  0.00044759  1  0  0.199746  0  3.836964  0  0  0.169797  0  4.101841  0  0  0.178318  0  4.120201  0  0.964848  0  0.210162  0.16419  0  4.089191  0
C  C55  1  0.66959261  0.63020619  0.50044759  1  0  0.199816  0  3.83693  0  0  0.169782  0  4.101924  0  0  0.178304  0  4.120284  0  0.964845  0  0.210128  0.164171  0  4.089271  0
C  C56  1  0.73218555  0.03771289  0.99769149  1  0  0.329853  0  3.790822  0  0  0.313106  0  4.045974  0  0  0.326528  0  4.060219  0  1.12542  0  0.251204  0.304183  0  4.036115  0
C  C57  1  0.26781445  0.46228700  0.49769208  1  0  0.329863  0  3.790797  0  0  0.313131  0  4.045927  0  0  0.326553  0  4.060171  0  1.125415  0  0.251251  0.304229  0  4.036034  0
C  C58  1  0.26781582  0.96228787  0.00230911  1  0  0.329875  0  3.790844  0  0  0.313141  0  4.045923  0  0  0.326564  0  4.060168  0  1.125425  0  0.251226  0.304202  0  4.036085  0
C  C59  1  0.73218552  0.53771278  0.50230792  1  0  0.329794  0  3.790851  0  0  0.313075  0  4.045964  0  0  0.326496  0  4.060209  0  1.12542  0  0.251217  0.304145  0  4.036113  0
C  C60  1  0.82083061  0.92072291  0.92457849  1  0  0.193432  0  3.657463  0  0  0.159711  0  3.918073  0  0  0.169994  0  3.932348  0  0.504017  0  0.071361  0.153508  0  3.907557  0
C  C61  1  0.17916653  0.57927481  0.42458086  1  0  0.193549  0  3.657444  0  0  0.159868  0  3.918013  0  0  0.170152  0  3.93229  0  0.503996  0  0.071392  0.153666  0  3.907497  0
C  C62  1  0.17916656  0.07927492  0.07542151  1  0  0.19351  0  3.657381  0  0  0.159781  0  3.917996  0  0  0.170065  0  3.932272  0  0.504051  0  0.07136  0.153575  0  3.907475  0
C  C63  1  0.82083159  0.42072302  0.57542092  1  0  0.193492  0  3.657445  0  0  0.159805  0  3.918021  0  0  0.170088  0  3.932298  0  0.504094  0  0.071382  0.153602  0  3.907503  0
C  C64  1  0.82805925  0.85435504  0.99280828  1  0  -0.169521  0  3.687367  0  0  -0.180921  0  3.939492  0  0  -0.191605  0  3.96146  0  -0.009815  0  -0.080102  -0.174455  0  3.924484  0
C  C65  1  0.17193924  0.64564560  0.49281005  1  0  -0.169601  0  3.687257  0  0  -0.181013  0  3.939372  0  0  -0.191702  0  3.961339  0  -0.009905  0  -0.080102  -0.174548  0  3.924366  0
C  C66  1  0.17194027  0.14564376  0.00719172  1  0  -0.169559  0  3.687283  0  0  -0.180969  0  3.939421  0  0  -0.191652  0  3.961393  0  -0.009726  0  -0.080104  -0.174505  0  3.924417  0
C  C67  1  0.82806258  0.35435613  0.50718935  1  0  -0.169567  0  3.687281  0  0  -0.180967  0  3.939402  0  0  -0.191663  0  3.961364  0  -0.00993  0  -0.080074  -0.174502  0  3.9244  0
C  C68  1  0.78670655  0.88984409  0.06406806  1  0  0.190163  0  3.660929  0  0  0.15724  0  3.919266  0  0  0.167204  0  3.933895  0  0.487755  0  0.070422  0.151109  0  3.908765  0
C  C69  1  0.21329294  0.61015461  0.56406984  1  0  0.190197  0  3.660908  0  0  0.157276  0  3.919251  0  0  0.167242  0  3.933877  0  0.487933  0  0.070419  0.151144  0  3.908753  0
C  C70  1  0.21329157  0.11015375  0.93593135  1  0  0.190174  0  3.660901  0  0  0.157246  0  3.91925  0  0  0.167212  0  3.933874  0  0.487783  0  0.070442  0.151111  0  3.908747  0
C  C71  1  0.78670793  0.38984712  0.43593016  1  0  0.190202  0  3.660871  0  0  0.157274  0  3.919229  0  0  0.16724  0  3.933856  0  0.48798  0  0.070417  0.151132  0  3.908724  0
C  C72  1  0.54771018  0.78609715  0.23773299  1  0  0.555087  0  3.892735  0  0  0.506564  0  4.187524  0  0  0.53709  0  4.180756  0  1.594555  0  0.206633  0.485638  0  4.191678  0
C  C73  1  0.45229708  0.71389571  0.73772884  1  0  0.555157  0  3.892822  0  0  0.506654  0  4.187583  0  0  0.537181  0  4.180811  0  1.594369  0  0.206643  0.48573  0  4.191733  0
C  C74  1  0.45228552  0.21390166  0.76226701  1  0  0.555145  0  3.892885  0  0  0.506644  0  4.187665  0  0  0.53717  0  4.180894  0  1.594558  0  0.206748  0.485716  0  4.191821  0
C  C75  1  0.54770474  0.28610602  0.26226761  1  0  0.555157  0  3.892881  0  0  0.506673  0  4.187625  0  0  0.537198  0  4.180854  0  1.594611  0  0.206623  0.485749  0  4.191777  0
C  C76  1  0.41121892  0.66061494  0.25686507  1  0  0.56578  0  3.881197  0  0  0.517621  0  4.171867  0  0  0.548524  0  4.164918  0  1.602727  0  0.208932  0.496436  0  4.176126  0
C  C77  1  0.58878343  0.83938376  0.75686270  1  0  0.565672  0  3.881401  0  0  0.517467  0  4.172144  0  0  0.548369  0  4.165198  0  1.603558  0  0.208866  0.496286  0  4.176386  0
C  C78  1  0.58877915  0.33938484  0.74313434  1  0  0.565801  0  3.88119  0  0  0.517582  0  4.171959  0  0  0.548484  0  4.165012  0  1.603381  0  0.20892  0.496396  0  4.176218  0
C  C79  1  0.41122024  0.16061992  0.24313315  1  0  0.565607  0  3.881364  0  0  0.517403  0  4.172103  0  0  0.548303  0  4.165159  0  1.602823  0  0.208919  0.496218  0  4.176358  0
N  N80  1  0.91266840  0.24215469  0.16330982  1  0  -0.308568  0  3.153212  0  0  -0.256416  0  3.441638  0  0  -0.272514  0  3.45833  0  -0.715827  0  -0.229442  -0.245129  0  3.429911  0
N  N81  1  0.08733109  0.25784617  0.66330922  1  0  -0.308586  0  3.15329  0  0  -0.256424  0  3.441709  0  0  -0.272521  0  3.458405  0  -0.715827  0  -0.229456  -0.245136  0  3.429981  0
N  N82  1  0.08733297  0.75784606  0.83669018  1  0  -0.308604  0  3.153212  0  0  -0.256438  0  3.441656  0  0  -0.272535  0  3.458347  0  -0.715858  0  -0.229467  -0.245151  0  3.429929  0
N  N83  1  0.91266882  0.74215556  0.33669078  1  0  -0.308586  0  3.153211  0  0  -0.256433  0  3.441633  0  0  -0.27253  0  3.458328  0  -0.715933  0  -0.22946  -0.245146  0  3.429905  0
N  N84  1  0.00005912  0.32358922  0.10922753  1  0  -0.09403  0  2.944408  0  0  -0.086086  0  3.24869  0  0  -0.087526  0  3.262389  0  -0.131453  0  -0.094059  -0.084834  0  3.239197  0
N  N85  1  0.99993992  0.17641067  0.60922694  1  0  -0.094054  0  2.944504  0  0  -0.086109  0  3.248778  0  0  -0.087548  0  3.262478  0  -0.131471  0  -0.094038  -0.084857  0  3.239285  0
N  N86  1  0.99994174  0.67641250  0.89077247  1  0  -0.094048  0  2.944471  0  0  -0.086104  0  3.248752  0  0  -0.087544  0  3.262451  0  -0.130903  0  -0.094061  -0.084852  0  3.239258  0
N  N87  1  0.00005910  0.82358911  0.39077365  1  0  -0.094017  0  2.944431  0  0  -0.086072  0  3.248719  0  0  -0.087511  0  3.262417  0  -0.131397  0  -0.094034  -0.084819  0  3.239226  0
N  N88  1  0.12995452  0.37799797  0.13849478  1  0  -0.062088  0  2.884894  0  0  -0.06275  0  3.177667  0  0  -0.060828  0  3.188772  0  -0.094849  0  -0.091753  -0.063836  0  3.16987  0
N  N89  1  0.87004502  0.12200095  0.63849419  1  0  -0.06207  0  2.884948  0  0  -0.062736  0  3.177731  0  0  -0.060814  0  3.188837  0  -0.094857  0  -0.091765  -0.063822  0  3.169935  0
N  N90  1  0.87004590  0.62200278  0.86150522  1  0  -0.062058  0  2.884906  0  0  -0.062719  0  3.177676  0  0  -0.060797  0  3.188781  0  -0.095331  0  -0.091733  -0.063805  0  3.169878  0
N  N91  1  0.12995539  0.87799981  0.36150700  1  0  -0.062123  0  2.884903  0  0  -0.062798  0  3.177684  0  0  -0.060877  0  3.188789  0  -0.094806  0  -0.091788  -0.063884  0  3.169887  0
N  N92  1  0.12781376  0.33198338  0.21203581  1  0  -0.299181  0  3.165338  0  0  -0.235499  0  3.452436  0  0  -0.252909  0  3.466651  0  -0.689283  0  -0.225774  -0.22319  0  3.442162  0
N  N93  1  0.87218484  0.16801554  0.71203521  1  0  -0.299202  0  3.165393  0  0  -0.235521  0  3.452499  0  0  -0.252927  0  3.466716  0  -0.689021  0  -0.225784  -0.223211  0  3.442226  0
N  N94  1  0.87218716  0.66801640  0.78796360  1  0  -0.299207  0  3.165307  0  0  -0.235511  0  3.452418  0  0  -0.252919  0  3.466633  0  -0.689319  0  -0.225785  -0.223202  0  3.442145  0
N  N95  1  0.12781558  0.83198522  0.28796538  1  0  -0.299122  0  3.16524  0  0  -0.235422  0  3.452304  0  0  -0.252828  0  3.466521  0  -0.689159  0  -0.225731  -0.223112  0  3.442029  0
N  N96  1  0.03664608  0.18927490  0.35553237  1  0  -0.375189  0  3.114229  0  0  -0.316737  0  3.373449  0  0  -0.336447  0  3.38768  0  -1.216961  0  -0.303631  -0.303301  0  3.363749  0
N  N97  1  0.96335246  0.31072597  0.85553296  1  0  -0.375208  0  3.114209  0  0  -0.316724  0  3.373397  0  0  -0.336438  0  3.38762  0  -1.21697  0  -0.30361  -0.303292  0  3.363705  0
N  N98  1  0.96335248  0.81072391  0.64446763  1  0  -0.375227  0  3.114273  0  0  -0.316761  0  3.373484  0  0  -0.336471  0  3.387713  0  -1.216979  0  -0.303638  -0.303327  0  3.363787  0
N  N99  1  0.03664796  0.68927479  0.14446704  1  0  -0.375236  0  3.114256  0  0  -0.316771  0  3.373455  0  0  -0.336481  0  3.387684  0  -1.21701  0  -0.303627  -0.303339  0  3.363763  0
N  N100  1  0.80321622  0.09621214  0.30302288  1  0  -0.370609  0  3.150379  0  0  -0.301347  0  3.407002  0  0  -0.322093  0  3.420293  0  -1.238564  0  -0.307962  -0.287025  0  3.397603  0
N  N101  1  0.19678277  0.40378969  0.80302407  1  0  -0.370559  0  3.150301  0  0  -0.301342  0  3.406967  0  0  -0.322092  0  3.42025  0  -1.238607  0  -0.307945  -0.287019  0  3.397567  0
N  N102  1  0.19678374  0.90378764  0.69697652  1  0  -0.370572  0  3.150339  0  0  -0.301306  0  3.406965  0  0  -0.32205  0  3.420254  0  -1.238619  0  -0.307954  -0.286983  0  3.397566  0
N  N103  1  0.80321905  0.59621204  0.19697712  1  0  -0.370593  0  3.150592  0  0  -0.301363  0  3.407259  0  0  -0.322109  0  3.420547  0  -1.238529  0  -0.30797  -0.28704  0  3.39786  0
N  N104  1  0.61909420  0.16312308  0.06458086  1  0  -0.314064  0  3.170543  0  0  -0.254114  0  3.464296  0  0  -0.272307  0  3.481417  0  -0.742211  0  -0.23483  -0.241586  0  3.452435  0
N  N105  1  0.38090535  0.33687584  0.56458086  1  0  -0.314095  0  3.170574  0  0  -0.254146  0  3.464335  0  0  -0.272336  0  3.481453  0  -0.74221  0  -0.23483  -0.241617  0  3.452474  0
N  N106  1  0.38090532  0.83687573  0.93541973  1  0  -0.314069  0  3.170614  0  0  -0.254143  0  3.46434  0  0  -0.272334  0  3.481459  0  -0.742646  0  -0.234814  -0.241615  0  3.452478  0
N  N107  1  0.61909417  0.66312297  0.43541973  1  0  -0.31411  0  3.170637  0  0  -0.254163  0  3.464394  0  0  -0.272355  0  3.481515  0  -0.742188  0  -0.234825  -0.241633  0  3.452532  0
N  N108  1  0.56603514  0.24598632  0.04029227  1  0  -0.082407  0  2.915132  0  0  -0.07995  0  3.217103  0  0  -0.080049  0  3.229999  0  -0.093093  0  -0.095514  -0.079649  0  3.208028  0
N  N109  1  0.43396486  0.25401357  0.54029227  1  0  -0.08241  0  2.915134  0  0  -0.079955  0  3.217107  0  0  -0.080055  0  3.23  0  -0.0931  0  -0.095518  -0.079655  0  3.208031  0
N  N110  1  0.43396483  0.75401346  0.95970832  1  0  -0.082357  0  2.915098  0  0  -0.079899  0  3.217066  0  0  -0.08  0  3.229962  0  -0.092635  0  -0.095493  -0.079601  0  3.207994  0
N  N111  1  0.56603606  0.74598621  0.45970892  1  0  -0.082333  0  2.915152  0  0  -0.079876  0  3.217126  0  0  -0.079975  0  3.230021  0  -0.093051  0  -0.095488  -0.079576  0  3.208052  0
N  N112  1  0.58350353  0.26228218  0.96263932  1  0  -0.071026  0  2.894608  0  0  -0.072458  0  3.191492  0  0  -0.070919  0  3.203202  0  -0.101215  0  -0.097969  -0.073299  0  3.183264  0
N  N113  1  0.41649692  0.23771868  0.46263932  1  0  -0.070988  0  2.89457  0  0  -0.072415  0  3.191448  0  0  -0.070873  0  3.203153  0  -0.101196  0  -0.097952  -0.073255  0  3.183218  0
N  N114  1  0.41649689  0.73771857  0.03736128  1  0  -0.07106  0  2.894608  0  0  -0.072491  0  3.191503  0  0  -0.070952  0  3.203213  0  -0.101218  0  -0.097976  -0.073331  0  3.183275  0
N  N115  1  0.58350350  0.76228207  0.53736187  1  0  -0.071057  0  2.894591  0  0  -0.072492  0  3.191476  0  0  -0.070952  0  3.203184  0  -0.101218  0  -0.097976  -0.073333  0  3.183247  0
N  N116  1  0.64842274  0.19027246  0.93594676  1  0  -0.314685  0  3.176402  0  0  -0.249894  0  3.465178  0  0  -0.268762  0  3.48224  0  -0.726468  0  -0.231876  -0.237176  0  3.453498  0
N  N117  1  0.35157585  0.30972645  0.43594736  1  0  -0.314722  0  3.176411  0  0  -0.249934  0  3.465188  0  0  -0.268804  0  3.482252  0  -0.726501  0  -0.231886  -0.237217  0  3.453512  0
N  N118  1  0.35157678  0.80972634  0.06405383  1  0  -0.314659  0  3.176445  0  0  -0.249904  0  3.465203  0  0  -0.268773  0  3.482266  0  -0.726526  0  -0.231879  -0.23718  0  3.453504  0
N  N119  1  0.64842366  0.69027236  0.56405383  1  0  -0.314685  0  3.176356  0  0  -0.249887  0  3.465121  0  0  -0.268756  0  3.482184  0  -0.726534  0  -0.231857  -0.237169  0  3.453444  0
N  N120  1  0.77343122  0.01312798  0.92659651  1  0  -0.376175  0  3.078172  0  0  -0.325333  0  3.343492  0  0  -0.343254  0  3.357441  0  -1.19119  0  -0.302784  -0.313025  0  3.333568  0
N  N121  1  0.22656687  0.48687191  0.42659711  1  0  -0.376206  0  3.078148  0  0  -0.325389  0  3.343468  0  0  -0.343309  0  3.357416  0  -1.191174  0  -0.30283  -0.313085  0  3.333534  0
N  N122  1  0.22656735  0.98687083  0.07340408  1  0  -0.376245  0  3.078103  0  0  -0.325409  0  3.34341  0  0  -0.34333  0  3.357358  0  -1.191206  0  -0.302819  -0.313096  0  3.333492  0
N  N123  1  0.77343265  0.51312690  0.57340289  1  0  -0.376212  0  3.078149  0  0  -0.325385  0  3.343439  0  0  -0.343306  0  3.357387  0  -1.191155  0  -0.302802  -0.313074  0  3.333517  0
N  N124  1  0.73910245  0.98210100  0.06688700  1  0  -0.373448  0  3.092782  0  0  -0.322161  0  3.358564  0  0  -0.340329  0  3.373106  0  -1.207306  0  -0.302822  -0.3099  0  3.348243  0
N  N125  1  0.26089704  0.51789770  0.56688700  1  0  -0.373473  0  3.092861  0  0  -0.322195  0  3.358642  0  0  -0.340364  0  3.373183  0  -1.20735  0  -0.302849  -0.30994  0  3.348312  0
N  N126  1  0.26089707  0.01789781  0.93311359  1  0  -0.373449  0  3.092872  0  0  -0.322172  0  3.358649  0  0  -0.340341  0  3.373189  0  -1.207305  0  -0.302843  -0.309907  0  3.348334  0
N  N127  1  0.73910197  0.48210208  0.43311240  1  0  -0.373394  0  3.092746  0  0  -0.322122  0  3.358523  0  0  -0.34029  0  3.373063  0  -1.207369  0  -0.302814  -0.30986  0  3.34821  0
O  O128  1  0.52629111  0.88362024  0.21628527  1  0  -0.621996  0  2.210541  0  0  -0.539932  0  2.479903  0  0  -0.571648  0  2.469642  0  -1.163982  0  -0.321829  -0.517766  0  2.486103  0
O  O129  1  0.47370973  0.61638137  0.71628290  1  0  -0.621957  0  2.211129  0  0  -0.53989  0  2.48048  0  0  -0.571602  0  2.470216  0  -1.164187  0  -0.321785  -0.517724  0  2.486674  0
O  O130  1  0.47370696  0.11637954  0.78371473  1  0  -0.622032  0  2.2106  0  0  -0.539972  0  2.479964  0  0  -0.571688  0  2.469703  0  -1.163966  0  -0.321873  -0.517795  0  2.486142  0
O  O131  1  0.52629254  0.38362133  0.28371591  1  0  -0.621954  0  2.211057  0  0  -0.539893  0  2.480407  0  0  -0.571605  0  2.470142  0  -1.16417  0  -0.321777  -0.517722  0  2.486591  0
O  O132  1  0.66611985  0.78461102  0.24511620  1  0  -0.582146  0  2.025698  0  0  -0.535706  0  2.276375  0  0  -0.560314  0  2.267475  0  -1.166163  0  -0.31806  -0.518587  0  2.282032  0
O  O133  1  0.33388059  0.71538768  0.74511679  1  0  -0.582267  0  2.025385  0  0  -0.535836  0  2.276064  0  0  -0.560452  0  2.267171  0  -1.165975  0  -0.318112  -0.518717  0  2.281721  0
O  O134  1  0.33387636  0.21538681  0.75488440  1  0  -0.582185  0  2.025892  0  0  -0.535742  0  2.276543  0  0  -0.560358  0  2.26766  0  -1.166216  0  -0.318102  -0.518625  0  2.2822  0
O  O135  1  0.66612073  0.28461502  0.25488380  1  0  -0.582241  0  2.025452  0  0  -0.535828  0  2.276132  0  0  -0.560443  0  2.267242  0  -1.16597  0  -0.318116  -0.51871  0  2.281792  0
O  O136  1  0.43315758  0.56479696  0.28134693  1  0  -0.621941  0  2.200434  0  0  -0.537752  0  2.464879  0  0  -0.569714  0  2.454378  0  -1.163765  0  -0.322788  -0.515383  0  2.471312  0
O  O137  1  0.56683614  0.93520369  0.78134811  1  0  -0.621985  0  2.200243  0  0  -0.537749  0  2.46468  0  0  -0.569717  0  2.454186  0  -1.16368  0  -0.322808  -0.515376  0  2.471112  0
O  O138  1  0.56684379  0.43520380  0.71865366  1  0  -0.621901  0  2.200425  0  0  -0.537705  0  2.464914  0  0  -0.569666  0  2.454416  0  -1.163875  0  -0.322776  -0.515338  0  2.471348  0
O  O139  1  0.43316613  0.06479901  0.21865129  1  0  -0.621959  0  2.200272  0  0  -0.537752  0  2.464752  0  0  -0.569714  0  2.454248  0  -1.163249  0  -0.322835  -0.515381  0  2.471182  0
O  O140  1  0.29301999  0.66167771  0.24811655  1  0  -0.572198  0  2.03347  0  0  -0.524584  0  2.284549  0  0  -0.549624  0  2.275021  0  -1.146498  0  -0.311896  -0.507234  0  2.29075  0
O  O141  1  0.70697228  0.83832390  0.74811714  1  0  -0.572073  0  2.033914  0  0  -0.524453  0  2.28501  0  0  -0.549488  0  2.275484  0  -1.147205  0  -0.311819  -0.507105  0  2.291211  0
O  O142  1  0.70697908  0.33832012  0.75188226  1  0  -0.57226  0  2.033463  0  0  -0.524612  0  2.284542  0  0  -0.549653  0  2.275019  0  -1.147008  0  -0.311924  -0.507262  0  2.290744  0
O  O143  1  0.29302674  0.16167588  0.25188226  1  0  -0.572039  0  2.033752  0  0  -0.524425  0  2.284877  0  0  -0.549462  0  2.275352  0  -1.147107  0  -0.311837  -0.507079  0  2.291076  0
