# generated using pymatgen
data_CsH4C5(NO2)3
_symmetry_space_group_name_H-M   'P 1'
_cell_length_a   4.81390486
_cell_length_b   9.53966115
_cell_length_c   20.33434005
_cell_angle_alpha   89.99992736
_cell_angle_beta   90.00002223
_cell_angle_gamma   95.48003317
_symmetry_Int_Tables_number   1
_chemical_formula_structural   CsH4C5(NO2)3
_chemical_formula_sum   'Cs4 H16 C20 N12 O24'
_cell_volume   929.54636569
_cell_formula_units_Z   4
loop_
 _symmetry_equiv_pos_site_id
 _symmetry_equiv_pos_as_xyz
  1  'x, y, z'
loop_
 _atom_site_type_symbol
 _atom_site_label
 _atom_site_symmetry_multiplicity
 _atom_site_fract_x
 _atom_site_fract_y
 _atom_site_fract_z
 _atom_site_occupancy
 _atom_site_pbe_bader_spin_density
 _atom_site_pbe_cm5_charge
 _atom_site_pbe_ddec_charge
 _atom_site_pbe_ddec_spin_density
 _atom_site_pbe_ddec_sum_bond_order
 _atom_site_pbe_magmom
Cs  Cs0  1  0.39346606  0.13564389  0.18897439  1  0  0.861183  0.869542  0  0.810341  0
Cs  Cs1  1  0.10653438  0.36435686  0.68897431  1  0  0.861182  0.869536  0  0.810323  0
Cs  Cs2  1  0.60653192  0.86435650  0.81102535  1  0  0.86118  0.869534  0  0.810332  0
Cs  Cs3  1  0.89346359  0.63564353  0.31102544  1  0  0.861168  0.869536  0  0.810329  0
H  H4  1  0.97821661  0.40717979  0.45123021  1  0  0.125704  0.095273  0  1.035888  0
H  H5  1  0.52178573  0.09282130  0.95123028  1  0  0.125702  0.09525  0  1.035883  0
H  H6  1  0.02178532  0.59281955  0.54876954  1  0  0.125699  0.095266  0  1.035915  0
H  H7  1  0.47821432  0.90717909  0.04877045  1  0  0.125714  0.095264  0  1.035867  0
H  H8  1  0.29049041  0.08459146  0.46665442  1  0  0.126907  0.139809  0  0.998264  0
H  H9  1  0.20950680  0.41541171  0.96665432  1  0  0.126922  0.13983  0  0.998234  0
H  H10  1  0.70950777  0.91540998  0.53334581  1  0  0.126906  0.139792  0  0.998273  0
H  H11  1  0.79049326  0.58458868  0.03334543  1  0  0.126925  0.139864  0  0.998157  0
H  H12  1  0.84526086  0.93266483  0.23801093  1  0  0.277145  0.358999  0  0.996729  0
H  H13  1  0.65473665  0.56733540  0.73801103  1  0  0.277134  0.358985  0  0.996756  0
H  H14  1  0.15473939  0.06733661  0.76198931  1  0  0.277128  0.358977  0  0.996771  0
H  H15  1  0.34526113  0.43266394  0.26198921  1  0  0.277122  0.358981  0  0.996771  0
H  H16  1  0.74774766  0.83947718  0.17577584  1  0  0.273386  0.33693  0  1.027909  0
H  H17  1  0.75224958  0.66052216  0.67577589  1  0  0.273404  0.336962  0  1.027866  0
H  H18  1  0.25225032  0.16052321  0.82422391  1  0  0.273394  0.336942  0  1.027889  0
H  H19  1  0.24774820  0.33947718  0.32422435  1  0  0.273415  0.337024  0  1.027794  0
C  C20  1  0.80893638  0.13909771  0.34833095  1  0  0.227003  0.469247  0  4.121481  0
C  C21  1  0.69106149  0.36090260  0.84833087  1  0  0.226969  0.469218  0  4.121478  0
C  C22  1  0.19106327  0.86090057  0.65166978  1  0  0.227047  0.46925  0  4.121448  0
C  C23  1  0.30893649  0.63909779  0.15166936  1  0  0.227014  0.469294  0  4.121451  0
C  C24  1  0.86053317  0.31271032  0.43176316  1  0  0.077348  0.101558  0  3.948553  0
C  C25  1  0.63946686  0.18728977  0.93176319  1  0  0.077393  0.101664  0  3.948393  0
C  C26  1  0.13946856  0.68728796  0.56823659  1  0  0.077386  0.101591  0  3.948425  0
C  C27  1  0.36053299  0.81270957  0.06823754  1  0  0.077411  0.101692  0  3.948379  0
C  C28  1  0.62139885  0.25383911  0.46565264  1  0  0.071542  -0.000713  0  3.956932  0
C  C29  1  0.87860498  0.24615878  0.96565216  1  0  0.071476  -0.000705  0  3.956778  0
C  C30  1  0.37860121  0.74616128  0.53434760  1  0  0.071474  -0.000651  0  3.956727  0
C  C31  1  0.12139487  0.75384056  0.03434808  1  0  0.071479  -0.000704  0  3.956766  0
C  C32  1  0.47394044  0.13288469  0.44127715  1  0  -0.050871  -0.095322  0  3.973138  0
C  C33  1  0.02605821  0.36711539  0.94127755  1  0  -0.050868  -0.095345  0  3.973007  0
C  C34  1  0.52605941  0.86711465  0.55872309  1  0  -0.05084  -0.09529  0  3.973103  0
C  C35  1  0.97394185  0.63288500  0.05872220  1  0  -0.050878  -0.095374  0  3.972936  0
C  C36  1  0.56619005  0.07373110  0.38410886  1  0  0.073348  -0.077316  0  3.828626  0
C  C37  1  0.93380826  0.42627122  0.88410975  1  0  0.073367  -0.077333  0  3.828551  0
C  C38  1  0.43380980  0.92626823  0.61589089  1  0  0.073328  -0.077382  0  3.828638  0
C  C39  1  0.06619180  0.57372917  0.11589098  1  0  0.073383  -0.07734  0  3.828565  0
N  N40  1  0.40764527  0.94666209  0.36201345  1  0  0.023211  0.537622  0  4.201984  0
N  N41  1  0.09235346  0.55333994  0.86201355  1  0  0.023227  0.537674  0  4.201817  0
N  N42  1  0.59235459  0.05333725  0.63798679  1  0  0.023255  0.537713  0  4.201728  0
N  N43  1  0.90764472  0.44666151  0.13798619  1  0  0.023266  0.537739  0  4.201779  0
N  N44  1  0.53032649  0.31680988  0.52464051  1  0  0.035748  0.524159  0  4.237381  0
N  N45  1  0.96967309  0.18319129  0.02464057  1  0  0.035737  0.524116  0  4.237338  0
N  N46  1  0.46967357  0.68319051  0.47535923  1  0  0.035748  0.524127  0  4.23729  0
N  N47  1  0.03032489  0.81680910  0.97535917  1  0  0.035774  0.524192  0  4.237258  0
N  N48  1  0.94871041  0.25942974  0.37674492  1  0  -0.312278  -0.33265  0  3.281056  0
N  N49  1  0.55128749  0.24057050  0.87674491  1  0  -0.312266  -0.332696  0  3.281038  0
N  N50  1  0.05128924  0.74056855  0.62325483  1  0  -0.312269  -0.332679  0  3.280993  0
N  N51  1  0.44870821  0.75942884  0.12325533  1  0  -0.312286  -0.332739  0  3.281085  0
O  O52  1  0.91382498  0.88128275  0.20038052  1  0  -0.709753  -0.832452  0  2.023779  0
O  O53  1  0.58617476  0.61871863  0.70038107  1  0  -0.709752  -0.832452  0  2.023731  0
O  O54  1  0.08617527  0.11871870  0.79961923  1  0  -0.709742  -0.832429  0  2.023804  0
O  O55  1  0.41382530  0.38128176  0.29961966  1  0  -0.709754  -0.832514  0  2.023666  0
O  O56  1  0.89973157  0.09610533  0.29506295  1  0  -0.369186  -0.541524  0  2.252052  0
O  O57  1  0.60026623  0.40389513  0.79506284  1  0  -0.369179  -0.5415  0  2.252012  0
O  O58  1  0.10026808  0.90389296  0.70493729  1  0  -0.369198  -0.541489  0  2.251995  0
O  O59  1  0.39973154  0.59610421  0.20493740  1  0  -0.369216  -0.541552  0  2.252016  0
O  O60  1  0.47503979  0.88841185  0.31001277  1  0  -0.202902  -0.400147  0  2.03853  0
O  O61  1  0.02496096  0.61159030  0.81001283  1  0  -0.202914  -0.400189  0  2.038493  0
O  O62  1  0.52495819  0.11158854  0.68998698  1  0  -0.202903  -0.400154  0  2.03843  0
O  O63  1  0.97504117  0.38841009  0.18998741  1  0  -0.202944  -0.40021  0  2.038423  0
O  O64  1  0.20481000  0.89756489  0.39610357  1  0  -0.177907  -0.378056  0  1.999443  0
O  O65  1  0.29519064  0.60243599  0.89610317  1  0  -0.177929  -0.378072  0  1.999377  0
O  O66  1  0.79519005  0.10243550  0.60389666  1  0  -0.177957  -0.378109  0  1.999285  0
O  O67  1  0.70480941  0.39756441  0.10389657  1  0  -0.177951  -0.378111  0  1.999368  0
O  O68  1  0.30436743  0.26711881  0.54959781  1  0  -0.195141  -0.387825  0  2.01174  0
O  O69  1  0.19563493  0.23288230  0.04959781  1  0  -0.195163  -0.387855  0  2.011723  0
O  O70  1  0.69563470  0.73288158  0.45040243  1  0  -0.195152  -0.387849  0  2.011728  0
O  O71  1  0.80436533  0.76711914  0.95040243  1  0  -0.195153  -0.387855  0  2.011737  0
O  O72  1  0.67837945  0.41843663  0.54913354  1  0  -0.154486  -0.387146  0  2.001223  0
O  O73  1  0.82162619  0.08156342  0.04913315  1  0  -0.154449  -0.387098  0  2.001232  0
O  O74  1  0.32162456  0.58156271  0.45086670  1  0  -0.154477  -0.387144  0  2.001242  0
O  O75  1  0.17837782  0.91843591  0.95086659  1  0  -0.154486  -0.38718  0  2.001209  0
