# generated using pymatgen
data_AgH9C8SN2
_symmetry_space_group_name_H-M   'P 1'
_cell_length_a   8.03870820
_cell_length_b   8.40518996
_cell_length_c   13.26137074
_cell_angle_alpha   99.96617311
_cell_angle_beta   89.99996562
_cell_angle_gamma   90.00001065
_symmetry_Int_Tables_number   1
_chemical_formula_structural   AgH9C8SN2
_chemical_formula_sum   'Ag4 H36 C32 S4 N8'
_cell_volume   882.50831464
_cell_formula_units_Z   4
loop_
 _symmetry_equiv_pos_site_id
 _symmetry_equiv_pos_as_xyz
  1  'x, y, z'
loop_
 _atom_site_type_symbol
 _atom_site_label
 _atom_site_symmetry_multiplicity
 _atom_site_fract_x
 _atom_site_fract_y
 _atom_site_fract_z
 _atom_site_occupancy
 _atom_site_hle17_bader_spin_density
 _atom_site_hle17_ddec_charge
 _atom_site_hle17_ddec_spin_density
 _atom_site_hle17_ddec_sum_bond_order
 _atom_site_hle17_magmom
 _atom_site_hse06_10hf_bader_spin_density
 _atom_site_hse06_10hf_ddec_charge
 _atom_site_hse06_10hf_ddec_spin_density
 _atom_site_hse06_10hf_ddec_sum_bond_order
 _atom_site_hse06_10hf_magmom
 _atom_site_hse06_bader_spin_density
 _atom_site_hse06_ddec_charge
 _atom_site_hse06_ddec_spin_density
 _atom_site_hse06_ddec_sum_bond_order
 _atom_site_hse06_magmom
 _atom_site_pbe_bader_spin_density
 _atom_site_pbe_cm5_charge
 _atom_site_pbe_ddec_charge
 _atom_site_pbe_ddec_spin_density
 _atom_site_pbe_ddec_sum_bond_order
 _atom_site_pbe_magmom
Ag  Ag0  1  0.94287006  0.82773840  0.86204591  1  0  0.490815  0  1.662497  0  0  0.371761  0  2.140949  0  0  0.392742  0  2.100421  0  0  0.434691  0.357791  0  2.168531  0
Ag  Ag1  1  0.44286937  0.17226182  0.63794874  1  0  0.490779  0  1.66248  0  0  0.371701  0  2.140947  0  0  0.392687  0  2.100412  0  0  0.434689  0.357732  0  2.168538  0
Ag  Ag2  1  0.05712853  0.17226290  0.13794870  1  0  0.490816  0  1.662418  0  0  0.371738  0  2.140904  0  0  0.392723  0  2.100372  0  0  0.434682  0.357768  0  2.168491  0
Ag  Ag3  1  0.55713296  0.82774487  0.36206072  1  0  0.490831  0  1.662328  0  0  0.371767  0  2.140793  0  0  0.392755  0  2.100255  0  0  0.434713  0.357798  0  2.168378  0
H  H4  1  0.59751725  0.79592746  0.96384201  1  0  0.117455  0  0.972739  0  0  0.136393  0  1.038387  0  0  0.137199  0  1.039184  0  0  0.085177  0.135796  0  1.037851  0
H  H5  1  0.09751542  0.20407164  0.53615568  1  0  0.117441  0  0.972765  0  0  0.136378  0  1.038414  0  0  0.137183  0  1.039214  0  0  0.085164  0.135778  0  1.037883  0
H  H6  1  0.40248631  0.20407637  0.03615586  1  0  0.11747  0  0.97272  0  0  0.136399  0  1.038378  0  0  0.137204  0  1.039177  0  0  0.085177  0.1358  0  1.037843  0
H  H7  1  0.90248814  0.79592270  0.46384582  1  0  0.117438  0  0.97274  0  0  0.136369  0  1.038397  0  0  0.13717  0  1.039201  0  0  0.085187  0.135772  0  1.03786  0
H  H8  1  0.58811780  0.77269099  0.82947432  1  0  0.123098  0  0.953708  0  0  0.144709  0  1.015654  0  0  0.145586  0  1.0161  0  0  0.092814  0.144037  0  1.015407  0
H  H9  1  0.08811335  0.22730929  0.67052272  1  0  0.123123  0  0.95369  0  0  0.144735  0  1.015615  0  0  0.145612  0  1.016059  0  0  0.092844  0.144066  0  1.015364  0
H  H10  1  0.41188826  0.22731284  0.17052355  1  0  0.123169  0  0.953671  0  0  0.144784  0  1.015586  0  0  0.145659  0  1.016034  0  0  0.092866  0.144115  0  1.015337  0
H  H11  1  0.91188897  0.77268626  0.32947889  1  0  0.123149  0  0.953743  0  0  0.144785  0  1.015618  0  0  0.145663  0  1.016061  0  0  0.092868  0.144113  0  1.015367  0
H  H12  1  0.43404574  0.68027767  0.89666554  1  0  0.117478  0  0.971299  0  0  0.138027  0  1.033178  0  0  0.138754  0  1.035001  0  0  0.086707  0.137498  0  1.031892  0
H  H13  1  0.93404658  0.31972258  0.60332987  1  0  0.117488  0  0.971291  0  0  0.138038  0  1.033158  0  0  0.138766  0  1.03498  0  0  0.086703  0.137505  0  1.031882  0
H  H14  1  0.56595659  0.31972608  0.10333006  1  0  0.117446  0  0.97132  0  0  0.137993  0  1.03319  0  0  0.138722  0  1.035011  0  0  0.086673  0.137462  0  1.031911  0
H  H15  1  0.06595699  0.68027047  0.39666924  1  0  0.117467  0  0.971236  0  0  0.137986  0  1.03315  0  0  0.138715  0  1.034971  0  0  0.086664  0.137455  0  1.031872  0
H  H16  1  0.46926530  0.39558034  0.88615897  1  0  0.109567  0  0.960894  0  0  0.122641  0  1.018428  0  0  0.124993  0  1.01908  0  0  0.103903  0.120985  0  1.018103  0
H  H17  1  0.96926495  0.60441890  0.61384161  1  0  0.109562  0  0.960932  0  0  0.122661  0  1.018428  0  0  0.125013  0  1.019081  0  0  0.103902  0.121004  0  1.018113  0
H  H18  1  0.53073329  0.60442473  0.11383977  1  0  0.109558  0  0.960907  0  0  0.122649  0  1.018421  0  0  0.124998  0  1.019082  0  0  0.103901  0.120994  0  1.01809  0
H  H19  1  0.03073489  0.39557544  0.38615989  1  0  0.109557  0  0.960919  0  0  0.12265  0  1.018424  0  0  0.125004  0  1.019076  0  0  0.103897  0.120994  0  1.018101  0
H  H20  1  0.65476026  0.15281637  0.86327557  1  0  0.096065  0  0.945721  0  0  0.107045  0  1.006016  0  0  0.108895  0  1.005089  0  0  0.103956  0.105665  0  1.006732  0
H  H21  1  0.15476096  0.84718047  0.63672566  1  0  0.096024  0  0.945761  0  0  0.106997  0  1.006052  0  0  0.108847  0  1.005126  0  0  0.103944  0.105614  0  1.006759  0
H  H22  1  0.34523584  0.84718508  0.13672284  1  0  0.096015  0  0.945807  0  0  0.107014  0  1.006084  0  0  0.108863  0  1.005158  0  0  0.103941  0.105632  0  1.006795  0
H  H23  1  0.84523514  0.15281390  0.36327660  1  0  0.096027  0  0.945795  0  0  0.107025  0  1.006075  0  0  0.108875  0  1.005149  0  0  0.103942  0.105644  0  1.006785  0
H  H24  1  0.96283091  0.19303613  0.85472884  1  0  0.100146  0  0.982733  0  0  0.105434  0  1.056445  0  0  0.10811  0  1.056252  0  0  0.095358  0.103487  0  1.05676  0
H  H25  1  0.46283159  0.80696547  0.64527045  1  0  0.100148  0  0.982723  0  0  0.105442  0  1.056428  0  0  0.108118  0  1.056233  0  0  0.09535  0.103497  0  1.056739  0
H  H26  1  0.03716395  0.80696532  0.14526956  1  0  0.100098  0  0.982773  0  0  0.105403  0  1.056465  0  0  0.108077  0  1.05627  0  0  0.095342  0.10346  0  1.056773  0
H  H27  1  0.53716575  0.19303609  0.35473097  1  0  0.100147  0  0.982773  0  0  0.105454  0  1.056452  0  0  0.108128  0  1.056255  0  0  0.095366  0.103509  0  1.056766  0
H  H28  1  0.15559058  0.56258846  0.81270539  1  0  0.107049  0  0.990445  0  0  0.125769  0  1.059613  0  0  0.127015  0  1.059792  0  0  0.085439  0.124829  0  1.059582  0
H  H29  1  0.65559260  0.43741200  0.68729617  1  0  0.107031  0  0.990429  0  0  0.125741  0  1.059604  0  0  0.126989  0  1.059777  0  0  0.08544  0.1248  0  1.059574  0
H  H30  1  0.84441050  0.43741189  0.18729592  1  0  0.107048  0  0.990427  0  0  0.12576  0  1.05961  0  0  0.12701  0  1.059776  0  0  0.085442  0.124819  0  1.059579  0
H  H31  1  0.34440972  0.56258836  0.31270514  1  0  0.107033  0  0.990451  0  0  0.125751  0  1.059621  0  0  0.126998  0  1.059798  0  0  0.085435  0.12481  0  1.059592  0
H  H32  1  0.16675524  0.54393000  0.94278756  1  0  0.114287  0  0.985927  0  0  0.133286  0  1.05364  0  0  0.133544  0  1.055911  0  0  0.090914  0.133081  0  1.052118  0
H  H33  1  0.66675616  0.45607164  0.55721336  1  0  0.114283  0  0.985919  0  0  0.133271  0  1.053645  0  0  0.133528  0  1.055916  0  0  0.090894  0.133065  0  1.052121  0
H  H34  1  0.83324460  0.45607035  0.05721376  1  0  0.114242  0  0.985892  0  0  0.133241  0  1.053619  0  0  0.133498  0  1.05589  0  0  0.090881  0.133035  0  1.052093  0
H  H35  1  0.33324493  0.54392989  0.44278731  1  0  0.114284  0  0.985927  0  0  0.133285  0  1.053633  0  0  0.133542  0  1.055904  0  0  0.090911  0.13308  0  1.052104  0
H  H36  1  0.19404945  0.36905696  0.84648170  1  0  0.123183  0  0.963518  0  0  0.142648  0  1.025591  0  0  0.143819  0  1.025607  0  0  0.091665  0.141777  0  1.025615  0
H  H37  1  0.69404783  0.63094468  0.65351920  1  0  0.123156  0  0.963537  0  0  0.142621  0  1.025596  0  0  0.143791  0  1.025613  0  0  0.091655  0.141748  0  1.025619  0
H  H38  1  0.80595287  0.63094339  0.15351961  1  0  0.123166  0  0.963537  0  0  0.142608  0  1.025637  0  0  0.143779  0  1.025653  0  0  0.09165  0.141737  0  1.02566  0
H  H39  1  0.30595201  0.36905689  0.34648222  1  0  0.123182  0  0.963496  0  0  0.142643  0  1.025572  0  0  0.143814  0  1.025589  0  0  0.091665  0.14177  0  1.025596  0
C  C40  1  0.27528387  0.03804535  0.84294740  1  0  0.288169  0  3.971856  0  0  0.276963  0  4.258402  0  0  0.296396  0  4.273665  0  0  0.146853  0.263704  0  4.247796  0
C  C41  1  0.77528479  0.96194999  0.65704609  1  0  0.288131  0  3.97169  0  0  0.276928  0  4.258242  0  0  0.296363  0  4.273502  0  0  0.146816  0.26367  0  4.247631  0
C  C42  1  0.72470851  0.96195521  0.15705921  1  0  0.288178  0  3.972165  0  0  0.27697  0  4.258708  0  0  0.296401  0  4.273969  0  0  0.146825  0.263713  0  4.248102  0
C  C43  1  0.22471131  0.03804883  0.34294678  1  0  0.288254  0  3.971935  0  0  0.277052  0  4.258473  0  0  0.296484  0  4.273735  0  0  0.146903  0.263793  0  4.247867  0
C  C44  1  0.67286395  0.56198115  0.88513852  1  0  0.313321  0  3.736022  0  0  0.321663  0  3.973086  0  0  0.331546  0  3.992819  0  0  0.116539  0.315104  0  3.959542  0
C  C45  1  0.17286209  0.43801920  0.61486001  1  0  0.313336  0  3.735977  0  0  0.321692  0  3.97302  0  0  0.331574  0  3.992753  0  0  0.116514  0.315131  0  3.959479  0
C  C46  1  0.32713713  0.43802271  0.11486011  1  0  0.313371  0  3.736019  0  0  0.321722  0  3.973061  0  0  0.331607  0  3.99279  0  0  0.116517  0.315156  0  3.959533  0
C  C47  1  0.82713774  0.56197874  0.38514108  1  0  0.313449  0  3.735928  0  0  0.321758  0  3.973033  0  0  0.331641  0  3.992763  0  0  0.116552  0.31519  0  3.959506  0
C  C48  1  0.60356673  0.40843755  0.88152115  1  0  -0.191381  0  3.713162  0  0  -0.207376  0  3.958415  0  0  -0.216208  0  3.979031  0  0  -0.093914  -0.201799  0  3.944774  0
C  C49  1  0.10356739  0.59156285  0.61847892  1  0  -0.191475  0  3.713292  0  0  -0.207498  0  3.958547  0  0  -0.216332  0  3.979165  0  0  -0.093941  -0.201923  0  3.944902  0
C  C50  1  0.39643186  0.59156752  0.11847759  1  0  -0.191482  0  3.713313  0  0  -0.207503  0  3.958586  0  0  -0.216338  0  3.979203  0  0  -0.093949  -0.201921  0  3.944945  0
C  C51  1  0.89643244  0.40843389  0.38152206  1  0  -0.191527  0  3.713281  0  0  -0.207528  0  3.95856  0  0  -0.216363  0  3.979179  0  0  -0.093963  -0.201947  0  3.944917  0
C  C52  1  0.70702116  0.27361774  0.86897908  1  0  0.004944  0  3.764514  0  0  -0.015977  0  4.020689  0  0  -0.010149  0  4.037769  0  0  -0.073175  -0.019618  0  4.009191  0
C  C53  1  0.20701935  0.72638146  0.63102084  1  0  0.00519  0  3.764577  0  0  -0.015704  0  4.020708  0  0  -0.009878  0  4.03779  0  0  -0.073087  -0.01934  0  4.009198  0
C  C54  1  0.29297868  0.72638491  0.13101944  1  0  0.005152  0  3.764712  0  0  -0.015775  0  4.020861  0  0  -0.009949  0  4.037941  0  0  -0.07311  -0.019412  0  4.009354  0
C  C55  1  0.79297800  0.27361527  0.36898013  1  0  0.005107  0  3.764654  0  0  -0.015822  0  4.020809  0  0  -0.009997  0  4.037889  0  0  -0.073137  -0.019461  0  4.009306  0
C  C56  1  0.87823026  0.29574472  0.86330332  1  0  -0.182628  0  3.701471  0  0  -0.197934  0  3.945404  0  0  -0.207459  0  3.967619  0  0  -0.093341  -0.191864  0  3.930683  0
C  C57  1  0.37822720  0.70425690  0.63669676  1  0  -0.182764  0  3.701651  0  0  -0.19806  0  3.945618  0  0  -0.207586  0  3.967833  0  0  -0.093375  -0.191992  0  3.930894  0
C  C58  1  0.12177082  0.70425796  0.13669595  1  0  -0.182661  0  3.701655  0  0  -0.197983  0  3.9456  0  0  -0.207505  0  3.967812  0  0  -0.093343  -0.191917  0  3.930875  0
C  C59  1  0.62177015  0.29574222  0.36330368  1  0  -0.182706  0  3.701634  0  0  -0.198032  0  3.945567  0  0  -0.207554  0  3.967779  0  0  -0.093356  -0.191964  0  3.930848  0
C  C60  1  0.94178900  0.45193986  0.86892177  1  0  0.316954  0  3.720126  0  0  0.326854  0  3.953461  0  0  0.336696  0  3.973402  0  0  0.118191  0.32032  0  3.939827  0
C  C61  1  0.44178715  0.54806059  0.63107893  1  0  0.316977  0  3.720129  0  0  0.326811  0  3.953546  0  0  0.336652  0  3.973487  0  0  0.118194  0.320278  0  3.939915  0
C  C62  1  0.05821208  0.54806165  0.13107814  1  0  0.316882  0  3.720266  0  0  0.326801  0  3.953574  0  0  0.336641  0  3.973517  0  0  0.118185  0.320268  0  3.939944  0
C  C63  1  0.55821269  0.45193856  0.36892227  1  0  0.316923  0  3.720241  0  0  0.326861  0  3.953531  0  0  0.336703  0  3.973472  0  0  0.118186  0.320325  0  3.939901  0
C  C64  1  0.56640780  0.70951177  0.89431047  1  0  -0.389385  0  3.722643  0  0  -0.470679  0  3.954155  0  0  -0.474092  0  3.963101  0  0  -0.251358  -0.468067  0  3.94784  0
C  C65  1  0.06640592  0.29048730  0.60568647  1  0  -0.389425  0  3.722623  0  0  -0.470707  0  3.954128  0  0  -0.47412  0  3.963074  0  0  -0.251371  -0.468093  0  3.947806  0
C  C66  1  0.43359452  0.29049203  0.10568664  1  0  -0.389438  0  3.722596  0  0  -0.470703  0  3.954088  0  0  -0.474115  0  3.963035  0  0  -0.251355  -0.46809  0  3.947766  0
C  C67  1  0.93359640  0.70950822  0.39431439  1  0  -0.389424  0  3.722606  0  0  -0.470675  0  3.954137  0  0  -0.474086  0  3.963086  0  0  -0.251371  -0.468062  0  3.947813  0
C  C68  1  0.12505081  0.48241479  0.86714074  1  0  -0.384879  0  3.700213  0  0  -0.466876  0  3.932511  0  0  -0.469472  0  3.939399  0  0  -0.251188  -0.464865  0  3.927684  0
C  C69  1  0.62505291  0.51758564  0.63286007  1  0  -0.384822  0  3.700113  0  0  -0.466781  0  3.932456  0  0  -0.469374  0  3.939344  0  0  -0.251169  -0.464768  0  3.927627  0
C  C70  1  0.87494778  0.51758557  0.13286057  1  0  -0.384767  0  3.700151  0  0  -0.466765  0  3.932474  0  0  -0.469357  0  3.939362  0  0  -0.25115  -0.464753  0  3.927644  0
C  C71  1  0.37494817  0.48241589  0.36714060  1  0  -0.384825  0  3.700189  0  0  -0.46684  0  3.932497  0  0  -0.469436  0  3.939386  0  0  -0.251182  -0.464828  0  3.927665  0
S  S72  1  0.19820562  0.96033727  0.93821834  1  0  -0.355438  0  2.455738  0  0  -0.307024  0  2.857147  0  0  -0.322965  0  2.841048  0  0  -0.15115  -0.295965  0  2.867943  0
S  S73  1  0.69820643  0.03966176  0.56177704  1  0  -0.355345  0  2.455829  0  0  -0.306917  0  2.857222  0  0  -0.322869  0  2.841143  0  0  -0.151092  -0.295855  0  2.868017  0
S  S74  1  0.80178676  0.03966429  0.06178309  1  0  -0.355481  0  2.45556  0  0  -0.307051  0  2.856929  0  0  -0.323011  0  2.840866  0  0  -0.151162  -0.29599  0  2.867727  0
S  S75  1  0.30178469  0.96034090  0.43822147  1  0  -0.3555  0  2.455677  0  0  -0.307085  0  2.857069  0  0  -0.32304  0  2.840992  0  0  -0.151192  -0.296025  0  2.867864  0
N  N76  1  0.83277533  0.90511107  0.72494171  1  0  -0.508925  0  2.948209  0  0  -0.452037  0  3.249486  0  0  -0.469792  0  3.25247  0  0  -0.396932  -0.44  0  3.247368  0
N  N77  1  0.33277200  0.09488075  0.77505369  1  0  -0.508837  0  2.948335  0  0  -0.451922  0  3.249572  0  0  -0.469678  0  3.252558  0  0  -0.396863  -0.439887  0  3.247462  0
N  N78  1  0.16723072  0.09488190  0.27505513  1  0  -0.508901  0  2.948534  0  0  -0.451998  0  3.249783  0  0  -0.469751  0  3.252768  0  0  -0.396909  -0.439962  0  3.247667  0
N  N79  1  0.66722784  0.90512329  0.22494948  1  0  -0.508832  0  2.948748  0  0  -0.451933  0  3.249991  0  0  -0.469684  0  3.252975  0  0  -0.39684  -0.439902  0  3.247886  0
N  N80  1  0.83946908  0.58173531  0.87811038  1  0  -0.409941  0  3.184933  0  0  -0.335364  0  3.446328  0  0  -0.355224  0  3.460338  0  0  -0.341192  -0.321965  0  3.436578  0
N  N81  1  0.33946846  0.41826387  0.62188874  1  0  -0.409963  0  3.184961  0  0  -0.335362  0  3.44636  0  0  -0.355221  0  3.46037  0  0  -0.341183  -0.321966  0  3.436618  0
N  N82  1  0.16053200  0.41826493  0.12188791  1  0  -0.409947  0  3.185045  0  0  -0.335374  0  3.446418  0  0  -0.355234  0  3.460428  0  0  -0.341166  -0.321977  0  3.436679  0
N  N83  1  0.66053262  0.58173652  0.37811333  1  0  -0.409962  0  3.184971  0  0  -0.335394  0  3.446377  0  0  -0.355253  0  3.460384  0  0  -0.341166  -0.321994  0  3.436634  0
