# generated using pymatgen
data_CdH16C20S2(NO2)4
_symmetry_space_group_name_H-M   'P 1'
_cell_length_a   7.13736863
_cell_length_b   9.54176585
_cell_length_c   16.37100000
_cell_angle_alpha   82.71741490
_cell_angle_beta   82.22801012
_cell_angle_gamma   86.22483364
_symmetry_Int_Tables_number   1
_chemical_formula_structural   CdH16C20S2(NO2)4
_chemical_formula_sum   'Cd2 H32 C40 S4 N8 O16'
_cell_volume   1094.41692278
_cell_formula_units_Z   2
loop_
 _symmetry_equiv_pos_site_id
 _symmetry_equiv_pos_as_xyz
  1  'x, y, z'
loop_
 _atom_site_type_symbol
 _atom_site_label
 _atom_site_symmetry_multiplicity
 _atom_site_fract_x
 _atom_site_fract_y
 _atom_site_fract_z
 _atom_site_occupancy
 _atom_site_pbe_bader_charge
 _atom_site_pbe_bader_spin_density
 _atom_site_pbe_cm5_charge
 _atom_site_pbe_ddec_charge
 _atom_site_pbe_ddec_spin_density
 _atom_site_pbe_ddec_sum_bond_order
 _atom_site_pbe_magmom
Cd  Cd0  1  0.68044313  0.00104198  0.23212384  1  1.248786  0  0.820513  0.819584  0  2.186618  0
Cd  Cd1  1  0.31955160  0.99897639  0.76787456  1  1.248691  0  0.820495  0.819511  0  2.186738  0
H  H2  1  0.81712495  0.67702078  0.30250557  1  0.094478  0  0.115722  0.083056  0  1.01992  0
H  H3  1  0.18285938  0.32298384  0.69748836  1  0.094888  0  0.115728  0.083097  0  1.019823  0
H  H4  1  0.91931172  0.54651530  0.43022116  1  0.132463  0  0.108365  0.118294  0  1.022036  0
H  H5  1  0.08068888  0.45347875  0.56976526  1  0.132074  0  0.108392  0.118341  0  1.02187  0
H  H6  1  0.89851911  0.67475275  0.55921206  1  0.169507  0  0.107793  0.116519  0  1.031499  0
H  H7  1  0.10148939  0.32522860  0.44077910  1  0.16952  0  0.107814  0.116559  0  1.031456  0
H  H8  1  0.79664081  0.92739191  0.54806456  1  0.11415  0  0.107796  0.117922  0  1.045411  0
H  H9  1  0.20336508  0.07258626  0.45193493  1  0.114282  0  0.107803  0.117832  0  1.045309  0
H  H10  1  0.73277669  0.13334368  0.53227186  1  0.15165  0  0.110161  0.134766  0  1.035934  0
H  H11  1  0.26722941  0.86663132  0.46773153  1  0.151373  0  0.11018  0.134827  0  1.035824  0
H  H12  1  0.63503669  0.38620605  0.50770036  1  0.090596  0  0.109895  0.104304  0  0.987843  0
H  H13  1  0.36496969  0.61376472  0.49231615  1  0.090788  0  0.109934  0.104447  0  0.987887  0
H  H14  1  0.51531700  0.48148523  0.37145263  1  0.084753  0  0.110115  0.11222  0  1.000942  0
H  H15  1  0.48467928  0.51850987  0.62857000  1  0.085297  0  0.110104  0.112163  0  1.000835  0
H  H16  1  0.51460119  0.31670764  0.26502215  1  0.152058  0  0.117861  0.095716  0  1.022918  0
H  H17  1  0.48539411  0.68330227  0.73499211  1  0.151029  0  0.117809  0.095654  0  1.023029  0
H  H18  1  0.80729475  0.31271639  0.14281772  1  0.127855  0  0.115685  0.087005  0  1.034571  0
H  H19  1  0.19273435  0.68729564  0.85717179  1  0.128673  0  0.1157  0.087014  0  1.034373  0
H  H20  1  0.88926104  0.43698586  0.00017996  1  0.095449  0  0.108528  0.109991  0  1.027572  0
H  H21  1  0.11078876  0.56301242  0.99981119  1  0.095527  0  0.108533  0.110056  0  1.027437  0
H  H22  1  0.89463232  0.30178989  0.87829193  1  0.147687  0  0.110565  0.119427  0  1.004202  0
H  H23  1  0.10538199  0.69821050  0.12170176  1  0.147905  0  0.110492  0.119206  0  1.004174  0
H  H24  1  0.80657329  0.05149597  0.90320523  1  0.126277  0  0.108075  0.125298  0  1.054202  0
H  H25  1  0.19340504  0.94851394  0.09678866  1  0.12627  0  0.108031  0.125205  0  1.054152  0
H  H26  1  0.71286924  0.86053707  0.92607567  1  0.115809  0  0.111006  0.133842  0  1.026685  0
H  H27  1  0.28711941  0.13946650  0.07392297  1  0.115653  0  0.111036  0.133953  0  1.026574  0
H  H28  1  0.63031413  0.61422489  0.96030004  1  0.127394  0  0.109368  0.113428  0  1.020883  0
H  H29  1  0.36969601  0.38577445  0.03970680  1  0.127198  0  0.109387  0.113486  0  1.020963  0
H  H30  1  0.54873228  0.51601441  0.11305138  1  0.131298  0  0.110293  0.122228  0  1.0306  0
H  H31  1  0.45127398  0.48400079  0.88695818  1  0.131043  0  0.110239  0.122109  0  1.030685  0
H  H32  1  0.57458719  0.67311838  0.21992517  1  0.083936  0  0.120499  0.086969  0  0.98187  0
H  H33  1  0.42539667  0.32691480  0.78007644  1  0.083954  0  0.120525  0.087025  0  0.981666  0
C  C34  1  0.80918162  0.72907741  0.35864888  1  0.507764  0  0.052131  0.106016  0  3.942141  0
C  C35  1  0.19080031  0.27092087  0.64134749  1  0.507178  0  0.052061  0.105903  0  3.941958  0
C  C36  1  0.86727088  0.65614100  0.43083948  1  -0.049867  0  -0.07923  -0.117211  0  3.940025  0
C  C37  1  0.13272016  0.34384775  0.56915156  1  -0.049258  0  -0.079221  -0.117234  0  3.939832  0
C  C38  1  0.86024312  0.72784713  0.50034357  1  -0.099156  0  -0.065272  -0.022652  0  3.942566  0
C  C39  1  0.13976093  0.27213739  0.49964885  1  -0.099385  0  -0.065245  -0.022688  0  3.942498  0
C  C40  1  0.80035985  0.87020367  0.49446503  1  0.002848  0  -0.077393  -0.143627  0  3.909426  0
C  C41  1  0.19964435  0.12977874  0.50553425  1  0.002893  0  -0.077397  -0.143508  0  3.90923  0
C  C42  1  0.74437303  0.93732298  0.41989075  1  0.526121  0  0.11919  0.164395  0  3.979282  0
C  C43  1  0.25561653  0.06266683  0.58011068  1  0.525881  0  0.119178  0.164415  0  3.979003  0
C  C44  1  0.68334929  0.08995399  0.40990968  1  0.472206  0  0.121445  0.172563  0  3.970156  0
C  C45  1  0.31663773  0.91003159  0.59009527  1  0.471749  0  0.121374  0.17248  0  3.970206  0
C  C46  1  0.68678427  0.17581728  0.47301084  1  -0.020928  0  -0.077268  -0.150311  0  3.900296  0
C  C47  1  0.31321158  0.82416301  0.52699886  1  -0.019964  0  -0.077238  -0.150283  0  3.900513  0
C  C48  1  0.63010143  0.31840231  0.45926746  1  -0.03729  0  -0.062717  -0.021951  0  3.967012  0
C  C49  1  0.36989993  0.68158010  0.54074481  1  -0.037591  0  -0.062899  -0.022453  0  3.967304  0
C  C50  1  0.56626754  0.37190290  0.38423056  1  -0.030171  0  -0.074702  -0.112292  0  3.956526  0
C  C51  1  0.43372867  0.62809325  0.61578711  1  -0.030457  0  -0.074579  -0.11187  0  3.956604  0
C  C52  1  0.56620385  0.28064248  0.32424980  1  0.4943  0  0.054541  0.112  0  3.926011  0
C  C53  1  0.43379067  0.71935791  0.67575911  1  0.494821  0  0.054616  0.111962  0  3.926637  0
C  C54  1  0.80415003  0.25849011  0.08833872  1  0.451104  0  0.051753  0.100482  0  3.930479  0
C  C55  1  0.19587065  0.74152086  0.91165503  1  0.450674  0  0.051605  0.100542  0  3.930339  0
C  C56  1  0.85230452  0.32695923  0.00872325  1  -0.013839  0  -0.078223  -0.11884  0  3.955686  0
C  C57  1  0.14772351  0.67304750  0.99126672  1  -0.014263  0  -0.078186  -0.119007  0  3.955406  0
C  C58  1  0.85337035  0.25154640  0.94115111  1  -0.032686  0  -0.063653  -0.013561  0  3.938661  0
C  C59  1  0.14663668  0.74845716  0.05884034  1  -0.032349  0  -0.063554  -0.013151  0  3.938198  0
C  C60  1  0.80336676  0.11136163  0.95553831  1  -0.070508  0  -0.080961  -0.156654  0  3.922401  0
C  C61  1  0.19662154  0.88864722  0.04445202  1  -0.070306  0  -0.080868  -0.156533  0  3.922551  0
C  C62  1  0.75369492  0.04903436  0.03714362  1  0.543301  0  0.119284  0.163678  0  3.981723  0
C  C63  1  0.24629458  0.95097766  0.96285251  1  0.543106  0  0.119247  0.163606  0  3.981845  0
C  C64  1  0.69852066  0.89962238  0.05508084  1  0.447548  0  0.119321  0.165704  0  3.976611  0
C  C65  1  0.30146580  0.10039282  0.94491523  1  0.446875  0  0.11932  0.165788  0  3.976455  0
C  C66  1  0.68605989  0.81740231  0.99108878  1  -0.007902  0  -0.075602  -0.145573  0  3.899792  0
C  C67  1  0.31393244  0.18260971  0.00890963  1  -0.006819  0  -0.075648  -0.145815  0  3.899878  0
C  C68  1  0.63582596  0.67751373  0.01079661  1  -0.049485  0  -0.065029  -0.025477  0  3.949491  0
C  C69  1  0.36416955  0.32249300  0.98920688  1  -0.049627  0  -0.065025  -0.025482  0  3.949747  0
C  C70  1  0.59448179  0.62298703  0.09385004  1  0.0206  0  -0.07602  -0.116708  0  3.943769  0
C  C71  1  0.40551909  0.37702394  0.90615527  1  0.021089  0  -0.076041  -0.116605  0  3.943831  0
C  C72  1  0.60770835  0.71105911  0.15418274  1  0.485025  0  0.056857  0.117817  0  3.93464  0
C  C73  1  0.39228752  0.28896350  0.84581956  1  0.484916  0  0.056757  0.117638  0  3.9346  0
S  S74  1  0.19261891  0.02024930  0.26376231  1  3.661695  0  0.576153  1.289776  0  6.316214  0
S  S75  1  0.80737468  0.97974368  0.73624231  1  3.661403  0  0.576106  1.289719  0  6.316353  0
S  S76  1  0.11863583  0.42108219  0.23707567  1  3.617121  0  0.563504  1.27145  0  6.363685  0
S  S77  1  0.88136731  0.57891608  0.76292189  1  3.617303  0  0.563537  1.271468  0  6.36384  0
N  N78  1  0.74627228  0.86510062  0.35380945  1  -1.248824  0  -0.32767  -0.272299  0  3.509826  0
N  N79  1  0.25370965  0.13489766  0.64619058  1  -1.248405  0  -0.327674  -0.27224  0  3.509581  0
N  N80  1  0.62563995  0.14432519  0.33665981  1  -1.23716  0  -0.329993  -0.272948  0  3.513737  0
N  N81  1  0.37435598  0.85567520  0.66334596  1  -1.237106  0  -0.329938  -0.272902  0  3.513714  0
N  N82  1  0.75653190  0.12293341  0.10207537  1  -1.238701  0  -0.325706  -0.249547  0  3.471253  0
N  N83  1  0.24346891  0.87707861  0.89791704  1  -1.238974  0  -0.325605  -0.249595  0  3.471175  0
N  N84  1  0.66031624  0.84487459  0.13561622  1  -1.228635  0  -0.326074  -0.271881  0  3.486233  0
N  N85  1  0.33967093  0.15515119  0.86438025  1  -1.228919  0  -0.325962  -0.271711  0  3.485961  0
O  O86  1  0.04033994  0.97910475  0.22206058  1  -1.330674  0  -0.333259  -0.600678  0  2.306879  0
O  O87  1  0.95965104  0.02088507  0.77794687  1  -1.330704  0  -0.333297  -0.60069  0  2.306755  0
O  O88  1  0.35586621  0.06544685  0.20382071  1  -1.318938  0  -0.334599  -0.606026  0  2.326687  0
O  O89  1  0.64412576  0.93454930  0.79617950  1  -1.318815  0  -0.334555  -0.605981  0  2.32694  0
O  O90  1  0.23998813  0.92702801  0.33604627  1  -1.3127  0  -0.325942  -0.577762  0  2.161996  0
O  O91  1  0.76001197  0.07297343  0.66395673  1  -1.312552  0  -0.325903  -0.577722  0  2.161891  0
O  O92  1  0.14609222  0.45817030  0.31790638  1  -1.320824  0  -0.338448  -0.603457  0  2.199573  0
O  O93  1  0.85391912  0.54183221  0.68208855  1  -1.320948  0  -0.338506  -0.603537  0  2.199598  0
O  O94  1  0.29322953  0.39732296  0.18215239  1  -1.325525  0  -0.334558  -0.598002  0  2.213656  0
O  O95  1  0.70678548  0.60266685  0.81784571  1  -1.32566  0  -0.334533  -0.597966  0  2.214092  0
O  O96  1  0.96602291  0.49998380  0.19742576  1  -1.311676  0  -0.333669  -0.592506  0  2.158474  0
O  O97  1  0.03399465  0.50001024  0.80256882  1  -1.31163  0  -0.333676  -0.592513  0  2.158213  0
O  O98  1  0.00879716  0.26484565  0.25551503  1  -0.547276  0  -0.130264  -0.248066  0  2.157932  0
O  O99  1  0.99120584  0.73515474  0.74448544  1  -0.547298  0  -0.130273  -0.248082  0  2.157964  0
O  O100  1  0.10861647  0.15959097  0.31210382  1  -0.591023  0  -0.120189  -0.226458  0  2.18319  0
O  O101  1  0.89138243  0.84040730  0.68789643  1  -0.59101  0  -0.120158  -0.226403  0  2.183164  0
