# generated using pymatgen
data_NdH16C12N3O11
_symmetry_space_group_name_H-M   'P 1'
_cell_length_a   9.15240889
_cell_length_b   8.68373303
_cell_length_c   12.85315238
_cell_angle_alpha   103.57700729
_cell_angle_beta   100.94059652
_cell_angle_gamma   115.94433669
_symmetry_Int_Tables_number   1
_chemical_formula_structural   NdH16C12N3O11
_chemical_formula_sum   'Nd2 H32 C24 N6 O22'
_cell_volume   841.43529395
_cell_formula_units_Z   2
loop_
 _symmetry_equiv_pos_site_id
 _symmetry_equiv_pos_as_xyz
  1  'x, y, z'
loop_
 _atom_site_type_symbol
 _atom_site_label
 _atom_site_symmetry_multiplicity
 _atom_site_fract_x
 _atom_site_fract_y
 _atom_site_fract_z
 _atom_site_occupancy
 _atom_site_hle17_bader_spin_density
 _atom_site_hle17_ddec_charge
 _atom_site_hle17_ddec_spin_density
 _atom_site_hle17_ddec_sum_bond_order
 _atom_site_hle17_magmom
 _atom_site_hse06_10hf_bader_spin_density
 _atom_site_hse06_10hf_ddec_charge
 _atom_site_hse06_10hf_ddec_spin_density
 _atom_site_hse06_10hf_ddec_sum_bond_order
 _atom_site_hse06_10hf_magmom
 _atom_site_hse06_bader_spin_density
 _atom_site_hse06_ddec_charge
 _atom_site_hse06_ddec_spin_density
 _atom_site_hse06_ddec_sum_bond_order
 _atom_site_hse06_magmom
 _atom_site_pbe_bader_spin_density
 _atom_site_pbe_cm5_charge
 _atom_site_pbe_ddec_charge
 _atom_site_pbe_ddec_spin_density
 _atom_site_pbe_ddec_sum_bond_order
 _atom_site_pbe_magmom
Nd  Nd0  1  0.28720595  0.02731844  0.99076486  1  0  2.31431  0  1.626576  0  0  2.15468  0  2.085549  0  0  2.248676  0  1.945384  0  0  1.475092  2.12061  0  2.121328  0
Nd  Nd1  1  0.71244238  0.97210626  0.00911720  1  0  2.313749  0  1.627347  0  0  2.154715  0  2.085538  0  0  2.248228  0  1.94622  0  0  1.474923  2.120332  0  2.121869  0
H  H2  1  0.19342472  0.79427316  0.11240818  1  0  0.428785  0  0.868856  0  0  0.401524  0  0.925562  0  0  0.411304  0  0.911421  0  0  0.304455  0.393928  0  0.936668  0
H  H3  1  0.80661996  0.20612844  0.88760539  1  0  0.42786  0  0.870357  0  0  0.400514  0  0.927284  0  0  0.410266  0  0.913179  0  0  0.303277  0.392955  0  0.938348  0
H  H4  1  0.08462996  0.63854519  0.99086405  1  0  0.426417  0  0.834576  0  0  0.403349  0  0.901046  0  0  0.411265  0  0.889893  0  0  0.321474  0.3974  0  0.907983  0
H  H5  1  0.91390982  0.35978638  0.00982540  1  0  0.425706  0  0.835838  0  0  0.402436  0  0.902954  0  0  0.410336  0  0.891796  0  0  0.321179  0.396491  0  0.909882  0
H  H6  1  0.14896571  0.15739181  0.82353722  1  0  0.437221  0  0.86011  0  0  0.408636  0  0.920476  0  0  0.417764  0  0.907183  0  0  0.306377  0.401911  0  0.930445  0
H  H7  1  0.85102202  0.84258897  0.17652284  1  0  0.4375  0  0.85983  0  0  0.408945  0  0.920129  0  0  0.418083  0  0.906815  0  0  0.306493  0.402213  0  0.93011  0
H  H8  1  0.09354505  0.22111482  0.92702004  1  0  0.453316  0  0.829363  0  0  0.426876  0  0.883948  0  0  0.435914  0  0.870999  0  0  0.312231  0.420064  0  0.893872  0
H  H9  1  0.90655580  0.77893134  0.07307346  1  0  0.453367  0  0.829463  0  0  0.42683  0  0.884202  0  0  0.435896  0  0.871209  0  0  0.312048  0.419996  0  0.894154  0
H  H10  1  0.56779520  0.12631324  0.39358999  1  0  0.124401  0  0.935893  0  0  0.13605  0  1.001408  0  0  0.138683  0  1.000045  0  0  0.108322  0.134164  0  1.002344  0
H  H11  1  0.43226385  0.87367111  0.60645935  1  0  0.124584  0  0.936146  0  0  0.136148  0  1.001686  0  0  0.138773  0  1.000328  0  0  0.108395  0.134271  0  1.002622  0
H  H12  1  0.41639172  0.89286792  0.34800154  1  0  0.13516  0  0.938936  0  0  0.150019  0  0.996211  0  0  0.152827  0  0.994329  0  0  0.109157  0.147906  0  0.997691  0
H  H13  1  0.58365733  0.10709807  0.65199612  1  0  0.135261  0  0.938902  0  0  0.150148  0  0.996017  0  0  0.152921  0  0.994174  0  0  0.109187  0.148039  0  0.997497  0
H  H14  1  0.64923889  0.92278668  0.48144699  1  0  0.074376  0  0.933617  0  0  0.088889  0  0.999868  0  0  0.089217  0  0.999989  0  0  0.113913  0.08853  0  0.999812  0
H  H15  1  0.35079708  0.07720114  0.51861112  1  0  0.073917  0  0.933905  0  0  0.088411  0  1.000193  0  0  0.088737  0  1.000321  0  0  0.113781  0.088053  0  1.000132  0
H  H16  1  0.67494116  0.83370847  0.35012973  1  0  0.093322  0  0.919669  0  0  0.109641  0  0.975154  0  0  0.111463  0  0.973638  0  0  0.120706  0.108139  0  0.976471  0
H  H17  1  0.32510126  0.16625427  0.64993184  1  0  0.093086  0  0.919964  0  0  0.109503  0  0.975263  0  0  0.111324  0  0.973761  0  0  0.120632  0.108  0  0.976574  0
H  H18  1  0.03274769  0.58189432  0.69505444  1  0  0.09294  0  0.960523  0  0  0.099632  0  1.033374  0  0  0.102078  0  1.031128  0  0  0.111951  0.097953  0  1.034942  0
H  H19  1  0.96723438  0.41808720  0.30493719  1  0  0.092921  0  0.960476  0  0  0.099716  0  1.033253  0  0  0.102151  0  1.031025  0  0  0.111938  0.098046  0  1.034811  0
H  H20  1  0.24173042  0.66830165  0.68316768  1  0  0.081402  0  0.948188  0  0  0.094419  0  1.013616  0  0  0.095461  0  1.013036  0  0  0.117134  0.093631  0  1.014023  0
H  H21  1  0.75824844  0.33172991  0.31682781  1  0  0.081455  0  0.947992  0  0  0.094485  0  1.013429  0  0  0.095531  0  1.012841  0  0  0.11709  0.093663  0  1.013887  0
H  H22  1  0.21248421  0.38222824  0.75590228  1  0  0.119466  0  0.947373  0  0  0.132116  0  1.006799  0  0  0.134901  0  1.00494  0  0  0.10763  0.130223  0  1.007949  0
H  H23  1  0.78734178  0.61767275  0.24408699  1  0  0.119441  0  0.947243  0  0  0.132116  0  1.006659  0  0  0.134884  0  1.004826  0  0  0.107671  0.13022  0  1.00781  0
H  H24  1  0.09134519  0.45241391  0.82633531  1  0  0.111904  0  0.929171  0  0  0.124681  0  0.987916  0  0  0.128166  0  0.984924  0  0  0.102938  0.12225  0  0.989878  0
H  H25  1  0.90877790  0.54784265  0.17378110  1  0  0.111449  0  0.928891  0  0  0.124197  0  0.98778  0  0  0.127688  0  0.984762  0  0  0.102763  0.121766  0  0.989754  0
H  H26  1  0.38644266  0.31680708  0.44481396  1  0  0.091423  0  0.946746  0  0  0.103168  0  1.013479  0  0  0.104856  0  1.011786  0  0  0.11675  0.101882  0  1.01478  0
H  H27  1  0.61352682  0.68323076  0.55510404  1  0  0.091166  0  0.947095  0  0  0.102936  0  1.013796  0  0  0.104629  0  1.01211  0  0  0.116622  0.101645  0  1.015104  0
H  H28  1  0.22433682  0.10206889  0.33637739  1  0  0.091692  0  0.919605  0  0  0.105655  0  0.980745  0  0  0.10768  0  0.978957  0  0  0.119297  0.104011  0  0.982452  0
H  H29  1  0.77560964  0.89795728  0.66355882  1  0  0.091661  0  0.919771  0  0  0.105766  0  0.980747  0  0  0.107778  0  0.978984  0  0  0.119319  0.104124  0  0.982443  0
H  H30  1  0.39280935  0.37822079  0.27648500  1  0  0.137494  0  0.932701  0  0  0.148294  0  0.993039  0  0  0.151463  0  0.99133  0  0  0.111832  0.145988  0  0.994358  0
H  H31  1  0.60706171  0.62184768  0.72346270  1  0  0.137342  0  0.932985  0  0  0.14809  0  0.993416  0  0  0.151248  0  0.991724  0  0  0.111737  0.145836  0  0.994686  0
H  H32  1  0.26979991  0.47113319  0.32914881  1  0  0.117392  0  0.927631  0  0  0.129387  0  0.987481  0  0  0.132022  0  0.985908  0  0  0.101064  0.127495  0  0.988409  0
H  H33  1  0.73001472  0.52885079  0.67079899  1  0  0.117574  0  0.927484  0  0  0.129471  0  0.987386  0  0  0.132095  0  0.985821  0  0  0.101237  0.127616  0  0.988295  0
C  C34  1  0.52571125  0.97506980  0.22401261  1  0  0.759422  0  3.807563  0  0  0.717026  0  4.104739  0  0  0.750711  0  4.097326  0  0  0.230236  0.69385  0  4.110809  0
C  C35  1  0.47446826  0.02497816  0.77605465  1  0  0.759935  0  3.806247  0  0  0.717176  0  4.103639  0  0  0.750867  0  4.096219  0  0  0.230561  0.694003  0  4.10972  0
C  C36  1  0.54289638  0.98889095  0.34632589  1  0  -0.311458  0  3.637801  0  0  -0.351421  0  3.889227  0  0  -0.357836  0  3.894821  0  0  -0.167519  -0.346584  0  3.884793  0
C  C37  1  0.45718599  0.01109967  0.65371927  1  0  -0.312148  0  3.638003  0  0  -0.351857  0  3.889073  0  0  -0.358235  0  3.894666  0  0  -0.167773  -0.347044  0  3.884668  0
C  C38  1  0.67679648  0.95103012  0.40650844  1  0  0.070037  0  3.598838  0  0  0.001907  0  3.864677  0  0  0.008923  0  3.873147  0  0  -0.055514  -0.002645  0  3.858709  0
C  C39  1  0.32324920  0.04894361  0.59355135  1  0  0.070981  0  3.598645  0  0  0.00285  0  3.864217  0  0  0.009849  0  3.872703  0  0  -0.055285  -0.001684  0  3.85823  0
C  C40  1  0.90223632  0.25508018  0.54297686  1  0  0.658535  0  3.835436  0  0  0.581545  0  4.15096  0  0  0.617073  0  4.146532  0  0  0.346088  0.557684  0  4.153208  0
C  C41  1  0.09779263  0.74491846  0.45704214  1  0  0.658567  0  3.836028  0  0  0.581514  0  4.151585  0  0  0.617043  0  4.147153  0  0  0.345966  0.55766  0  4.153827  0
C  C42  1  0.18954062  0.40264346  0.52547180  1  0  0.654801  0  3.842806  0  0  0.577636  0  4.155891  0  0  0.613189  0  4.151742  0  0  0.3485  0.553767  0  4.157925  0
C  C43  1  0.81047334  0.59738438  0.47452054  1  0  0.654388  0  3.842612  0  0  0.577184  0  4.155804  0  0  0.612736  0  4.151661  0  0  0.348304  0.553324  0  4.157822  0
C  C44  1  0.97267348  0.08842654  0.39741281  1  0  0.67172  0  3.818049  0  0  0.590234  0  4.137966  0  0  0.627126  0  4.131764  0  0  0.354835  0.565193  0  4.141774  0
C  C45  1  0.02734296  0.91156973  0.60261255  1  0  0.672066  0  3.817732  0  0  0.590335  0  4.137989  0  0  0.627221  0  4.131788  0  0  0.354884  0.565303  0  4.141791  0
C  C46  1  0.13383610  0.54980393  0.68720457  1  0  0.050894  0  3.575229  0  0  -0.017301  0  3.844943  0  0  -0.01059  0  3.852313  0  0  -0.056328  -0.021769  0  3.839718  0
C  C47  1  0.86617284  0.45021449  0.31280119  1  0  0.050979  0  3.57518  0  0  -0.017335  0  3.844955  0  0  -0.010625  0  3.852322  0  0  -0.05632  -0.021806  0  3.839775  0
C  C48  1  0.19225291  0.49708800  0.78751580  1  0  -0.279352  0  3.596955  0  0  -0.311998  0  3.836301  0  0  -0.318388  0  3.841505  0  0  -0.159189  -0.307119  0  3.831621  0
C  C49  1  0.80776713  0.50295801  0.21250349  1  0  -0.279246  0  3.596618  0  0  -0.311583  0  3.835994  0  0  -0.317951  0  3.841198  0  0  -0.159113  -0.306711  0  3.831341  0
C  C50  1  0.36100765  0.65235341  0.87538618  1  0  0.753415  0  3.816119  0  0  0.710684  0  4.111332  0  0  0.743933  0  4.107013  0  0  0.219649  0.687692  0  4.116903  0
C  C51  1  0.63916281  0.34752965  0.12454705  1  0  0.753545  0  3.816463  0  0  0.710162  0  4.112834  0  0  0.743409  0  4.108524  0  0  0.218867  0.687164  0  4.118439  0
C  C52  1  0.26080649  0.24517810  0.37801194  1  0  0.052763  0  3.585485  0  0  -0.016806  0  3.855887  0  0  -0.010094  0  3.86334  0  0  -0.051964  -0.02126  0  3.850898  0
C  C53  1  0.73913750  0.75484537  0.62192428  1  0  0.052418  0  3.586158  0  0  -0.017292  0  3.856722  0  0  -0.010606  0  3.86422  0  0  -0.051965  -0.021726  0  3.851742  0
C  C54  1  0.27103349  0.34409777  0.29274373  1  0  -0.298267  0  3.608679  0  0  -0.334913  0  3.853264  0  0  -0.341356  0  3.858084  0  0  -0.162235  -0.329947  0  3.849247  0
C  C55  1  0.72881701  0.65591288  0.70719232  1  0  -0.298016  0  3.608966  0  0  -0.334641  0  3.853937  0  0  -0.341069  0  3.858762  0  0  -0.162225  -0.329765  0  3.849949  0
C  C56  1  0.12361061  0.21845943  0.18176239  1  0  0.767056  0  3.810184  0  0  0.727241  0  4.099146  0  0  0.761408  0  4.092203  0  0  0.23033  0.703666  0  4.105794  0
C  C57  1  0.87632594  0.78155937  0.81811367  1  0  0.76725  0  3.80888  0  0  0.727305  0  4.097886  0  0  0.761481  0  4.090955  0  0  0.230608  0.703732  0  4.10454  0
N  N58  1  0.85539926  0.10644782  0.44637264  1  0  -0.345061  0  3.349112  0  0  -0.263207  0  3.602135  0  0  -0.289165  0  3.617125  0  0  -0.246613  -0.24574  0  3.591517  0
N  N59  1  0.14463562  0.89351908  0.55367209  1  0  -0.345403  0  3.348933  0  0  -0.263553  0  3.602114  0  0  -0.289511  0  3.617108  0  0  -0.246596  -0.246089  0  3.591494  0
N  N60  1  0.07006650  0.39998889  0.57849986  1  0  -0.346317  0  3.399457  0  0  -0.269324  0  3.657511  0  0  -0.294962  0  3.672508  0  0  -0.2564  -0.252054  0  3.646812  0
N  N61  1  0.92995277  0.60001685  0.42151098  1  0  -0.346175  0  3.399708  0  0  -0.269084  0  3.657738  0  0  -0.294719  0  3.672736  0  0  -0.256174  -0.251811  0  3.647032  0
N  N62  1  0.13379883  0.24429397  0.43377373  1  0  -0.341981  0  3.376885  0  0  -0.260616  0  3.630732  0  0  -0.286674  0  3.646024  0  0  -0.249787  -0.243127  0  3.619931  0
N  N63  1  0.86618400  0.75571097  0.56620593  1  0  -0.341522  0  3.376235  0  0  -0.260144  0  3.63023  0  0  -0.286188  0  3.645534  0  0  -0.249794  -0.242674  0  3.619443  0
O  O64  1  0.39837204  0.98566111  0.17152531  1  0  -0.76451  0  2.035788  0  0  -0.707153  0  2.276809  0  0  -0.737689  0  2.264046  0  0  -0.383277  -0.689119  0  2.284927  0
O  O65  1  0.60194030  0.01454015  0.82855014  1  0  -0.764378  0  2.034224  0  0  -0.706832  0  2.275145  0  0  -0.737338  0  2.262413  0  0  -0.383398  -0.688765  0  2.283289  0
O  O66  1  0.63483723  0.95809134  0.18254747  1  0  -0.703406  0  1.98638  0  0  -0.652515  0  2.233764  0  0  -0.68295  0  2.2229  0  0  -0.372417  -0.635282  0  2.240663  0
O  O67  1  0.36528501  0.04181095  0.81750133  1  0  -0.703618  0  1.987057  0  0  -0.652502  0  2.234542  0  0  -0.682957  0  2.223571  0  0  -0.372293  -0.63532  0  2.241448  0
O  O68  1  0.36497421  0.79213089  0.94239026  1  0  -0.868316  0  2.111763  0  0  -0.808358  0  2.371147  0  0  -0.844415  0  2.357049  0  0  -0.442525  -0.789715  0  2.378887  0
O  O69  1  0.63564852  0.20807181  0.05754762  1  0  -0.868812  0  2.111952  0  0  -0.808312  0  2.370951  0  0  -0.844304  0  2.356841  0  0  -0.441256  -0.789679  0  2.378784  0
O  O70  1  0.49753381  0.64709701  0.88046316  1  0  -0.655443  0  1.918904  0  0  -0.609381  0  2.144436  0  0  -0.636878  0  2.133768  0  0  -0.359052  -0.593593  0  2.150847  0
O  O71  1  0.50243466  0.35232389  0.11945085  1  0  -0.655295  0  1.919467  0  0  -0.608933  0  2.145399  0  0  -0.636499  0  2.134733  0  0  -0.358365  -0.593172  0  2.151801  0
O  O72  1  0.14596614  0.11247713  0.10836716  1  0  -0.773266  0  2.089434  0  0  -0.720913  0  2.353162  0  0  -0.753446  0  2.339922  0  0  -0.419202  -0.703427  0  2.362017  0
O  O73  1  0.85403880  0.88743072  0.89165891  1  0  -0.774227  0  2.089073  0  0  -0.721837  0  2.352728  0  0  -0.754239  0  2.339336  0  0  -0.41955  -0.704352  0  2.361707  0
O  O74  1  0.98075935  0.21585484  0.16885512  1  0  -0.733996  0  1.968729  0  0  -0.681335  0  2.212956  0  0  -0.711797  0  2.200868  0  0  -0.387273  -0.664299  0  2.220428  0
O  O75  1  0.01920342  0.78433530  0.83079040  1  0  -0.732867  0  1.968555  0  0  -0.679918  0  2.212721  0  0  -0.71047  0  2.200659  0  0  -0.387279  -0.662929  0  2.220185  0
O  O76  1  0.93779579  0.94198774  0.32744092  1  0  -0.561474  0  2.001506  0  0  -0.518804  0  2.239204  0  0  -0.537887  0  2.228348  0  0  -0.273836  -0.505504  0  2.246475  0
O  O77  1  0.06221798  0.05798907  0.67257336  1  0  -0.561549  0  2.001942  0  0  -0.518674  0  2.23966  0  0  -0.537725  0  2.228774  0  0  -0.273728  -0.50542  0  2.246998  0
O  O78  1  0.80129964  0.25773007  0.59323051  1  0  -0.524965  0  1.915051  0  0  -0.483219  0  2.136371  0  0  -0.501746  0  2.128014  0  0  -0.27219  -0.470389  0  2.14156  0
O  O79  1  0.19870773  0.74227876  0.40678137  1  0  -0.525177  0  1.915514  0  0  -0.483418  0  2.136978  0  0  -0.501949  0  2.12862  0  0  -0.272317  -0.470592  0  2.142166  0
O  O80  1  0.33623639  0.53500675  0.55860443  1  0  -0.52001  0  1.944046  0  0  -0.473999  0  2.167876  0  0  -0.493459  0  2.160781  0  0  -0.2637  -0.460442  0  2.17217  0
O  O81  1  0.66374049  0.46500785  0.44135867  1  0  -0.520019  0  1.943414  0  0  -0.474019  0  2.167289  0  0  -0.493493  0  2.160216  0  0  -0.2637  -0.46043  0  2.17153  0
O  O82  1  0.08052920  0.72863645  0.05009034  1  0  -0.84768  0  1.830762  0  0  -0.794866  0  1.995442  0  0  -0.816097  0  1.965458  0  0  -0.571569  -0.781309  0  2.014534  0
O  O83  1  0.92010620  0.27322417  0.94950306  1  0  -0.846948  0  1.825995  0  0  -0.794334  0  1.990096  0  0  -0.81539  0  1.960214  0  0  -0.570638  -0.780778  0  2.00907  0
O  O84  1  0.18712514  0.20777535  0.90710064  1  0  -0.89314  0  1.833681  0  0  -0.846591  0  2.012261  0  0  -0.869991  0  1.980258  0  0  -0.639383  -0.833855  0  2.03329  0
O  O85  1  0.81289072  0.79214510  0.09296082  1  0  -0.893789  0  1.833931  0  0  -0.847251  0  2.012658  0  0  -0.870591  0  1.980626  0  0  -0.639701  -0.834465  0  2.033756  0
