# generated using pymatgen
data_KH5C3O4
_symmetry_space_group_name_H-M   'P 1'
_cell_length_a   4.72610635
_cell_length_b   10.54262411
_cell_length_c   10.74765658
_cell_angle_alpha   90.00015763
_cell_angle_beta   102.23688014
_cell_angle_gamma   89.99980800
_symmetry_Int_Tables_number   1
_chemical_formula_structural   KH5C3O4
_chemical_formula_sum   'K4 H20 C12 O16'
_cell_volume   523.34111616
_cell_formula_units_Z   4
loop_
 _symmetry_equiv_pos_site_id
 _symmetry_equiv_pos_as_xyz
  1  'x, y, z'
loop_
 _atom_site_type_symbol
 _atom_site_label
 _atom_site_symmetry_multiplicity
 _atom_site_fract_x
 _atom_site_fract_y
 _atom_site_fract_z
 _atom_site_occupancy
 _atom_site_hle17_bader_spin_density
 _atom_site_hle17_ddec_charge
 _atom_site_hle17_ddec_spin_density
 _atom_site_hle17_ddec_sum_bond_order
 _atom_site_hle17_magmom
 _atom_site_hse06_10hf_bader_spin_density
 _atom_site_hse06_10hf_ddec_charge
 _atom_site_hse06_10hf_ddec_spin_density
 _atom_site_hse06_10hf_ddec_sum_bond_order
 _atom_site_hse06_10hf_magmom
 _atom_site_hse06_bader_spin_density
 _atom_site_hse06_ddec_charge
 _atom_site_hse06_ddec_spin_density
 _atom_site_hse06_ddec_sum_bond_order
 _atom_site_hse06_magmom
 _atom_site_pbe_bader_spin_density
 _atom_site_pbe_cm5_charge
 _atom_site_pbe_ddec_charge
 _atom_site_pbe_ddec_spin_density
 _atom_site_pbe_ddec_sum_bond_order
 _atom_site_pbe_magmom
K  K0  1  0.36726026  0.49420801  0.14698017  1  0  0.926067  0  0.489286  0  0  0.876023  0  0.67505  0  0  0.892211  0  0.651466  0  0  0.8122  0.863865  0  0.691975  0
K  K1  1  0.13273804  0.99420733  0.35302332  1  0  0.926087  0  0.489263  0  0  0.876013  0  0.675082  0  0  0.892217  0  0.651471  0  0  0.812204  0.863855  0  0.69201  0
K  K2  1  0.63274268  0.50579510  0.85302380  1  0  0.926065  0  0.489291  0  0  0.876016  0  0.675074  0  0  0.892217  0  0.651467  0  0  0.812221  0.863858  0  0.692001  0
K  K3  1  0.86726274  0.00578819  0.64698324  1  0  0.926065  0  0.489267  0  0  0.87603  0  0.675016  0  0  0.892228  0  0.65142  0  0  0.812187  0.863868  0  0.691948  0
H  H4  1  0.19022936  0.74251933  0.92284439  1  0  0.371173  0  0.918535  0  0  0.349137  0  0.987021  0  0  0.359102  0  0.975567  0  0  0.300725  0.342013  0  0.99527  0
H  H5  1  0.30976648  0.24251800  0.57715446  1  0  0.371044  0  0.918699  0  0  0.349006  0  0.987186  0  0  0.358969  0  0.975734  0  0  0.300662  0.341881  0  0.995436  0
H  H6  1  0.80977140  0.25747999  0.07715566  1  0  0.371111  0  0.918603  0  0  0.349125  0  0.986967  0  0  0.359082  0  0.975537  0  0  0.300744  0.342005  0  0.995206  0
H  H7  1  0.69023644  0.75748321  0.42284485  1  0  0.371106  0  0.918611  0  0  0.349075  0  0.987083  0  0  0.359038  0  0.975631  0  0  0.300685  0.341952  0  0.995332  0
H  H8  1  0.73322359  0.76624905  0.77979425  1  0  0.361004  0  0.951477  0  0  0.332675  0  1.029788  0  0  0.344771  0  1.016666  0  0  0.286035  0.324168  0  1.038984  0
H  H9  1  0.76678014  0.26625103  0.72020868  1  0  0.361017  0  0.951494  0  0  0.33269  0  1.029792  0  0  0.344785  0  1.016673  0  0  0.286023  0.324182  0  1.038993  0
H  H10  1  0.26677717  0.23374836  0.22020672  1  0  0.361021  0  0.95146  0  0  0.332691  0  1.029773  0  0  0.344787  0  1.016651  0  0  0.286038  0.324183  0  1.038975  0
H  H11  1  0.23322062  0.73375207  0.27979229  1  0  0.360995  0  0.951573  0  0  0.332668  0  1.029874  0  0  0.344762  0  1.016755  0  0  0.286024  0.32416  0  1.039075  0
H  H12  1  0.47171553  0.85554672  0.08039678  1  0  0.057073  0  0.932415  0  0  0.066025  0  0.997593  0  0  0.067882  0  0.996117  0  0  0.114687  0.064641  0  0.998794  0
H  H13  1  0.02828147  0.35554393  0.41960156  1  0  0.057097  0  0.932387  0  0  0.066061  0  0.997552  0  0  0.067919  0  0.996078  0  0  0.114702  0.064678  0  0.998752  0
H  H14  1  0.52828304  0.14445544  0.91960028  1  0  0.057158  0  0.932325  0  0  0.066096  0  0.99752  0  0  0.067948  0  0.996051  0  0  0.114697  0.064711  0  0.998721  0
H  H15  1  0.97171711  0.64445254  0.58039642  1  0  0.057124  0  0.932378  0  0  0.066045  0  0.997585  0  0  0.067902  0  0.99611  0  0  0.114693  0.064662  0  0.998788  0
H  H16  1  0.81041602  0.95646093  0.97597070  1  0  0.057983  0  0.950452  0  0  0.07126  0  1.020896  0  0  0.071988  0  1.019925  0  0  0.105173  0.070512  0  1.021871  0
H  H17  1  0.68957782  0.45645773  0.52402904  1  0  0.057973  0  0.95046  0  0  0.071298  0  1.020861  0  0  0.072024  0  1.019893  0  0  0.105178  0.070558  0  1.021827  0
H  H18  1  0.18958039  0.04354028  0.02402615  1  0  0.057986  0  0.950463  0  0  0.071269  0  1.020898  0  0  0.072003  0  1.01992  0  0  0.105155  0.070521  0  1.021873  0
H  H19  1  0.31042293  0.54354063  0.47596821  1  0  0.058005  0  0.950405  0  0  0.071299  0  1.020836  0  0  0.072034  0  1.019862  0  0  0.105199  0.070551  0  1.021811  0
H  H20  1  0.49575304  0.91844579  0.85723665  1  0  0.052631  0  0.941554  0  0  0.06509  0  1.013077  0  0  0.066837  0  1.010813  0  0  0.107904  0.063656  0  1.014914  0
H  H21  1  0.00424383  0.41844321  0.64276183  1  0  0.052665  0  0.94154  0  0  0.065136  0  1.013069  0  0  0.066887  0  1.010798  0  0  0.107945  0.063701  0  1.014909  0
H  H22  1  0.50424554  0.08155352  0.14275947  1  0  0.0527  0  0.941536  0  0  0.065174  0  1.013033  0  0  0.066918  0  1.010771  0  0  0.107938  0.06374  0  1.01487  0
H  H23  1  0.99575474  0.58155610  0.35723522  1  0  0.052695  0  0.941483  0  0  0.065118  0  1.013066  0  0  0.066898  0  1.010771  0  0  0.107931  0.063685  0  1.014902  0
C  C24  1  0.83504662  0.73050266  0.10909580  1  0  0.66157  0  3.869233  0  0  0.61595  0  4.170031  0  0  0.64868  0  4.16107  0  0  0.199523  0.593685  0  4.175536  0
C  C25  1  0.66494191  0.23050054  0.39090471  1  0  0.661588  0  3.869336  0  0  0.61597  0  4.170132  0  0  0.648701  0  4.161171  0  0  0.199546  0.593705  0  4.175637  0
C  C26  1  0.16495630  0.26950234  0.89090537  1  0  0.661471  0  3.869346  0  0  0.615907  0  4.170063  0  0  0.648636  0  4.161103  0  0  0.199548  0.593642  0  4.175566  0
C  C27  1  0.33505453  0.76949688  0.60909773  1  0  0.661878  0  3.869136  0  0  0.616178  0  4.170024  0  0  0.648907  0  4.16106  0  0  0.199608  0.593912  0  4.175532  0
C  C28  1  0.57615298  0.79368909  0.02026561  1  0  0.067063  0  3.667338  0  0  0.047232  0  3.922172  0  0  0.047985  0  3.929705  0  0  -0.015586  0.046561  0  3.917187  0
C  C29  1  0.92384379  0.29368587  0.47973305  1  0  0.067059  0  3.667183  0  0  0.047208  0  3.922108  0  0  0.047961  0  3.929641  0  0  -0.015576  0.046538  0  3.917115  0
C  C30  1  0.42384561  0.20631307  0.97973237  1  0  0.066989  0  3.667293  0  0  0.047144  0  3.92216  0  0  0.047902  0  3.929687  0  0  -0.015574  0.046478  0  3.917155  0
C  C31  1  0.07615696  0.70631059  0.52026700  1  0  0.066924  0  3.667375  0  0  0.04717  0  3.922203  0  0  0.047921  0  3.929746  0  0  -0.015612  0.046495  0  3.917228  0
C  C32  1  0.68412694  0.87828022  0.92403684  1  0  0.082137  0  3.660663  0  0  0.011015  0  3.94659  0  0  0.01828  0  3.950721  0  0  -0.081458  0.0063  0  3.943651  0
C  C33  1  0.81586740  0.37827793  0.57596273  1  0  0.082118  0  3.660687  0  0  0.010923  0  3.946708  0  0  0.018187  0  3.950835  0  0  -0.081533  0.006204  0  3.943766  0
C  C34  1  0.31586947  0.12172004  0.07596094  1  0  0.081995  0  3.660788  0  0  0.010863  0  3.946721  0  0  0.018123  0  3.950857  0  0  -0.081518  0.00615  0  3.94378  0
C  C35  1  0.18412686  0.62172043  0.42403671  1  0  0.082107  0  3.660552  0  0  0.010963  0  3.946521  0  0  0.01819  0  3.95066  0  0  -0.081509  0.006246  0  3.943587  0
O  O36  1  0.85072855  0.61090245  0.11314603  1  0  -0.738622  0  1.977343  0  0  -0.692264  0  2.218774  0  0  -0.716  0  2.208042  0  0  -0.506964  -0.675598  0  2.225694  0
O  O37  1  0.64926508  0.11089844  0.38685556  1  0  -0.738638  0  1.977421  0  0  -0.692284  0  2.218871  0  0  -0.716024  0  2.208132  0  0  -0.506938  -0.675621  0  2.225797  0
O  O38  1  0.14927871  0.38910445  0.88685740  1  0  -0.73858  0  1.977385  0  0  -0.692235  0  2.21877  0  0  -0.71597  0  2.20803  0  0  -0.506979  -0.675573  0  2.225694  0
O  O39  1  0.35073567  0.88909328  0.61314355  1  0  -0.738724  0  1.977427  0  0  -0.692329  0  2.21888  0  0  -0.716067  0  2.20814  0  0  -0.506988  -0.675665  0  2.225809  0
O  O40  1  0.37661093  0.69940094  0.96062800  1  0  -0.621195  0  2.12685  0  0  -0.579454  0  2.35855  0  0  -0.594596  0  2.347745  0  0  -0.496713  -0.568534  0  2.365983  0
O  O41  1  0.12338518  0.19939789  0.53937075  1  0  -0.621102  0  2.126911  0  0  -0.579356  0  2.358645  0  0  -0.594498  0  2.347845  0  0  -0.49665  -0.568434  0  2.366073  0
O  O42  1  0.62338982  0.30060027  0.03937204  1  0  -0.621141  0  2.126838  0  0  -0.579426  0  2.35857  0  0  -0.594563  0  2.347766  0  0  -0.496712  -0.568507  0  2.365994  0
O  O43  1  0.87661774  0.80060047  0.46063135  1  0  -0.621127  0  2.126953  0  0  -0.579399  0  2.358671  0  0  -0.594535  0  2.347858  0  0  -0.496651  -0.568477  0  2.366104  0
O  O44  1  0.86556086  0.81356270  0.85327324  1  0  -0.594629  0  2.103569  0  0  -0.530485  0  2.328182  0  0  -0.548815  0  2.315622  0  0  -0.433004  -0.517353  0  2.336629  0
O  O45  1  0.63443605  0.31355994  0.64672547  1  0  -0.5946  0  2.10363  0  0  -0.530435  0  2.328257  0  0  -0.548766  0  2.315702  0  0  -0.432925  -0.517305  0  2.336709  0
O  O46  1  0.13443988  0.18643756  0.14672495  1  0  -0.594551  0  2.103585  0  0  -0.530427  0  2.328178  0  0  -0.548752  0  2.315624  0  0  -0.432958  -0.517299  0  2.336627  0
O  O47  1  0.36556037  0.68644127  0.35327324  1  0  -0.594624  0  2.103555  0  0  -0.530457  0  2.32815  0  0  -0.548787  0  2.315608  0  0  -0.432973  -0.517325  0  2.3366  0
O  O48  1  0.01977689  0.80709815  0.17342344  1  0  -0.682277  0  1.988879  0  0  -0.632212  0  2.224191  0  0  -0.658341  0  2.214216  0  0  -0.39254  -0.613923  0  2.230574  0
O  O49  1  0.48021610  0.30709442  0.32657626  1  0  -0.682306  0  1.988925  0  0  -0.632251  0  2.224248  0  0  -0.658377  0  2.214271  0  0  -0.392632  -0.613963  0  2.230632  0
O  O50  1  0.98021954  0.19291160  0.82657807  1  0  -0.682212  0  1.988921  0  0  -0.632183  0  2.224222  0  0  -0.658312  0  2.214249  0  0  -0.39258  -0.613893  0  2.230605  0
O  O51  1  0.51978250  0.69289825  0.67342637  1  0  -0.682414  0  1.98878  0  0  -0.632349  0  2.224167  0  0  -0.658479  0  2.214192  0  0  -0.3926  -0.614057  0  2.23055  0
