# generated using pymatgen
data_SbAsH16(C7S)2
_symmetry_space_group_name_H-M   'P 1'
_cell_length_a   9.54553389
_cell_length_b   9.74001561
_cell_length_c   17.28699841
_cell_angle_alpha   89.99995498
_cell_angle_beta   94.60811712
_cell_angle_gamma   89.99992820
_symmetry_Int_Tables_number   1
_chemical_formula_structural   SbAsH16(C7S)2
_chemical_formula_sum   'Sb4 As4 H64 C56 S8'
_cell_volume   1602.03994564
_cell_formula_units_Z   4
loop_
 _symmetry_equiv_pos_site_id
 _symmetry_equiv_pos_as_xyz
  1  'x, y, z'
loop_
 _atom_site_type_symbol
 _atom_site_label
 _atom_site_symmetry_multiplicity
 _atom_site_fract_x
 _atom_site_fract_y
 _atom_site_fract_z
 _atom_site_occupancy
 _atom_site_hle17_bader_spin_density
 _atom_site_hle17_ddec_charge
 _atom_site_hle17_ddec_spin_density
 _atom_site_hle17_ddec_sum_bond_order
 _atom_site_hle17_magmom
 _atom_site_hse06_10hf_bader_spin_density
 _atom_site_hse06_10hf_ddec_charge
 _atom_site_hse06_10hf_ddec_spin_density
 _atom_site_hse06_10hf_ddec_sum_bond_order
 _atom_site_hse06_10hf_magmom
 _atom_site_hse06_bader_spin_density
 _atom_site_hse06_ddec_charge
 _atom_site_hse06_ddec_spin_density
 _atom_site_hse06_ddec_sum_bond_order
 _atom_site_hse06_magmom
 _atom_site_pbe_bader_spin_density
 _atom_site_pbe_cm5_charge
 _atom_site_pbe_ddec_charge
 _atom_site_pbe_ddec_spin_density
 _atom_site_pbe_ddec_sum_bond_order
 _atom_site_pbe_magmom
Sb  Sb0  1  0.21110277  0.64368034  0.32918306  1  0  0.579555  0  2.729079  0  0  0.473797  0  3.186547  0  0  0.480082  0  3.191236  0  0  0.330469  0.466431  0  3.180421  0
Sb  Sb1  1  0.28889126  0.14368017  0.17081576  1  0  0.579509  0  2.729205  0  0  0.47372  0  3.186743  0  0  0.480023  0  3.191401  0  0  0.330468  0.466381  0  3.180599  0
Sb  Sb2  1  0.78889620  0.35632189  0.67081574  1  0  0.579513  0  2.729178  0  0  0.473746  0  3.186701  0  0  0.480045  0  3.191367  0  0  0.330448  0.466384  0  3.180577  0
Sb  Sb3  1  0.71110982  0.85632000  0.82918429  1  0  0.579471  0  2.729148  0  0  0.473687  0  3.186663  0  0  0.479983  0  3.191333  0  0  0.330462  0.466346  0  3.18054  0
As  As4  1  0.44695639  0.33669299  0.35275425  1  0  0.90415  0  3.726913  0  0  0.912466  0  4.186675  0  0  0.928664  0  4.187504  0  0  0.314979  0.901289  0  4.185111  0
As  As5  1  0.05304475  0.83669360  0.14724593  1  0  0.904321  0  3.72673  0  0  0.912661  0  4.186454  0  0  0.928861  0  4.187275  0  0  0.315009  0.901486  0  4.184883  0
As  As6  1  0.55304575  0.66330719  0.64724641  1  0  0.904265  0  3.726826  0  0  0.912595  0  4.18657  0  0  0.928795  0  4.187395  0  0  0.315006  0.901421  0  4.184981  0
As  As7  1  0.94695843  0.16330452  0.85275420  1  0  0.904165  0  3.726891  0  0  0.912494  0  4.186639  0  0  0.928692  0  4.187464  0  0  0.314976  0.90132  0  4.185071  0
H  H8  1  0.70530922  0.30466619  0.34791893  1  0  0.152534  0  0.969741  0  0  0.170876  0  1.027959  0  0  0.172497  0  1.029245  0  0  0.098964  0.169922  0  1.026517  0
H  H9  1  0.79469335  0.80466650  0.15208326  1  0  0.152587  0  0.969722  0  0  0.170918  0  1.027948  0  0  0.17254  0  1.029233  0  0  0.098981  0.169961  0  1.026504  0
H  H10  1  0.29468976  0.69533296  0.65208218  1  0  0.152594  0  0.969688  0  0  0.170919  0  1.027914  0  0  0.172541  0  1.029199  0  0  0.098993  0.169961  0  1.026477  0
H  H11  1  0.20530878  0.19533162  0.84791741  1  0  0.152553  0  0.969748  0  0  0.170889  0  1.02796  0  0  0.172511  0  1.029245  0  0  0.098986  0.169937  0  1.026517  0
H  H12  1  0.66529241  0.35926462  0.44328677  1  0  0.157946  0  0.983897  0  0  0.172679  0  1.047825  0  0  0.174116  0  1.05  0  0  0.091745  0.171521  0  1.046647  0
H  H13  1  0.83470903  0.85926604  0.05671476  1  0  0.157975  0  0.983843  0  0  0.172712  0  1.047793  0  0  0.174148  0  1.049967  0  0  0.091734  0.17155  0  1.046628  0
H  H14  1  0.33470868  0.64073452  0.55671558  1  0  0.157944  0  0.983904  0  0  0.172687  0  1.047854  0  0  0.174122  0  1.050029  0  0  0.091714  0.171524  0  1.046678  0
H  H15  1  0.16529310  0.14073413  0.94328475  1  0  0.157903  0  0.983887  0  0  0.172628  0  1.047853  0  0  0.174064  0  1.050028  0  0  0.091714  0.171469  0  1.046683  0
H  H16  1  0.66267437  0.48233224  0.36539279  1  0  0.159295  0  0.959278  0  0  0.17808  0  1.015156  0  0  0.179806  0  1.016145  0  0  0.098217  0.176787  0  1.01472  0
H  H17  1  0.83732796  0.98233252  0.13460873  1  0  0.159349  0  0.959271  0  0  0.178154  0  1.015118  0  0  0.179883  0  1.016101  0  0  0.098241  0.176862  0  1.014681  0
H  H18  1  0.33732777  0.51766690  0.63460846  1  0  0.159325  0  0.959276  0  0  0.178114  0  1.015151  0  0  0.179842  0  1.016136  0  0  0.098221  0.176816  0  1.014719  0
H  H19  1  0.16267838  0.01766354  0.86539154  1  0  0.159291  0  0.959272  0  0  0.178067  0  1.015167  0  0  0.179796  0  1.016153  0  0  0.098229  0.176776  0  1.01473  0
H  H20  1  0.48916184  0.08017593  0.34107336  1  0  0.157658  0  0.968995  0  0  0.174126  0  1.031606  0  0  0.175858  0  1.033315  0  0  0.098007  0.172883  0  1.030299  0
H  H21  1  0.01083965  0.58017760  0.15892696  1  0  0.157659  0  0.969025  0  0  0.174119  0  1.031644  0  0  0.175853  0  1.033348  0  0  0.09801  0.172876  0  1.03034  0
H  H22  1  0.51083925  0.91982425  0.65892784  1  0  0.157657  0  0.968987  0  0  0.174126  0  1.031604  0  0  0.175859  0  1.03331  0  0  0.09801  0.172884  0  1.030292  0
H  H23  1  0.98916354  0.41982257  0.84107433  1  0  0.157658  0  0.968997  0  0  0.174121  0  1.031624  0  0  0.175854  0  1.033329  0  0  0.098009  0.172879  0  1.030317  0
H  H24  1  0.45074406  0.13047765  0.43782625  1  0  0.161057  0  0.938397  0  0  0.18286  0  0.989417  0  0  0.184664  0  0.989919  0  0  0.103013  0.181336  0  0.989416  0
H  H25  1  0.04925841  0.63047941  0.06217466  1  0  0.161111  0  0.938317  0  0  0.182917  0  0.989328  0  0  0.184721  0  0.989827  0  0  0.10303  0.181392  0  0.989339  0
H  H26  1  0.54925808  0.86952252  0.56217557  1  0  0.161109  0  0.938326  0  0  0.182915  0  0.989336  0  0  0.184717  0  0.989838  0  0  0.103044  0.181388  0  0.989339  0
H  H27  1  0.95074583  0.36951768  0.93782667  1  0  0.161055  0  0.938364  0  0  0.18287  0  0.989374  0  0  0.184674  0  0.989874  0  0  0.103035  0.181345  0  0.989378  0
H  H28  1  0.31091375  0.11545831  0.36190792  1  0  0.158291  0  0.955618  0  0  0.175786  0  1.016881  0  0  0.178152  0  1.01659  0  0  0.098354  0.17379  0  1.017658  0
H  H29  1  0.18908874  0.61545773  0.13809300  1  0  0.158349  0  0.955632  0  0  0.175854  0  1.016863  0  0  0.17822  0  1.01657  0  0  0.098391  0.173861  0  1.017647  0
H  H30  1  0.68908734  0.88454084  0.63809443  1  0  0.158336  0  0.9556  0  0  0.175842  0  1.016839  0  0  0.178208  0  1.016546  0  0  0.098383  0.173845  0  1.017626  0
H  H31  1  0.81091550  0.38454038  0.86190892  1  0  0.15824  0  0.955717  0  0  0.175769  0  1.016941  0  0  0.178135  0  1.016649  0  0  0.098362  0.173773  0  1.017723  0
H  H32  1  0.50305518  0.66409997  0.43881419  1  0  0.071437  0  1.010407  0  0  0.074758  0  1.091589  0  0  0.077795  0  1.090497  0  0  0.078074  0.072309  0  1.092448  0
H  H33  1  0.99692970  0.16410278  0.06118383  1  0  0.07145  0  1.010316  0  0  0.074776  0  1.091496  0  0  0.077812  0  1.090401  0  0  0.078046  0.072314  0  1.092395  0
H  H34  1  0.49693539  0.33590534  0.56118540  1  0  0.071423  0  1.010398  0  0  0.074748  0  1.091568  0  0  0.077783  0  1.090483  0  0  0.078037  0.072297  0  1.092435  0
H  H35  1  0.00307451  0.83589945  0.93881230  1  0  0.071449  0  1.01041  0  0  0.074786  0  1.091579  0  0  0.077823  0  1.090482  0  0  0.078045  0.072328  0  1.092473  0
H  H36  1  0.74118288  0.75499599  0.42665095  1  0  0.084642  0  0.968628  0  0  0.094065  0  1.033232  0  0  0.096544  0  1.03291  0  0  0.093429  0.0916  0  1.034335  0
H  H37  1  0.75880610  0.25500113  0.07335125  1  0  0.084541  0  0.96867  0  0  0.093984  0  1.033261  0  0  0.096464  0  1.03294  0  0  0.093412  0.091516  0  1.034382  0
H  H38  1  0.25881296  0.24500521  0.57335234  1  0  0.084577  0  0.968619  0  0  0.094009  0  1.033222  0  0  0.096488  0  1.032901  0  0  0.093432  0.091537  0  1.034344  0
H  H39  1  0.24119706  0.74499904  0.92664541  1  0  0.084536  0  0.968638  0  0  0.093947  0  1.033259  0  0  0.09643  0  1.032934  0  0  0.093403  0.091473  0  1.034381  0
H  H40  1  0.79809152  0.87701329  0.30584361  1  0  0.08476  0  0.976945  0  0  0.092571  0  1.044127  0  0  0.095724  0  1.042731  0  0  0.089011  0.089624  0  1.046228  0
H  H41  1  0.70190361  0.37701834  0.19415996  1  0  0.08471  0  0.976972  0  0  0.092543  0  1.044135  0  0  0.095696  0  1.042739  0  0  0.089001  0.089601  0  1.046235  0
H  H42  1  0.20191272  0.12297969  0.69415772  1  0  0.084634  0  0.977012  0  0  0.092564  0  1.044091  0  0  0.09572  0  1.04269  0  0  0.08902  0.089617  0  1.046195  0
H  H43  1  0.29809326  0.62297362  0.80583817  1  0  0.084746  0  0.976957  0  0  0.092594  0  1.044116  0  0  0.09575  0  1.042717  0  0  0.089017  0.08965  0  1.046214  0
H  H44  1  0.60832071  0.91206168  0.19893271  1  0  0.078397  0  0.967653  0  0  0.091285  0  1.028364  0  0  0.094066  0  1.027226  0  0  0.09426  0.089415  0  1.028407  0
H  H45  1  0.89167961  0.41205505  0.30106875  1  0  0.078457  0  0.967651  0  0  0.0913  0  1.028431  0  0  0.094081  0  1.027296  0  0  0.094273  0.089438  0  1.02845  0
H  H46  1  0.39168667  0.08793952  0.80106760  1  0  0.078394  0  0.967597  0  0  0.09127  0  1.02834  0  0  0.094051  0  1.027205  0  0  0.094268  0.089405  0  1.028372  0
H  H47  1  0.10831726  0.58793793  0.69893054  1  0  0.078515  0  0.967635  0  0  0.091337  0  1.028415  0  0  0.094119  0  1.027277  0  0  0.094294  0.08947  0  1.02844  0
H  H48  1  0.37059330  0.82249215  0.21108532  1  0  0.057456  0  1.016236  0  0  0.063095  0  1.095195  0  0  0.066403  0  1.09277  0  0  0.078965  0.060147  0  1.098152  0
H  H49  1  0.12940364  0.32247867  0.28891238  1  0  0.05742  0  1.016318  0  0  0.063066  0  1.095205  0  0  0.066373  0  1.092777  0  0  0.078961  0.060118  0  1.098157  0
H  H50  1  0.62941092  0.17751624  0.78891254  1  0  0.057438  0  1.016312  0  0  0.063105  0  1.095216  0  0  0.066412  0  1.092791  0  0  0.078964  0.060155  0  1.098179  0
H  H51  1  0.87059427  0.67752048  0.71108464  1  0  0.057422  0  1.016185  0  0  0.063077  0  1.09512  0  0  0.066383  0  1.092694  0  0  0.078955  0.060129  0  1.098072  0
H  H52  1  0.31511227  0.89998266  0.43666810  1  0  0.076479  0  0.982603  0  0  0.09042  0  1.04424  0  0  0.092336  0  1.044633  0  0  0.088963  0.088865  0  1.044699  0
H  H53  1  0.18488878  0.39999510  0.06333321  1  0  0.076442  0  0.982513  0  0  0.090377  0  1.044172  0  0  0.092295  0  1.044561  0  0  0.088945  0.088825  0  1.044631  0
H  H54  1  0.68488461  0.10000930  0.56333292  1  0  0.07643  0  0.982526  0  0  0.090364  0  1.044187  0  0  0.092281  0  1.044578  0  0  0.088931  0.088809  0  1.044651  0
H  H55  1  0.81511440  0.60000610  0.93666750  1  0  0.076419  0  0.982528  0  0  0.090361  0  1.044173  0  0  0.092278  0  1.044563  0  0  0.088932  0.088807  0  1.044636  0
H  H56  1  0.24290827  0.01151485  0.55608446  1  0  0.075959  0  0.994431  0  0  0.087787  0  1.056274  0  0  0.089801  0  1.056598  0  0  0.09195  0.086308  0  1.056196  0
H  H57  1  0.25709367  0.51151890  0.94391304  1  0  0.075948  0  0.994338  0  0  0.087772  0  1.056206  0  0  0.089788  0  1.056527  0  0  0.091937  0.086299  0  1.056118  0
H  H58  1  0.75708965  0.98848327  0.44391371  1  0  0.075965  0  0.994387  0  0  0.087791  0  1.056241  0  0  0.089806  0  1.056565  0  0  0.091945  0.086313  0  1.056159  0
H  H59  1  0.74291056  0.48847819  0.05608655  1  0  0.075932  0  0.994385  0  0  0.087758  0  1.056247  0  0  0.089775  0  1.056568  0  0  0.091934  0.086283  0  1.056164  0
H  H60  1  0.04490541  0.91559766  0.62468911  1  0  0.085902  0  0.960671  0  0  0.096001  0  1.023893  0  0  0.098637  0  1.023348  0  0  0.091063  0.093724  0  1.025258  0
H  H61  1  0.45508863  0.41559188  0.87530961  1  0  0.085902  0  0.960658  0  0  0.095998  0  1.02388  0  0  0.098633  0  1.023335  0  0  0.091074  0.093723  0  1.02524  0
H  H62  1  0.95508831  0.08440764  0.37531061  1  0  0.085873  0  0.960693  0  0  0.095964  0  1.023922  0  0  0.098601  0  1.023378  0  0  0.091048  0.09368  0  1.025288  0
H  H63  1  0.54491456  0.58440419  0.12469052  1  0  0.085917  0  0.960599  0  0  0.096015  0  1.023814  0  0  0.098651  0  1.023271  0  0  0.091105  0.093737  0  1.025179  0
H  H64  1  0.91783244  0.70736855  0.57138813  1  0  0.070818  0  1.009348  0  0  0.077702  0  1.08143  0  0  0.080703  0  1.080391  0  0  0.080543  0.075675  0  1.081934  0
H  H65  1  0.58216537  0.20736520  0.92861161  1  0  0.070821  0  1.009394  0  0  0.077698  0  1.081477  0  0  0.080699  0  1.080439  0  0  0.080544  0.075679  0  1.081973  0
H  H66  1  0.08216233  0.29263676  0.42861107  1  0  0.070786  0  1.009375  0  0  0.077682  0  1.081452  0  0  0.080671  0  1.080422  0  0  0.08055  0.075659  0  1.081955  0
H  H67  1  0.41783572  0.79263292  0.07139074  1  0  0.070784  0  1.009385  0  0  0.077675  0  1.081465  0  0  0.080676  0  1.080426  0  0  0.080551  0.075652  0  1.081967  0
H  H68  1  0.98749068  0.59782872  0.45188962  1  0  0.078639  0  0.95505  0  0  0.092082  0  1.016321  0  0  0.09487  0  1.015123  0  0  0.092259  0.090721  0  1.016295  0
H  H69  1  0.51250271  0.09782598  0.04811168  1  0  0.078581  0  0.954964  0  0  0.092022  0  1.016253  0  0  0.094808  0  1.015059  0  0  0.092246  0.090664  0  1.01622  0
H  H70  1  0.01249779  0.40217556  0.54811046  1  0  0.078675  0  0.955107  0  0  0.092124  0  1.016371  0  0  0.09491  0  1.015178  0  0  0.092289  0.090762  0  1.016341  0
H  H71  1  0.48750048  0.90217008  0.95189018  1  0  0.078669  0  0.955009  0  0  0.092115  0  1.016278  0  0  0.0949  0  1.015083  0  0  0.092262  0.090756  0  1.016251  0
C  C72  1  0.41902521  0.73648602  0.32587089  1  0  -0.186295  0  3.669736  0  0  -0.13881  0  3.910271  0  0  -0.142373  0  3.939159  0  0  -0.097988  -0.136564  0  3.889972  0
C  C73  1  0.08097184  0.23648713  0.17412453  1  0  -0.186254  0  3.66952  0  0  -0.138773  0  3.91012  0  0  -0.142341  0  3.93901  0  0  -0.098006  -0.136526  0  3.88981  0
C  C74  1  0.58097060  0.26351826  0.67412545  1  0  -0.18624  0  3.669568  0  0  -0.138817  0  3.910264  0  0  -0.142381  0  3.939154  0  0  -0.097951  -0.136568  0  3.889955  0
C  C75  1  0.91903132  0.76351612  0.82587155  1  0  -0.185898  0  3.669546  0  0  -0.138472  0  3.910236  0  0  -0.142035  0  3.939119  0  0  -0.097888  -0.136228  0  3.889941  0
C  C76  1  0.52456516  0.72011325  0.38633391  1  0  -0.080525  0  3.8218  0  0  -0.099591  0  4.067252  0  0  -0.101088  0  4.089997  0  0  -0.106754  -0.098015  0  4.052135  0
C  C77  1  0.97542175  0.22011499  0.11366532  1  0  -0.080654  0  3.821777  0  0  -0.099736  0  4.067242  0  0  -0.101247  0  4.090026  0  0  -0.106761  -0.09816  0  4.052124  0
C  C78  1  0.47542751  0.27989103  0.61366519  1  0  -0.080589  0  3.821728  0  0  -0.099646  0  4.067186  0  0  -0.101149  0  4.089944  0  0  -0.106722  -0.098067  0  4.05206  0
C  C79  1  0.02457826  0.77988724  0.88633121  1  0  -0.08085  0  3.821888  0  0  -0.099948  0  4.067359  0  0  -0.101464  0  4.09015  0  0  -0.10681  -0.098372  0  4.052255  0
C  C80  1  0.66004258  0.77058742  0.37922470  1  0  -0.087418  0  3.782232  0  0  -0.09336  0  4.020572  0  0  -0.095865  0  4.041558  0  0  -0.101325  -0.09205  0  4.006783  0
C  C81  1  0.83994847  0.27059445  0.12077469  1  0  -0.087305  0  3.782199  0  0  -0.093271  0  4.020552  0  0  -0.095783  0  4.041538  0  0  -0.101359  -0.091961  0  4.00677  0
C  C82  1  0.33995430  0.22940865  0.62077632  1  0  -0.087249  0  3.782081  0  0  -0.093191  0  4.020453  0  0  -0.095699  0  4.041439  0  0  -0.10134  -0.091877  0  4.00666  0
C  C83  1  0.16005574  0.72940778  0.87922028  1  0  -0.08713  0  3.782119  0  0  -0.093028  0  4.020417  0  0  -0.095541  0  4.041402  0  0  -0.101296  -0.09171  0  4.006647  0
C  C84  1  0.69169496  0.83917461  0.31166224  1  0  -0.076086  0  3.774464  0  0  -0.085073  0  4.010375  0  0  -0.086027  0  4.030357  0  0  -0.097316  -0.083679  0  3.996112  0
C  C85  1  0.80829916  0.33917542  0.18833956  1  0  -0.075949  0  3.774185  0  0  -0.084946  0  4.010097  0  0  -0.085897  0  4.030078  0  0  -0.097228  -0.083552  0  3.995836  0
C  C86  1  0.30830929  0.16082454  0.68833967  1  0  -0.076024  0  3.774506  0  0  -0.085142  0  4.010456  0  0  -0.086095  0  4.030439  0  0  -0.097361  -0.083747  0  3.996191  0
C  C87  1  0.19170085  0.66082475  0.81165755  1  0  -0.076084  0  3.774501  0  0  -0.085116  0  4.010388  0  0  -0.086068  0  4.030371  0  0  -0.097289  -0.08372  0  3.996117  0
C  C88  1  0.58618196  0.85769214  0.25174241  1  0  -0.088062  0  3.796576  0  0  -0.095891  0  4.036097  0  0  -0.098553  0  4.057501  0  0  -0.09977  -0.093496  0  4.020007  0
C  C89  1  0.91381529  0.35769274  0.24825952  1  0  -0.088111  0  3.796468  0  0  -0.095923  0  4.03598  0  0  -0.098585  0  4.057381  0  0  -0.099782  -0.093514  0  4.01987  0
C  C90  1  0.41382227  0.14230598  0.74825777  1  0  -0.08802  0  3.796565  0  0  -0.095841  0  4.036128  0  0  -0.098503  0  4.057531  0  0  -0.099745  -0.093446  0  4.020047  0
C  C91  1  0.08618052  0.64230743  0.75173740  1  0  -0.088136  0  3.79652  0  0  -0.0959  0  4.036028  0  0  -0.098561  0  4.057428  0  0  -0.099731  -0.093494  0  4.019921  0
C  C92  1  0.45117838  0.80589661  0.25863647  1  0  -0.071664  0  3.823319  0  0  -0.089162  0  4.066271  0  0  -0.090271  0  4.089468  0  0  -0.103026  -0.087597  0  4.049487  0
C  C93  1  0.04881543  0.30589048  0.24136226  1  0  -0.071618  0  3.823291  0  0  -0.089069  0  4.066202  0  0  -0.090173  0  4.089399  0  0  -0.102953  -0.087499  0  4.049402  0
C  C94  1  0.54882165  0.19410459  0.74136469  1  0  -0.071691  0  3.823372  0  0  -0.089155  0  4.066235  0  0  -0.090266  0  4.089438  0  0  -0.103036  -0.087591  0  4.049455  0
C  C95  1  0.95118039  0.69411688  0.75863755  1  0  -0.071817  0  3.823399  0  0  -0.089278  0  4.066265  0  0  -0.090387  0  4.089468  0  0  -0.10311  -0.087704  0  4.049461  0
C  C96  1  0.15681958  0.74135570  0.43601347  1  0  -0.18072  0  3.672802  0  0  -0.133022  0  3.911322  0  0  -0.136191  0  3.93892  0  0  -0.099796  -0.128967  0  3.892275  0
C  C97  1  0.34317223  0.24135665  0.06398751  1  0  -0.180898  0  3.672689  0  0  -0.133219  0  3.911251  0  0  -0.13639  0  3.938848  0  0  -0.09984  -0.129169  0  3.892217  0
C  C98  1  0.84317099  0.25864447  0.56398728  1  0  -0.180907  0  3.672867  0  0  -0.133219  0  3.911414  0  0  -0.136389  0  3.939012  0  0  -0.099882  -0.129168  0  3.89238  0
C  C99  1  0.65683096  0.75864147  0.93601320  1  0  -0.180832  0  3.672876  0  0  -0.133108  0  3.911365  0  0  -0.136277  0  3.938961  0  0  -0.099811  -0.12906  0  3.892336  0
C  C100  1  0.22765601  0.85795812  0.46605459  1  0  -0.070858  0  3.791072  0  0  -0.087718  0  4.028487  0  0  -0.088946  0  4.050753  0  0  -0.102634  -0.087024  0  4.013165  0
C  C101  1  0.27234089  0.35796741  0.03394424  1  0  -0.070711  0  3.790812  0  0  -0.087554  0  4.028212  0  0  -0.088782  0  4.050477  0  0  -0.102597  -0.086857  0  4.012898  0
C  C102  1  0.77233666  0.14203794  0.53394451  1  0  -0.070737  0  3.790853  0  0  -0.087587  0  4.028257  0  0  -0.088815  0  4.050524  0  0  -0.102621  -0.086895  0  4.012947  0
C  C103  1  0.72766123  0.64203174  0.96605353  1  0  -0.070787  0  3.790763  0  0  -0.087647  0  4.028158  0  0  -0.088876  0  4.050421  0  0  -0.102635  -0.086951  0  4.012848  0
C  C104  1  0.18725736  0.92061200  0.53350004  1  0  -0.075999  0  3.773023  0  0  -0.083959  0  4.011652  0  0  -0.086338  0  4.033886  0  0  -0.096925  -0.081857  0  3.995689  0
C  C105  1  0.31274403  0.42061038  0.96649958  1  0  -0.076049  0  3.773252  0  0  -0.084015  0  4.011879  0  0  -0.086397  0  4.034115  0  0  -0.096939  -0.081907  0  3.995914  0
C  C106  1  0.81273847  0.07939022  0.46649978  1  0  -0.076072  0  3.773027  0  0  -0.084029  0  4.011646  0  0  -0.086411  0  4.033883  0  0  -0.096948  -0.081926  0  3.99568  0
C  C107  1  0.68725284  0.57938569  0.03349971  1  0  -0.076007  0  3.773208  0  0  -0.083969  0  4.011821  0  0  -0.086351  0  4.034058  0  0  -0.09692  -0.081864  0  3.995855  0
C  C108  1  0.07637114  0.86684622  0.57192815  1  0  -0.06257  0  3.760018  0  0  -0.072411  0  3.998119  0  0  -0.074196  0  4.020132  0  0  -0.091429  -0.071221  0  3.983078  0
C  C109  1  0.42362191  0.36684656  0.92807055  1  0  -0.062524  0  3.759953  0  0  -0.072359  0  3.998042  0  0  -0.074145  0  4.020058  0  0  -0.091398  -0.071163  0  3.982995  0
C  C110  1  0.92362048  0.13315909  0.42807149  1  0  -0.062451  0  3.759936  0  0  -0.07227  0  3.998023  0  0  -0.074057  0  4.020038  0  0  -0.09133  -0.071076  0  3.982976  0
C  C111  1  0.57638232  0.63314951  0.07192904  1  0  -0.062575  0  3.760026  0  0  -0.072404  0  3.998121  0  0  -0.074192  0  4.020139  0  0  -0.091478  -0.071208  0  3.983071  0
C  C112  1  0.00535560  0.75037727  0.54240519  1  0  -0.077683  0  3.77702  0  0  -0.084724  0  4.016876  0  0  -0.087761  0  4.039465  0  0  -0.099339  -0.082541  0  4.001427  0
C  C113  1  0.49464709  0.25036619  0.95759745  1  0  -0.077722  0  3.776953  0  0  -0.084756  0  4.016811  0  0  -0.087792  0  4.039398  0  0  -0.099303  -0.08257  0  4.00136  0
C  C114  1  0.99464233  0.24963009  0.45759472  1  0  -0.0776  0  3.776833  0  0  -0.084669  0  4.016713  0  0  -0.087694  0  4.039311  0  0  -0.099341  -0.082488  0  4.001268  0
C  C115  1  0.50535610  0.74962680  0.04240558  1  0  -0.077524  0  3.776686  0  0  -0.084577  0  4.016545  0  0  -0.087613  0  4.039135  0  0  -0.099267  -0.082393  0  4.001099  0
C  C116  1  0.04481678  0.68835480  0.47451642  1  0  -0.07557  0  3.789702  0  0  -0.091384  0  4.027564  0  0  -0.092928  0  4.050093  0  0  -0.10266  -0.090671  0  4.012058  0
C  C117  1  0.45517300  0.18835361  0.02548450  1  0  -0.075389  0  3.789711  0  0  -0.091188  0  4.027556  0  0  -0.09273  0  4.050088  0  0  -0.102635  -0.090469  0  4.012046  0
C  C118  1  0.95516959  0.31165050  0.52548473  1  0  -0.075559  0  3.789784  0  0  -0.091369  0  4.027668  0  0  -0.092912  0  4.050197  0  0  -0.102631  -0.090654  0  4.012164  0
C  C119  1  0.54482702  0.81164554  0.97451376  1  0  -0.075616  0  3.789728  0  0  -0.091432  0  4.027587  0  0  -0.092976  0  4.050117  0  0  -0.102657  -0.090716  0  4.012087  0
C  C120  1  0.64367465  0.37537040  0.38080157  1  0  -0.519901  0  3.505108  0  0  -0.589057  0  3.739562  0  0  -0.595091  0  3.747744  0  0  -0.268006  -0.585057  0  3.734018  0
C  C121  1  0.85632782  0.87537171  0.11919942  1  0  -0.520095  0  3.505109  0  0  -0.589279  0  3.739536  0  0  -0.59532  0  3.747728  0  0  -0.268068  -0.585283  0  3.734003  0
C  C122  1  0.35632749  0.62462874  0.61919967  1  0  -0.520054  0  3.505108  0  0  -0.589214  0  3.739515  0  0  -0.595258  0  3.747712  0  0  -0.268063  -0.585224  0  3.733986  0
C  C123  1  0.14367641  0.12462949  0.88080134  1  0  -0.519889  0  3.505158  0  0  -0.589032  0  3.739594  0  0  -0.595071  0  3.747785  0  0  -0.268023  -0.585036  0  3.734057  0
C  C124  1  0.42151839  0.14252595  0.37548568  1  0  -0.529262  0  3.511981  0  0  -0.599137  0  3.749425  0  0  -0.604579  0  3.755861  0  0  -0.264351  -0.595208  0  3.745722  0
C  C125  1  0.07848406  0.64252656  0.12451581  1  0  -0.52942  0  3.511998  0  0  -0.599293  0  3.749447  0  0  -0.604734  0  3.755874  0  0  -0.264413  -0.595374  0  3.745761  0
C  C126  1  0.57848480  0.85747423  0.62451619  1  0  -0.529369  0  3.511936  0  0  -0.599259  0  3.749386  0  0  -0.604699  0  3.755816  0  0  -0.264429  -0.59534  0  3.745702  0
C  C127  1  0.92152018  0.35747156  0.87548553  1  0  -0.529196  0  3.511987  0  0  -0.599111  0  3.749406  0  0  -0.604552  0  3.755837  0  0  -0.264354  -0.595183  0  3.745713  0
S  S128  1  0.31671224  0.44773904  0.42896319  1  0  -0.491569  0  1.814862  0  0  -0.461725  0  2.157765  0  0  -0.472555  0  2.152279  0  0  -0.182793  -0.452787  0  2.161089  0
S  S129  1  0.18328559  0.94773959  0.07103565  1  0  -0.491584  0  1.814838  0  0  -0.461736  0  2.157742  0  0  -0.472564  0  2.152255  0  0  -0.182785  -0.452807  0  2.161068  0
S  S130  1  0.68328463  0.55226216  0.57103610  1  0  -0.491542  0  1.814869  0  0  -0.46169  0  2.157763  0  0  -0.472524  0  2.152279  0  0  -0.182773  -0.452756  0  2.161074  0
S  S131  1  0.81671444  0.05226263  0.92896377  1  0  -0.491566  0  1.814814  0  0  -0.46173  0  2.157755  0  0  -0.472558  0  2.152271  0  0  -0.182795  -0.452797  0  2.161091  0
S  S132  1  0.09498326  0.88483817  0.26908333  1  0  -0.520851  0  1.807875  0  0  -0.495477  0  2.147633  0  0  -0.508014  0  2.143912  0  0  -0.198182  -0.485698  0  2.149361  0
S  S133  1  0.40501992  0.38483470  0.23091750  1  0  -0.520793  0  1.807898  0  0  -0.495416  0  2.147659  0  0  -0.507956  0  2.14394  0  0  -0.198178  -0.485639  0  2.149396  0
S  S134  1  0.90501677  0.11516303  0.73091667  1  0  -0.520794  0  1.807861  0  0  -0.495432  0  2.147656  0  0  -0.507969  0  2.143934  0  0  -0.198171  -0.485644  0  2.149388  0
S  S135  1  0.59498746  0.61516342  0.76908223  1  0  -0.520852  0  1.807938  0  0  -0.495466  0  2.147689  0  0  -0.508004  0  2.143969  0  0  -0.198191  -0.485696  0  2.149422  0
