# generated using pymatgen
data_Zn2H23C29N5O11
_symmetry_space_group_name_H-M   'P 1'
_cell_length_a   10.71358263
_cell_length_b   10.57763367
_cell_length_c   13.44084855
_cell_angle_alpha   94.41787592
_cell_angle_beta   89.99945960
_cell_angle_gamma   90.00055477
_symmetry_Int_Tables_number   1
_chemical_formula_structural   Zn2H23C29N5O11
_chemical_formula_sum   'Zn4 H46 C58 N10 O22'
_cell_volume   1518.64974916
_cell_formula_units_Z   2
loop_
 _symmetry_equiv_pos_site_id
 _symmetry_equiv_pos_as_xyz
  1  'x, y, z'
loop_
 _atom_site_type_symbol
 _atom_site_label
 _atom_site_symmetry_multiplicity
 _atom_site_fract_x
 _atom_site_fract_y
 _atom_site_fract_z
 _atom_site_occupancy
 _atom_site_hle17_bader_spin_density
 _atom_site_hle17_ddec_charge
 _atom_site_hle17_ddec_spin_density
 _atom_site_hle17_ddec_sum_bond_order
 _atom_site_hle17_magmom
 _atom_site_hse06_10hf_bader_spin_density
 _atom_site_hse06_10hf_ddec_charge
 _atom_site_hse06_10hf_ddec_spin_density
 _atom_site_hse06_10hf_ddec_sum_bond_order
 _atom_site_hse06_10hf_magmom
 _atom_site_hse06_bader_spin_density
 _atom_site_hse06_ddec_charge
 _atom_site_hse06_ddec_spin_density
 _atom_site_hse06_ddec_sum_bond_order
 _atom_site_hse06_magmom
 _atom_site_pbe_bader_spin_density
 _atom_site_pbe_cm5_charge
 _atom_site_pbe_ddec_charge
 _atom_site_pbe_ddec_spin_density
 _atom_site_pbe_ddec_sum_bond_order
 _atom_site_pbe_magmom
Zn  Zn0  1  0.39409368  0.23842778  0.89273225  1  0  0.961521  0  1.95168  0  0  0.772268  0  2.41487  0  0  0.817034  0  2.365951  0  0  0.689148  0.741195  0  2.448463  0
Zn  Zn1  1  0.89408955  0.76156968  0.10726027  1  0  0.961456  0  1.951778  0  0  0.772219  0  2.415001  0  0  0.816993  0  2.366083  0  0  0.68913  0.741142  0  2.448596  0
Zn  Zn2  1  0.69444857  0.71000244  0.53730589  1  0  1.063601  0  1.818595  0  0  0.894962  0  2.265264  0  0  0.938557  0  2.212735  0  0  0.675079  0.86435  0  2.301351  0
Zn  Zn3  1  0.19444992  0.29000268  0.46269156  1  0  1.063579  0  1.818571  0  0  0.894994  0  2.26522  0  0  0.938582  0  2.21269  0  0  0.675069  0.864381  0  2.301308  0
H  H4  1  0.59402823  0.48003924  0.53359392  1  0  0.44365  0  0.856263  0  0  0.40903  0  0.925959  0  0  0.41962  0  0.910475  0  0  0.303705  0.401573  0  0.936848  0
H  H5  1  0.09402708  0.51995928  0.46640611  1  0  0.443677  0  0.856241  0  0  0.409029  0  0.925976  0  0  0.419621  0  0.910491  0  0  0.303684  0.401573  0  0.936865  0
H  H6  1  0.65552651  0.47920395  0.42581708  1  0  0.431236  0  0.807067  0  0  0.41822  0  0.852851  0  0  0.425919  0  0.844496  0  0  0.33319  0.41265  0  0.859103  0
H  H7  1  0.15552408  0.52079608  0.57418184  1  0  0.431251  0  0.807085  0  0  0.418229  0  0.852865  0  0  0.425928  0  0.84451  0  0  0.333175  0.41266  0  0.859119  0
H  H8  1  0.92709721  0.63504486  0.47041087  1  0  0.413965  0  0.900588  0  0  0.379236  0  0.970561  0  0  0.391567  0  0.952555  0  0  0.280867  0.370532  0  0.983256  0
H  H9  1  0.42709475  0.36496237  0.52958795  1  0  0.413989  0  0.900538  0  0  0.379294  0  0.970458  0  0  0.391625  0  0.95245  0  0  0.280915  0.370594  0  0.983146  0
H  H10  1  0.87504464  0.57822034  0.57323590  1  0  0.415544  0  0.896306  0  0  0.382954  0  0.963452  0  0  0.395163  0  0.945611  0  0  0.28233  0.374221  0  0.976176  0
H  H11  1  0.37505049  0.42178643  0.42676105  1  0  0.415537  0  0.896322  0  0  0.382943  0  0.963475  0  0  0.395153  0  0.945632  0  0  0.282307  0.374215  0  0.976195  0
H  H12  1  0.77953344  0.73413378  0.34123456  1  0  0.431058  0  0.871152  0  0  0.397161  0  0.938664  0  0  0.408732  0  0.921864  0  0  0.288859  0.388973  0  0.950564  0
H  H13  1  0.27952942  0.26587211  0.65876901  1  0  0.430965  0  0.871309  0  0  0.397053  0  0.938845  0  0  0.408624  0  0.922042  0  0  0.28881  0.388865  0  0.950744  0
H  H14  1  0.63905643  0.69033709  0.33791167  1  0  0.432058  0  0.804489  0  0  0.420706  0  0.848342  0  0  0.428087  0  0.840789  0  0  0.328765  0.415294  0  0.854096  0
H  H15  1  0.13905559  0.30967226  0.66209315  1  0  0.432025  0  0.80467  0  0  0.420692  0  0.848519  0  0  0.428076  0  0.840964  0  0  0.328759  0.41529  0  0.854256  0
H  H16  1  0.83339004  0.56700745  0.87728229  1  0  0.12386  0  0.96675  0  0  0.131002  0  1.030471  0  0  0.13529  0  1.027173  0  0  0.112306  0.12782  0  1.032968  0
H  H17  1  0.33339682  0.43301505  0.12272263  1  0  0.12383  0  0.96663  0  0  0.130969  0  1.030334  0  0  0.135259  0  1.027032  0  0  0.112307  0.127788  0  1.032837  0
H  H18  1  0.68887319  0.14784640  0.90330849  1  0  0.073123  0  0.933487  0  0  0.08242  0  0.994801  0  0  0.083753  0  0.994847  0  0  0.113407  0.081244  0  0.995302  0
H  H19  1  0.18887031  0.85215297  0.09670055  1  0  0.073205  0  0.933517  0  0  0.082481  0  0.994848  0  0  0.083827  0  0.994862  0  0  0.113487  0.081301  0  0.99536  0
H  H20  1  0.80465427  0.94071019  0.91193232  1  0  0.109222  0  0.949248  0  0  0.11964  0  1.008079  0  0  0.122806  0  1.007074  0  0  0.108392  0.117259  0  1.009458  0
H  H21  1  0.30465135  0.05928930  0.08806545  1  0  0.109253  0  0.949277  0  0  0.119679  0  1.008097  0  0  0.122846  0  1.007092  0  0  0.108387  0.117298  0  1.009475  0
H  H22  1  0.68310583  0.73973822  0.89600811  1  0  0.104921  0  0.949387  0  0  0.114238  0  1.011065  0  0  0.116188  0  1.009826  0  0  0.111571  0.112766  0  1.012081  0
H  H23  1  0.18310371  0.26025733  0.10398215  1  0  0.104837  0  0.949392  0  0  0.114189  0  1.011033  0  0  0.116142  0  1.009788  0  0  0.111552  0.112715  0  1.012052  0
H  H24  1  0.45240725  0.74718096  0.87457316  1  0  0.136802  0  0.95892  0  0  0.144475  0  1.019443  0  0  0.148849  0  1.016406  0  0  0.114118  0.141328  0  1.021759  0
H  H25  1  0.95240270  0.25281040  0.12541929  1  0  0.13682  0  0.958876  0  0  0.144493  0  1.019415  0  0  0.148866  0  1.016377  0  0  0.114145  0.141345  0  1.021732  0
H  H26  1  0.26547291  0.76908270  0.83861945  1  0  0.130485  0  0.950894  0  0  0.137965  0  1.011428  0  0  0.14172  0  1.010144  0  0  0.115218  0.135652  0  1.011924  0
H  H27  1  0.76547611  0.23091072  0.16139312  1  0  0.130418  0  0.950982  0  0  0.137914  0  1.011501  0  0  0.141669  0  1.010213  0  0  0.115222  0.135601  0  1.011998  0
H  H28  1  0.04129707  0.81100406  0.81445615  1  0  0.118298  0  0.950742  0  0  0.126356  0  1.009553  0  0  0.13046  0  1.005198  0  0  0.113858  0.123151  0  1.012976  0
H  H29  1  0.54129865  0.18898733  0.18555722  1  0  0.118166  0  0.951014  0  0  0.126369  0  1.009677  0  0  0.130474  0  1.005321  0  0  0.113811  0.123164  0  1.013099  0
H  H30  1  0.96388194  0.03744799  0.82996342  1  0  0.09469  0  0.965146  0  0  0.107075  0  1.021565  0  0  0.109337  0  1.022352  0  0  0.104332  0.105331  0  1.021495  0
H  H31  1  0.46387551  0.96254440  0.17004538  1  0  0.094625  0  0.965265  0  0  0.107034  0  1.021644  0  0  0.109293  0  1.022441  0  0  0.104297  0.105291  0  1.021575  0
H  H32  1  0.12175719  0.21301351  0.86471511  1  0  0.100947  0  0.94023  0  0  0.110802  0  0.997606  0  0  0.114204  0  0.994332  0  0  0.124291  0.108214  0  1.000142  0
H  H33  1  0.62174550  0.78698242  0.13528307  1  0  0.100847  0  0.940322  0  0  0.110784  0  0.997603  0  0  0.114138  0  0.994381  0  0  0.12428  0.1082  0  1.000135  0
H  H34  1  0.40675851  0.64264123  0.50259691  1  0  0.095439  0  0.948728  0  0  0.103598  0  1.011249  0  0  0.106175  0  1.00876  0  0  0.120506  0.101532  0  1.013407  0
H  H35  1  0.90675798  0.35735350  0.49739089  1  0  0.095588  0  0.948708  0  0  0.103764  0  1.011198  0  0  0.106344  0  1.008698  0  0  0.12061  0.101696  0  1.013359  0
H  H36  1  0.20241348  0.74845444  0.54660208  1  0  0.103569  0  0.94153  0  0  0.116159  0  0.995989  0  0  0.119173  0  0.995199  0  0  0.110551  0.113768  0  0.997112  0
H  H37  1  0.70241713  0.25152611  0.45338636  1  0  0.103509  0  0.941527  0  0  0.116105  0  0.995979  0  0  0.119121  0  0.995193  0  0  0.11056  0.113716  0  0.997096  0
H  H38  1  0.20616073  0.97309451  0.62585896  1  0  0.095935  0  0.932662  0  0  0.108476  0  0.990507  0  0  0.110605  0  0.989714  0  0  0.108759  0.107117  0  0.990624  0
H  H39  1  0.70617344  0.02687848  0.37413792  1  0  0.095858  0  0.932621  0  0  0.108423  0  0.990441  0  0  0.11056  0  0.989624  0  0  0.108756  0.107086  0  0.990534  0
H  H40  1  0.40950093  0.07926447  0.65723579  1  0  0.121702  0  0.976498  0  0  0.129936  0  1.037825  0  0  0.133146  0  1.036832  0  0  0.110958  0.127696  0  1.038559  0
H  H41  1  0.90951979  0.92072363  0.34276943  1  0  0.121625  0  0.976534  0  0  0.129861  0  1.03786  0  0  0.133071  0  1.036863  0  0  0.110951  0.127619  0  1.038595  0
H  H42  1  0.58042159  0.15540220  0.67798582  1  0  0.105127  0  1.00553  0  0  0.112621  0  1.071004  0  0  0.114889  0  1.070941  0  0  0.107138  0.110907  0  1.071281  0
H  H43  1  0.08043368  0.84459145  0.32201848  1  0  0.105282  0  1.005423  0  0  0.112739  0  1.070914  0  0  0.115003  0  1.07086  0  0  0.107132  0.111025  0  1.071192  0
H  H44  1  0.79681729  0.24234470  0.69714767  1  0  0.108853  0  0.942344  0  0  0.116561  0  1.003709  0  0  0.119276  0  1.001988  0  0  0.110836  0.114159  0  1.005672  0
H  H45  1  0.29683251  0.75765850  0.30286081  1  0  0.108628  0  0.942606  0  0  0.116438  0  1.003859  0  0  0.119154  0  1.002136  0  0  0.110831  0.114038  0  1.005817  0
H  H46  1  0.97798315  0.09697573  0.65173613  1  0  0.104614  0  0.952107  0  0  0.113162  0  1.014746  0  0  0.116161  0  1.014037  0  0  0.108197  0.111143  0  1.014832  0
H  H47  1  0.47799175  0.90303765  0.34827013  1  0  0.10472  0  0.952028  0  0  0.113195  0  1.014745  0  0  0.116198  0  1.014035  0  0  0.108232  0.111177  0  1.014832  0
H  H48  1  0.93079202  0.87118856  0.58692448  1  0  0.089755  0  0.930598  0  0  0.099993  0  0.988181  0  0  0.102836  0  0.985545  0  0  0.118951  0.097743  0  0.990234  0
H  H49  1  0.43080176  0.12881964  0.41308330  1  0  0.089975  0  0.930315  0  0  0.100217  0  0.987886  0  0  0.103066  0  0.985242  0  0  0.118979  0.097962  0  0.989949  0
C  C50  1  0.49874477  0.35802341  0.70538771  1  0  0.649384  0  3.872172  0  0  0.5894  0  4.180192  0  0  0.624111  0  4.168252  0  0  0.221794  0.56562  0  4.188415  0
C  C51  1  0.99874193  0.64198543  0.29460845  1  0  0.649236  0  3.872565  0  0  0.589437  0  4.180315  0  0  0.624154  0  4.168362  0  0  0.221742  0.565654  0  4.188544  0
C  C52  1  0.58001511  0.39921521  0.79311794  1  0  0.07203  0  3.717952  0  0  0.060362  0  3.970817  0  0  0.062334  0  3.986128  0  0  0.109746  0.058593  0  3.961606  0
C  C53  1  0.08001130  0.60079646  0.20688077  1  0  0.072216  0  3.717648  0  0  0.060487  0  3.970671  0  0  0.062479  0  3.985948  0  0  0.109701  0.058715  0  3.961462  0
C  C54  1  0.68605566  0.47650413  0.78955492  1  0  -0.050486  0  3.668205  0  0  -0.038651  0  3.914106  0  0  -0.041167  0  3.92865  0  0  0.008532  -0.037865  0  3.905574  0
C  C55  1  0.18605387  0.52350945  0.21044386  1  0  -0.05029  0  3.667775  0  0  -0.038539  0  3.913755  0  0  -0.041101  0  3.928374  0  0  0.008729  -0.037751  0  3.905226  0
C  C56  1  0.75018882  0.50779224  0.87879753  1  0  -0.05932  0  3.630761  0  0  -0.094553  0  3.878755  0  0  -0.092277  0  3.891944  0  0  -0.063229  -0.096362  0  3.870992  0
C  C57  1  0.25019246  0.49222572  0.12120104  1  0  -0.059309  0  3.630392  0  0  -0.094449  0  3.878429  0  0  -0.092164  0  3.891603  0  0  -0.063193  -0.096271  0  3.870675  0
C  C58  1  0.70576318  0.46939485  0.96980024  1  0  -0.042616  0  3.642404  0  0  -0.028273  0  3.882686  0  0  -0.030603  0  3.896595  0  0  0.013821  -0.027506  0  3.874662  0
C  C59  1  0.20576453  0.53060659  0.03019392  1  0  -0.042498  0  3.64252  0  0  -0.02835  0  3.882872  0  0  -0.030673  0  3.896765  0  0  0.013797  -0.027579  0  3.874845  0
C  C60  1  0.59834405  0.39307878  0.96678942  1  0  0.087523  0  3.69121  0  0  0.077345  0  3.934589  0  0  0.079971  0  3.95037  0  0  0.116445  0.075191  0  3.924703  0
C  C61  1  0.09834423  0.60692073  0.03320618  1  0  0.08743  0  3.69135  0  0  0.077422  0  3.934566  0  0  0.080045  0  3.950348  0  0  0.116429  0.075267  0  3.924676  0
C  C62  1  0.53291083  0.35049511  0.05890468  1  0  0.589433  0  3.953654  0  0  0.543112  0  4.255149  0  0  0.57443  0  4.249555  0  0  0.193866  0.521941  0  4.25797  0
C  C63  1  0.03291833  0.64950286  0.94108982  1  0  0.589321  0  3.954033  0  0  0.54311  0  4.255257  0  0  0.574429  0  4.249671  0  0  0.193832  0.521939  0  4.258072  0
C  C64  1  0.73176761  0.53031814  0.69560648  1  0  0.668593  0  3.923417  0  0  0.616955  0  4.22361  0  0  0.651132  0  4.214705  0  0  0.208796  0.593747  0  4.228714  0
C  C65  1  0.23177071  0.46969680  0.30439055  1  0  0.668566  0  3.923626  0  0  0.617026  0  4.22375  0  0  0.651206  0  4.214828  0  0  0.208698  0.593823  0  4.228848  0
C  C66  1  0.77355469  0.51114903  0.06557590  1  0  0.675152  0  3.942389  0  0  0.620923  0  4.252872  0  0  0.656194  0  4.241761  0  0  0.200827  0.596891  0  4.259393  0
C  C67  1  0.27356165  0.48885112  0.93442289  1  0  0.674817  0  3.942995  0  0  0.620745  0  4.253289  0  0  0.656016  0  4.242177  0  0  0.200737  0.596714  0  4.259806  0
C  C68  1  0.64018320  0.05689463  0.89557576  1  0  0.128949  0  3.737755  0  0  0.098863  0  3.999535  0  0  0.10447  0  4.019783  0  0  0.044781  0.095514  0  3.985103  0
C  C69  1  0.14017923  0.94310146  0.10442899  1  0  0.128936  0  3.738077  0  0  0.098885  0  3.999796  0  0  0.104495  0  4.020053  0  0  0.044755  0.095533  0  3.985363  0
C  C70  1  0.70408295  0.94273165  0.90013703  1  0  -0.119103  0  3.715141  0  0  -0.134493  0  3.97017  0  0  -0.140752  0  3.991188  0  0  -0.083101  -0.130414  0  3.955989  0
C  C71  1  0.20407894  0.05726028  0.09986401  1  0  -0.119268  0  3.715388  0  0  -0.134688  0  3.970432  0  0  -0.140951  0  3.991449  0  0  -0.083138  -0.130608  0  3.956252  0
C  C72  1  0.63587279  0.83013658  0.89139479  1  0  0.030421  0  3.671103  0  0  0.011544  0  3.921487  0  0  0.015851  0  3.938562  0  0  -0.055471  0.008905  0  3.90975  0
C  C73  1  0.13587348  0.16985948  0.10860031  1  0  0.030662  0  3.670938  0  0  0.011779  0  3.921313  0  0  0.016088  0  3.938379  0  0  -0.055404  0.009137  0  3.909582  0
C  C74  1  0.50683389  0.83466426  0.87872062  1  0  -0.133872  0  3.641736  0  0  -0.150345  0  3.881621  0  0  -0.156855  0  3.900727  0  0  -0.071879  -0.146173  0  3.869008  0
C  C75  1  0.00683252  0.16532872  0.12127675  1  0  -0.133935  0  3.6414  0  0  -0.150402  0  3.881384  0  0  -0.156909  0  3.900485  0  0  -0.071938  -0.146231  0  3.86877  0
C  C76  1  0.44995435  0.95350441  0.87391115  1  0  0.162902  0  3.775506  0  0  0.159677  0  4.018943  0  0  0.165209  0  4.040312  0  0  0.115557  0.155994  0  4.004433  0
C  C77  1  0.94995341  0.04648881  0.12609036  1  0  0.162997  0  3.774952  0  0  0.159657  0  4.018587  0  0  0.165189  0  4.039953  0  0  0.115621  0.155978  0  4.004076  0
C  C78  1  0.31343062  0.96928504  0.86056928  1  0  0.1704  0  3.7592  0  0  0.163886  0  4.000883  0  0  0.170926  0  4.0221  0  0  0.120269  0.159138  0  3.986444  0
C  C79  1  0.81342469  0.03070504  0.13943454  1  0  0.170366  0  3.75934  0  0  0.163882  0  4.001021  0  0  0.170944  0  4.022261  0  0  0.120254  0.159132  0  3.986579  0
C  C80  1  0.23181421  0.86672417  0.84220573  1  0  -0.143421  0  3.669738  0  0  -0.160743  0  3.917294  0  0  -0.169194  0  3.939383  0  0  -0.074623  -0.155337  0  3.902252  0
C  C81  1  0.73181372  0.13327085  0.15780273  1  0  -0.143266  0  3.669574  0  0  -0.160642  0  3.917211  0  0  -0.169086  0  3.93929  0  0  -0.074659  -0.155236  0  3.90217  0
C  C82  1  0.10508275  0.89050709  0.82907853  1  0  0.0104  0  3.69152  0  0  -0.010188  0  3.941602  0  0  -0.005888  0  3.95904  0  0  -0.062101  -0.012723  0  3.929811  0
C  C83  1  0.60508094  0.10948678  0.17093229  1  0  0.010481  0  3.691531  0  0  -0.010229  0  3.941633  0  0  -0.005927  0  3.959066  0  0  -0.061993  -0.012767  0  3.929845  0
C  C84  1  0.06242144  0.01542293  0.83755603  1  0  -0.129252  0  3.74959  0  0  -0.141587  0  4.004179  0  0  -0.149228  0  4.026728  0  0  -0.086083  -0.136791  0  3.989213  0
C  C85  1  0.56241879  0.98456961  0.16245205  1  0  -0.129106  0  3.749474  0  0  -0.14147  0  4.004136  0  0  -0.149109  0  4.026667  0  0  -0.085964  -0.136675  0  3.989172  0
C  C86  1  0.14815689  0.11308012  0.85606897  1  0  0.130401  0  3.702942  0  0  0.09634  0  3.954403  0  0  0.103684  0  3.9718  0  0  0.05002  0.09128  0  3.943105  0
C  C87  1  0.64814513  0.88691225  0.14393325  1  0  0.130357  0  3.702674  0  0  0.096199  0  3.954148  0  0  0.103607  0  3.971564  0  0  0.049883  0.09114  0  3.942852  0
C  C88  1  0.40344239  0.73789667  0.53964922  1  0  0.150043  0  3.667645  0  0  0.118756  0  3.917697  0  0  0.125698  0  3.93544  0  0  0.059234  0.114146  0  3.905596  0
C  C89  1  0.90344326  0.26209803  0.46034380  1  0  0.149912  0  3.66788  0  0  0.118624  0  3.917918  0  0  0.125568  0  3.935659  0  0  0.059165  0.114015  0  3.905817  0
C  C90  1  0.29010697  0.79764294  0.56389558  1  0  -0.117235  0  3.724788  0  0  -0.129334  0  3.975363  0  0  -0.136582  0  3.997638  0  0  -0.077472  -0.124252  0  3.960291  0
C  C91  1  0.79011502  0.20234789  0.43609805  1  0  -0.117145  0  3.724558  0  0  -0.129256  0  3.97516  0  0  -0.136512  0  3.997445  0  0  -0.077452  -0.124174  0  3.96009  0
C  C92  1  0.29215424  0.92171443  0.60687769  1  0  0.005856  0  3.72592  0  0  -0.015711  0  3.980821  0  0  -0.012341  0  4.001006  0  0  -0.063918  -0.017668  0  3.966492  0
C  C93  1  0.79216721  0.07827167  0.39312159  1  0  0.005815  0  3.725767  0  0  -0.01578  0  3.980724  0  0  -0.012409  0  4.00092  0  0  -0.064032  -0.017752  0  3.966387  0
C  C94  1  0.40657833  0.98195307  0.62435769  1  0  -0.138389  0  3.677134  0  0  -0.157992  0  3.928581  0  0  -0.165282  0  3.950125  0  0  -0.07791  -0.153407  0  3.914077  0
C  C95  1  0.90659560  0.01803690  0.37564470  1  0  -0.138181  0  3.677378  0  0  -0.157744  0  3.928766  0  0  -0.165043  0  3.950307  0  0  -0.077813  -0.153152  0  3.914278  0
C  C96  1  0.51665525  0.91557141  0.59955265  1  0  0.173856  0  3.746369  0  0  0.170073  0  3.987822  0  0  0.176242  0  4.008539  0  0  0.123215  0.165795  0  3.973752  0
C  C97  1  0.01666564  0.08442925  0.40044734  1  0  0.173933  0  3.746449  0  0  0.170107  0  3.987887  0  0  0.176302  0  4.00858  0  0  0.123211  0.165797  0  3.973863  0
C  C98  1  0.64247047  0.97204712  0.61723858  1  0  0.179565  0  3.74739  0  0  0.17303  0  3.98987  0  0  0.179756  0  4.010076  0  0  0.123794  0.168516  0  3.976122  0
C  C99  1  0.14248053  0.02795753  0.38276072  1  0  0.179594  0  3.747355  0  0  0.173153  0  3.989768  0  0  0.17986  0  4.009961  0  0  0.123795  0.168646  0  3.976026  0
C  C100  1  0.66060842  0.09660770  0.65719432  1  0  -0.138933  0  3.697361  0  0  -0.160606  0  3.949812  0  0  -0.167972  0  3.972738  0  0  -0.079431  -0.155406  0  3.933998  0
C  C101  1  0.16062550  0.90339521  0.34280921  1  0  -0.139338  0  3.696978  0  0  -0.160995  0  3.949481  0  0  -0.168364  0  3.972413  0  0  -0.079429  -0.155791  0  3.933664  0
C  C102  1  0.78152518  0.14372128  0.66972681  1  0  -0.003631  0  3.709693  0  0  -0.020502  0  3.960452  0  0  -0.017684  0  3.979444  0  0  -0.062913  -0.022105  0  3.947686  0
C  C103  1  0.28154568  0.85628368  0.33027743  1  0  -0.003174  0  3.709175  0  0  -0.020117  0  3.959912  0  0  -0.017298  0  3.978903  0  0  -0.062849  -0.021721  0  3.947147  0
C  C104  1  0.88194234  0.06379332  0.64422204  1  0  -0.123025  0  3.745946  0  0  -0.13607  0  3.999262  0  0  -0.142674  0  4.021477  0  0  -0.080766  -0.131622  0  3.983606  0
C  C105  1  0.38195863  0.93621634  0.35578397  1  0  -0.123179  0  3.745851  0  0  -0.136178  0  3.999197  0  0  -0.142787  0  4.021418  0  0  -0.080872  -0.13173  0  3.983545  0
C  C106  1  0.85714833  0.93977882  0.60684355  1  0  0.141071  0  3.693146  0  0  0.110438  0  3.943893  0  0  0.116769  0  3.962465  0  0  0.054592  0.106151  0  3.931556  0
C  C107  1  0.35715951  0.06022778  0.39315873  1  0  0.140862  0  3.693081  0  0  0.110264  0  3.943817  0  0  0.11658  0  3.962387  0  0  0.054576  0.105979  0  3.931482  0
N  N108  1  0.54304077  0.35785918  0.88002202  1  0  -0.325684  0  3.422226  0  0  -0.257166  0  3.685632  0  0  -0.27085  0  3.701564  0  0  -0.325733  -0.248364  0  3.675418  0
N  N109  1  0.04303652  0.64214457  0.11997350  1  0  -0.325632  0  3.422022  0  0  -0.257276  0  3.685577  0  0  -0.270965  0  3.701504  0  0  -0.325701  -0.248472  0  3.675365  0
N  N110  1  0.51658040  0.06217070  0.88192073  1  0  -0.357548  0  3.247526  0  0  -0.296004  0  3.517606  0  0  -0.312681  0  3.535183  0  0  -0.316847  -0.284116  0  3.505013  0
N  N111  1  0.01657902  0.93782237  0.11808549  1  0  -0.357687  0  3.247614  0  0  -0.296108  0  3.517721  0  0  -0.312791  0  3.535304  0  0  -0.316944  -0.284216  0  3.505121  0
N  N112  1  0.27057982  0.09014672  0.86597393  1  0  -0.34405  0  3.290016  0  0  -0.26352  0  3.557009  0  0  -0.282413  0  3.572019  0  0  -0.324908  -0.251022  0  3.547213  0
N  N113  1  0.77057306  0.90984582  0.13402367  1  0  -0.343965  0  3.290117  0  0  -0.263311  0  3.556932  0  0  -0.28228  0  3.572007  0  0  -0.32482  -0.250816  0  3.547142  0
N  N114  1  0.51361673  0.79531856  0.55745349  1  0  -0.344914  0  3.243889  0  0  -0.273983  0  3.504505  0  0  -0.291743  0  3.520763  0  0  -0.312688  -0.261449  0  3.492965  0
N  N115  1  0.01362030  0.20467924  0.44254188  1  0  -0.344973  0  3.243983  0  0  -0.274053  0  3.504618  0  0  -0.291823  0  3.520869  0  0  -0.312695  -0.261508  0  3.493085  0
N  N116  1  0.74063256  0.89615208  0.59264032  1  0  -0.343141  0  3.269812  0  0  -0.269033  0  3.529685  0  0  -0.286888  0  3.546003  0  0  -0.316506  -0.257379  0  3.519348  0
N  N117  1  0.24064679  0.10385251  0.40735973  1  0  -0.343217  0  3.269891  0  0  -0.269225  0  3.529853  0  0  -0.287046  0  3.546141  0  0  -0.316523  -0.257568  0  3.519515  0
O  O118  1  0.41135057  0.27930305  0.72024460  1  0  -0.638084  0  2.057311  0  0  -0.570638  0  2.299048  0  0  -0.59425  0  2.283627  0  0  -0.304301  -0.554474  0  2.30961  0
O  O119  1  0.91134679  0.72070025  0.27975038  1  0  -0.638203  0  2.057459  0  0  -0.570848  0  2.299146  0  0  -0.594444  0  2.283671  0  0  -0.304384  -0.554676  0  2.309703  0
O  O120  1  0.52171725  0.40014126  0.62144092  1  0  -0.628729  0  2.045044  0  0  -0.565095  0  2.267674  0  0  -0.590186  0  2.255887  0  0  -0.307332  -0.547774  0  2.275673  0
O  O121  1  0.02171324  0.59986894  0.37855515  1  0  -0.628678  0  2.045172  0  0  -0.565053  0  2.267705  0  0  -0.590143  0  2.25591  0  0  -0.307224  -0.547732  0  2.275711  0
O  O122  1  0.81759792  0.47157847  0.64676577  1  0  -0.630923  0  1.923722  0  0  -0.584499  0  2.139966  0  0  -0.609105  0  2.129224  0  0  -0.325551  -0.566915  0  2.146888  0
O  O123  1  0.31760940  0.52842873  0.35322271  1  0  -0.63098  0  1.924045  0  0  -0.584587  0  2.14027  0  0  -0.609183  0  2.129517  0  0  -0.32555  -0.56701  0  2.147196  0
O  O124  1  0.68069568  0.63479011  0.67664216  1  0  -0.63746  0  2.011402  0  0  -0.578267  0  2.262086  0  0  -0.606382  0  2.251964  0  0  -0.327187  -0.557852  0  2.267912  0
O  O125  1  0.18068915  0.36522721  0.32335912  1  0  -0.637482  0  2.011182  0  0  -0.578336  0  2.26183  0  0  -0.606456  0  2.251726  0  0  -0.327206  -0.55791  0  2.267632  0
O  O126  1  0.75271610  0.62795041  0.09574845  1  0  -0.668252  0  2.035552  0  0  -0.605345  0  2.303932  0  0  -0.6345  0  2.289421  0  0  -0.344022  -0.583959  0  2.31257  0
O  O127  1  0.25271951  0.37205145  0.90424985  1  0  -0.6682  0  2.035751  0  0  -0.605292  0  2.303997  0  0  -0.634459  0  2.289504  0  0  -0.344006  -0.583905  0  2.312633  0
O  O128  1  0.84688626  0.43512712  0.10128909  1  0  -0.600285  0  1.87728  0  0  -0.564912  0  2.092909  0  0  -0.589622  0  2.085074  0  0  -0.327107  -0.546258  0  2.09687  0
O  O129  1  0.34689251  0.56487180  0.89870759  1  0  -0.600207  0  1.877488  0  0  -0.564887  0  2.093053  0  0  -0.589595  0  2.08521  0  0  -0.327112  -0.546233  0  2.097012  0
O  O130  1  0.56700933  0.39695811  0.14251963  1  0  -0.568128  0  1.873781  0  0  -0.532822  0  2.07968  0  0  -0.552882  0  2.071492  0  0  -0.32533  -0.518356  0  2.084406  0
O  O131  1  0.06701644  0.60303732  0.85747595  1  0  -0.568056  0  1.87379  0  0  -0.532784  0  2.079622  0  0  -0.552839  0  2.071421  0  0  -0.325299  -0.518317  0  2.084343  0
O  O132  1  0.44286784  0.26980870  0.04245994  1  0  -0.646438  0  2.02809  0  0  -0.585971  0  2.292657  0  0  -0.613041  0  2.28104  0  0  -0.337611  -0.566538  0  2.299781  0
O  O133  1  0.94287286  0.73018731  0.95753361  1  0  -0.646437  0  2.02826  0  0  -0.586035  0  2.292796  0  0  -0.613084  0  2.281129  0  0  -0.33763  -0.566605  0  2.299927  0
O  O134  1  0.61127609  0.53214013  0.47652334  1  0  -0.820967  0  1.893695  0  0  -0.767133  0  2.092675  0  0  -0.785647  0  2.062316  0  0  -0.563711  -0.753973  0  2.113683  0
O  O135  1  0.11127469  0.46785854  0.52347583  1  0  -0.820982  0  1.893691  0  0  -0.767144  0  2.092742  0  0  -0.785658  0  2.06238  0  0  -0.56367  -0.753986  0  2.113753  0
O  O136  1  0.88031986  0.65591801  0.53437093  1  0  -0.860536  0  1.946785  0  0  -0.794851  0  2.152649  0  0  -0.816826  0  2.113997  0  0  -0.591336  -0.779161  0  2.179651  0
O  O137  1  0.38031796  0.34409070  0.46562834  1  0  -0.860568  0  1.946846  0  0  -0.794905  0  2.15269  0  0  -0.816881  0  2.114035  0  0  -0.591356  -0.779218  0  2.179667  0
O  O138  1  0.69608316  0.74768681  0.37550958  1  0  -0.821434  0  1.825757  0  0  -0.771361  0  2.020909  0  0  -0.790752  0  1.992238  0  0  -0.57153  -0.757747  0  2.041063  0
O  O139  1  0.19607942  0.25232116  0.62449547  1  0  -0.821307  0  1.825976  0  0  -0.771276  0  2.021157  0  0  -0.790666  0  1.992497  0  0  -0.571478  -0.757671  0  2.041286  0
