# generated using pymatgen
data_Al4H12C29O24
_symmetry_space_group_name_H-M   'P 1'
_cell_length_a   6.67887167
_cell_length_b   16.82655530
_cell_length_c   18.66939201
_cell_angle_alpha   74.87551600
_cell_angle_beta   89.42685288
_cell_angle_gamma   89.96645788
_symmetry_Int_Tables_number   1
_chemical_formula_structural   Al4H12C29O24
_chemical_formula_sum   'Al4 H12 C29 O24'
_cell_volume   2025.32934787
_cell_formula_units_Z   1
loop_
 _symmetry_equiv_pos_site_id
 _symmetry_equiv_pos_as_xyz
  1  'x, y, z'
loop_
 _atom_site_type_symbol
 _atom_site_label
 _atom_site_symmetry_multiplicity
 _atom_site_fract_x
 _atom_site_fract_y
 _atom_site_fract_z
 _atom_site_occupancy
 _atom_site_pbe_bader_charge
 _atom_site_pbe_bader_spin_density
 _atom_site_pbe_cm5_charge
 _atom_site_pbe_ddec_charge
 _atom_site_pbe_ddec_spin_density
 _atom_site_pbe_ddec_sum_bond_order
 _atom_site_pbe_magmom
Al  Al0  1  0.10511066  0.49970063  0.50011858  1  2.501594  0  0.400402  1.636998  0  2.579002  0
Al  Al1  1  0.60686401  0.49995821  0.50064919  1  2.502888  0  0.399223  1.633999  0  2.590531  0
Al  Al2  1  0.62895995  0.00139250  0.99975928  1  2.502975  0  0.404098  1.642695  0  2.58155  0
Al  Al3  1  0.13179263  0.00226901  0.99798108  1  2.501988  0  0.403594  1.649167  0  2.578917  0
H  H4  1  0.58553146  0.81481696  0.19236101  1  0.088116  0  0.112003  0.130388  0  1.017401  0
H  H5  1  0.01099322  0.69939811  0.30174715  1  0.104719  0  0.105205  0.146862  0  1.039957  0
H  H6  1  0.07947099  0.17782502  0.80064256  1  0.098922  0  0.118803  0.12317  0  0.976086  0
H  H7  1  0.54068089  0.19319723  0.79094716  1  0.131162  0  0.115459  0.14121  0  0.988746  0
H  H8  1  0.49050327  0.32402876  0.71873817  1  0.127124  0  0.122583  0.151275  0  0.974978  0
H  H9  1  0.16083056  0.84196465  0.16318895  1  0.637067  0  0.326298  0.360073  0  0.91291  0
H  H10  1  0.41716925  0.73502823  0.27589717  1  0.615209  0  0.332857  0.360121  0  0.893803  0
H  H11  1  0.94871738  0.24382362  0.57028943  1  0.627021  0  0.358064  0.396911  0  0.826389  0
H  H12  1  0.35790147  0.60132379  0.45380914  1  0.612418  0  0.35532  0.436008  0  0.851911  0
H  H13  1  0.85174547  0.40233364  0.55748801  1  0.618524  0  0.340229  0.409426  0  0.899104  0
H  H14  1  0.38158997  0.90616080  0.98074137  1  0.62776  0  0.355821  0.43651  0  0.846637  0
H  H15  1  0.87967520  0.10764949  0.98987201  1  0.64242  0  0.365262  0.44545  0  0.82822  0
C  C16  1  0.35693115  0.41077788  0.41688534  1  1.693226  0  0.273119  0.685799  0  4.197446  0
C  C17  1  0.35629240  0.39052859  0.61448153  1  1.572705  0  0.269042  0.690369  0  4.094027  0
C  C18  1  0.85589346  0.58594552  0.58697625  1  1.726772  0  0.272282  0.683522  0  4.200445  0
C  C19  1  0.85619851  0.61026034  0.38860785  1  1.527244  0  0.25793  0.712848  0  4.101128  0
C  C20  1  0.72320564  0.78785119  0.21925558  1  0.037142  0  -0.107834  -0.316105  0  3.979984  0
C  C21  1  0.89082448  0.82353774  0.18310221  1  0.495573  0  0.084856  0.185597  0  4.032845  0
C  C22  1  0.70273393  0.72067645  0.28547115  1  0.428256  0  0.099049  0.392722  0  4.068664  0
C  C23  1  0.86275495  0.67908592  0.32290046  1  0.069662  0  -0.124987  -0.411116  0  3.839652  0
C  C24  1  0.88031826  0.86250545  0.86414518  1  0.190185  0  -0.01228  -0.165681  0  3.852822  0
C  C25  1  0.87457436  0.81817185  0.82139123  1  -0.294612  0  -0.003606  0.045461  0  4.26074  0
C  C26  1  0.86844824  0.76970612  0.77474050  1  0.038965  0  -0.005275  -0.020231  0  4.187942  0
C  C27  1  0.86280357  0.72512158  0.73175507  1  -0.094726  0  0.009907  0.019936  0  4.182467  0
C  C28  1  0.85828583  0.67741672  0.68442789  1  -0.226299  0  -0.010636  0.009276  0  4.252274  0
C  C29  1  0.85556086  0.63443081  0.64054973  1  0.161974  0  0.014381  -0.101364  0  3.798327  0
C  C30  1  0.35985826  0.36193575  0.36354088  1  0.156613  0  0.011689  -0.106379  0  3.7989  0
C  C31  1  0.36145145  0.31917842  0.31941989  1  -0.224561  0  -0.010612  0.010718  0  4.249804  0
C  C32  1  0.36340806  0.27188366  0.27163603  1  -0.09097  0  0.00783  0.016575  0  4.182327  0
C  C33  1  0.36564326  0.22784881  0.22810518  1  0.045677  0  -0.004603  -0.018616  0  4.189168  0
C  C34  1  0.36923720  0.18002927  0.18080212  1  -0.136676  0  -0.003284  0.043979  0  4.257457  0
C  C35  1  0.37352753  0.13635066  0.13742609  1  0.034046  0  -0.008921  -0.158384  0  3.842685  0
C  C36  1  0.22318528  0.20318155  0.77663812  1  -0.009183  0  -0.057231  -0.034363  0  3.938399  0
C  C37  1  0.39178584  0.17375946  0.81325162  1  -0.060615  0  -0.084347  -0.235718  0  3.870185  0
C  C38  1  0.21694367  0.26573154  0.70606065  1  0.001515  0  0.008741  0.019114  0  3.951556  0
C  C39  1  0.36000495  0.32405825  0.68405745  1  0.009653  0  -0.062113  -0.225716  0  3.788988  0
C  C40  1  0.38489762  0.11146843  0.88533314  1  1.529386  0  0.26283  0.686637  0  4.106781  0
C  C41  1  0.37681045  0.08612440  0.08596278  1  1.685697  0  0.274952  0.703288  0  4.181502  0
C  C42  1  0.87642744  0.89087324  0.11271642  1  1.585324  0  0.261871  0.574177  0  4.142221  0
C  C43  1  0.88181184  0.91315447  0.91512234  1  1.673396  0  0.275219  0.709367  0  4.173388  0
C  C44  1  0.03230092  0.26328914  0.66120133  1  1.536268  0  0.241667  0.586836  0  4.126581  0
O  O45  1  0.52646535  0.41927602  0.58920226  1  -1.245102  0  -0.229239  -0.580855  0  2.317576  0
O  O46  1  0.18443375  0.43086619  0.43557078  1  -1.205798  0  -0.222646  -0.564003  0  2.284246  0
O  O47  1  0.02641147  0.58357723  0.41663855  1  -1.27033  0  -0.247193  -0.620259  0  2.294251  0
O  O48  1  0.18744815  0.41437422  0.58572545  1  -1.252716  0  -0.228941  -0.592403  0  2.351994  0
O  O49  1  0.02767413  0.56540995  0.56799201  1  -1.213401  0  -0.223008  -0.563347  0  2.28302  0
O  O50  1  0.52670309  0.42705691  0.43982897  1  -1.213145  0  -0.222411  -0.563706  0  2.279611  0
O  O51  1  0.35602699  0.54877519  0.49107284  1  -1.411272  0  -0.446518  -0.988195  0  2.180565  0
O  O52  1  0.68529021  0.57017283  0.56441373  1  -1.219438  0  -0.222542  -0.56352  0  2.281056  0
O  O53  1  0.68754181  0.58002773  0.41542564  1  -1.266154  0  -0.239072  -0.605161  0  2.344799  0
O  O54  1  0.85559866  0.44799799  0.51312825  1  -1.422881  0  -0.448789  -0.98087  0  2.183912  0
O  O55  1  0.20767898  0.06615813  0.06475446  1  -1.224774  0  -0.22644  -0.580243  0  2.290379  0
O  O56  1  0.55414741  0.08687143  0.91429349  1  -1.251111  0  -0.241898  -0.606691  0  2.301098  0
O  O57  1  0.71132976  0.93241753  0.93702821  1  -1.235629  0  -0.227589  -0.585304  0  2.288363  0
O  O58  1  0.54813686  0.06613318  0.06558817  1  -1.231704  0  -0.225982  -0.579456  0  2.288554  0
O  O59  1  0.70681843  0.91559247  0.08678198  1  -1.250789  0  -0.225433  -0.551838  0  2.363022  0
O  O60  1  0.21354364  0.08705931  0.91383033  1  -1.2654  0  -0.242684  -0.61725  0  2.333477  0
O  O61  1  0.37983471  0.95037799  0.00538698  1  -1.429684  0  -0.449498  -0.996855  0  2.177954  0
O  O62  1  0.04823772  0.91593783  0.08462121  1  -1.242728  0  -0.232201  -0.581924  0  2.378601  0
O  O63  1  0.05251685  0.93367672  0.93475925  1  -1.221877  0  -0.227879  -0.58503  0  2.280791  0
O  O64  1  0.88025820  0.04929410  0.99293713  1  -1.440244  0  -0.445976  -0.994801  0  2.199383  0
O  O65  1  0.08247437  0.80372556  0.20336788  1  -1.143446  0  -0.336288  -0.410579  0  2.299064  0
O  O66  1  0.51159210  0.69974647  0.30923271  1  -1.102379  0  -0.329362  -0.415182  0  2.26228  0
O  O67  1  0.86287317  0.27315182  0.68263547  1  -1.131093  0  -0.280252  -0.486131  0  2.087727  0
O  O68  1  0.07476399  0.24363666  0.59693624  1  -1.11045  0  -0.323014  -0.469205  0  2.211358  0
