# generated using pymatgen
data_ZnH11C16NO5
_symmetry_space_group_name_H-M   'P 1'
_cell_length_a   9.73321919
_cell_length_b   10.49293739
_cell_length_c   14.57336911
_cell_angle_alpha   86.98209156
_cell_angle_beta   80.68322022
_cell_angle_gamma   71.58772019
_symmetry_Int_Tables_number   1
_chemical_formula_structural   ZnH11C16NO5
_chemical_formula_sum   'Zn4 H44 C64 N4 O20'
_cell_volume   1393.55556460
_cell_formula_units_Z   4
loop_
 _symmetry_equiv_pos_site_id
 _symmetry_equiv_pos_as_xyz
  1  'x, y, z'
loop_
 _atom_site_type_symbol
 _atom_site_label
 _atom_site_symmetry_multiplicity
 _atom_site_fract_x
 _atom_site_fract_y
 _atom_site_fract_z
 _atom_site_occupancy
 _atom_site_hle17_bader_spin_density
 _atom_site_hle17_ddec_charge
 _atom_site_hle17_ddec_spin_density
 _atom_site_hle17_ddec_sum_bond_order
 _atom_site_hle17_magmom
 _atom_site_hse06_10hf_bader_spin_density
 _atom_site_hse06_10hf_ddec_charge
 _atom_site_hse06_10hf_ddec_spin_density
 _atom_site_hse06_10hf_ddec_sum_bond_order
 _atom_site_hse06_10hf_magmom
 _atom_site_hse06_bader_spin_density
 _atom_site_hse06_ddec_charge
 _atom_site_hse06_ddec_spin_density
 _atom_site_hse06_ddec_sum_bond_order
 _atom_site_hse06_magmom
 _atom_site_pbe_bader_spin_density
 _atom_site_pbe_cm5_charge
 _atom_site_pbe_ddec_charge
 _atom_site_pbe_ddec_spin_density
 _atom_site_pbe_ddec_sum_bond_order
 _atom_site_pbe_magmom
Zn  Zn0  1  0.19260945  0.07234079  0.11584731  1  0  1.074251  0  1.758609  0  0  0.890099  0  2.228856  0  0  0.939871  0  2.170359  0  0  0.689359  0.85553  0  2.268499  0
Zn  Zn1  1  0.80738911  0.92766133  0.88415264  1  0  1.074241  0  1.758596  0  0  0.890092  0  2.228848  0  0  0.939866  0  2.170346  0  0  0.689348  0.855523  0  2.268498  0
Zn  Zn2  1  0.75923308  0.09225066  0.38967151  1  0  1.09444  0  1.74683  0  0  0.910432  0  2.219781  0  0  0.959847  0  2.160034  0  0  0.689717  0.87553  0  2.26144  0
Zn  Zn3  1  0.24077172  0.90775148  0.61032983  1  0  1.094382  0  1.746922  0  0  0.910389  0  2.219873  0  0  0.959815  0  2.160123  0  0  0.689703  0.875485  0  2.261529  0
H  H4  1  0.23656186  0.28330960  0.97983305  1  0  0.095495  0  0.955229  0  0  0.102074  0  1.019356  0  0  0.103987  0  1.018859  0  0  0.121145  0.100646  0  1.019839  0
H  H5  1  0.76343496  0.71668847  0.02016451  1  0  0.0955  0  0.955167  0  0  0.102076  0  1.01931  0  0  0.103987  0  1.018814  0  0  0.121138  0.100645  0  1.0198  0
H  H6  1  0.34283964  0.29745444  0.81347062  1  0  0.114056  0  0.941876  0  0  0.125151  0  1.000372  0  0  0.127301  0  1.001714  0  0  0.113031  0.123727  0  0.99931  0
H  H7  1  0.65715893  0.70254464  0.18652671  1  0  0.114057  0  0.941885  0  0  0.125147  0  1.000393  0  0  0.127299  0  1.001735  0  0  0.113033  0.123724  0  0.99933  0
H  H8  1  0.47385531  0.86395139  0.80421659  1  0  0.114503  0  0.961252  0  0  0.124408  0  1.021006  0  0  0.126943  0  1.021099  0  0  0.112331  0.122544  0  1.021072  0
H  H9  1  0.52613874  0.13604872  0.19578393  1  0  0.114502  0  0.961149  0  0  0.124384  0  1.020942  0  0  0.126912  0  1.021044  0  0  0.112348  0.122522  0  1.021004  0
H  H10  1  0.35236409  0.86818025  0.96883779  1  0  0.086523  0  0.961982  0  0  0.095399  0  1.024064  0  0  0.097765  0  1.02199  0  0  0.119008  0.093639  0  1.025603  0
H  H11  1  0.64763238  0.13181885  0.03116252  1  0  0.086534  0  0.961976  0  0  0.09543  0  1.024032  0  0  0.097795  0  1.021959  0  0  0.119017  0.093669  0  1.025574  0
H  H12  1  0.33384497  0.26478267  0.65195591  1  0  0.109918  0  0.949501  0  0  0.120343  0  1.009803  0  0  0.12254  0  1.010866  0  0  0.109828  0.118925  0  1.008919  0
H  H13  1  0.66615980  0.73521039  0.34804239  1  0  0.109898  0  0.949482  0  0  0.120321  0  1.009775  0  0  0.122519  0  1.010838  0  0  0.109827  0.1189  0  1.008891  0
H  H14  1  0.47397792  0.25364035  0.49144715  1  0  0.090674  0  0.956551  0  0  0.097983  0  1.020536  0  0  0.100144  0  1.019604  0  0  0.118367  0.096458  0  1.021092  0
H  H15  1  0.52602926  0.74635173  0.50855300  1  0  0.09069  0  0.956485  0  0  0.098005  0  1.02048  0  0  0.100167  0  1.019543  0  0  0.118374  0.096481  0  1.021034  0
H  H16  1  0.78768078  0.90056414  0.55048524  1  0  0.086441  0  0.972765  0  0  0.095198  0  1.034675  0  0  0.097595  0  1.032794  0  0  0.116943  0.093417  0  1.036116  0
H  H17  1  0.21232222  0.09942796  0.44951741  1  0  0.086461  0  0.972772  0  0  0.095217  0  1.034679  0  0  0.097614  0  1.032797  0  0  0.116939  0.093436  0  1.03612  0
H  H18  1  0.66069451  0.89488049  0.71157437  1  0  0.112292  0  0.966005  0  0  0.121356  0  1.027213  0  0  0.124263  0  1.026146  0  0  0.111869  0.119361  0  1.027916  0
H  H19  1  0.33930330  0.10511160  0.28842677  1  0  0.112337  0  0.965884  0  0  0.121396  0  1.027095  0  0  0.124303  0  1.026027  0  0  0.111909  0.119398  0  1.027804  0
H  H20  1  0.09884406  0.37267345  0.39515395  1  0  0.093722  0  0.950011  0  0  0.106292  0  1.007647  0  0  0.109442  0  1.00611  0  0  0.104052  0.104053  0  1.008956  0
H  H21  1  0.90115037  0.62732865  0.60484370  1  0  0.09374  0  0.949958  0  0  0.106312  0  1.007588  0  0  0.109462  0  1.006051  0  0  0.104072  0.104073  0  1.008896  0
H  H22  1  0.02482191  0.60852841  0.45315502  1  0  0.091846  0  0.969773  0  0  0.101228  0  1.03498  0  0  0.104304  0  1.032978  0  0  0.101505  0.098904  0  1.036764  0
H  H23  1  0.97517772  0.39147368  0.54684139  1  0  0.09193  0  0.969813  0  0  0.101381  0  1.034926  0  0  0.104458  0  1.032921  0  0  0.101566  0.099056  0  1.036713  0
H  H24  1  0.94561826  0.75474672  0.17988784  1  0  0.103111  0  0.959227  0  0  0.111166  0  1.02583  0  0  0.114639  0  1.024233  0  0  0.103002  0.108357  0  1.02747  0
H  H25  1  0.05438207  0.24525639  0.82010983  1  0  0.103144  0  0.95914  0  0  0.111188  0  1.025763  0  0  0.114655  0  1.024174  0  0  0.103025  0.108381  0  1.027403  0
H  H26  1  0.14065832  0.64588776  0.03754943  1  0  0.109805  0  0.997353  0  0  0.116344  0  1.063205  0  0  0.120323  0  1.060537  0  0  0.095974  0.113598  0  1.064969  0
H  H27  1  0.85934338  0.35411435  0.96244882  1  0  0.109801  0  0.997428  0  0  0.11637  0  1.063235  0  0  0.12035  0  1.060565  0  0  0.095969  0.113623  0  1.065004  0
H  H28  1  0.12657671  0.61090712  0.87436068  1  0  0.1001  0  0.986083  0  0  0.108717  0  1.0498  0  0  0.112028  0  1.048449  0  0  0.094747  0.106246  0  1.050892  0
H  H29  1  0.87342221  0.38909398  0.12563722  1  0  0.100083  0  0.986151  0  0  0.108692  0  1.049863  0  0  0.112002  0  1.048515  0  0  0.094722  0.106234  0  1.05094  0
H  H30  1  0.32410099  0.73122601  0.32426809  1  0  0.106476  0  0.944395  0  0  0.116692  0  1.00584  0  0  0.119799  0  1.005002  0  0  0.104063  0.114476  0  1.006402  0
H  H31  1  0.67590138  0.26877715  0.67573553  1  0  0.106455  0  0.944393  0  0  0.116659  0  1.005851  0  0  0.119767  0  1.005013  0  0  0.104063  0.114442  0  1.006414  0
H  H32  1  0.39876985  0.57834673  0.04713242  1  0  0.091592  0  0.976542  0  0  0.10157  0  1.041583  0  0  0.104113  0  1.040467  0  0  0.102426  0.099714  0  1.04244  0
H  H33  1  0.60123183  0.42165845  0.95287188  1  0  0.091602  0  0.976506  0  0  0.101533  0  1.041642  0  0  0.104065  0  1.040514  0  0  0.102438  0.099675  0  1.042499  0
H  H34  1  0.57445209  0.36486483  0.09636027  1  0  0.094197  0  0.954642  0  0  0.106718  0  1.013661  0  0  0.109775  0  1.011861  0  0  0.103672  0.104379  0  1.015249  0
H  H35  1  0.42554854  0.63513732  0.90364289  1  0  0.094199  0  0.9547  0  0  0.106731  0  1.013694  0  0  0.109789  0  1.011897  0  0  0.103642  0.104392  0  1.015283  0
H  H36  1  0.25305782  0.58040592  0.45384934  1  0  0.088773  0  0.987465  0  0  0.098914  0  1.052613  0  0  0.101171  0  1.052203  0  0  0.095919  0.097337  0  1.052923  0
H  H37  1  0.74694388  0.41959923  0.54615152  1  0  0.088706  0  0.987465  0  0  0.098907  0  1.052586  0  0  0.101165  0  1.052172  0  0  0.095883  0.097329  0  1.052896  0
H  H38  1  0.27735010  0.55892037  0.61968022  1  0  0.094959  0  0.952793  0  0  0.107054  0  1.011711  0  0  0.109412  0  1.011312  0  0  0.100018  0.105152  0  1.012481  0
H  H39  1  0.72265052  0.44107875  0.38032102  1  0  0.094961  0  0.952804  0  0  0.107049  0  1.011727  0  0  0.109403  0  1.011339  0  0  0.100018  0.105146  0  1.012498  0
H  H40  1  0.93230796  0.17438011  0.47720203  1  0  0.444649  0  0.849437  0  0  0.413323  0  0.913119  0  0  0.42414  0  0.897301  0  0  0.297553  0.405667  0  0.924354  0
H  H41  1  0.06769721  0.82562402  0.52279782  1  0  0.444709  0  0.849353  0  0  0.413392  0  0.913018  0  0  0.424208  0  0.897201  0  0  0.297587  0.405734  0  0.92426  0
H  H42  1  0.96307954  0.20378452  0.36641840  1  0  0.436641  0  0.870862  0  0  0.401586  0  0.940578  0  0  0.413497  0  0.923479  0  0  0.290287  0.393144  0  0.952754  0
H  H43  1  0.03692043  0.79621961  0.63358132  1  0  0.436675  0  0.87081  0  0  0.401544  0  0.940646  0  0  0.413455  0  0.923546  0  0  0.290238  0.393102  0  0.952822  0
H  H44  1  0.99384526  0.98041362  0.10530665  1  0  0.437833  0  0.817032  0  0  0.413375  0  0.880324  0  0  0.422705  0  0.869717  0  0  0.317411  0.406653  0  0.887971  0
H  H45  1  0.00616231  0.01958345  0.89469119  1  0  0.437788  0  0.817054  0  0  0.413325  0  0.880356  0  0  0.422654  0  0.869755  0  0  0.317394  0.406601  0  0.888006  0
H  H46  1  0.90196054  0.12555266  0.15257301  1  0  0.453412  0  0.837346  0  0  0.418928  0  0.905504  0  0  0.430225  0  0.8892  0  0  0.301332  0.410978  0  0.916901  0
H  H47  1  0.09804009  0.87444340  0.84742423  1  0  0.453404  0  0.837344  0  0  0.418894  0  0.905546  0  0  0.43019  0  0.889243  0  0  0.301291  0.410944  0  0.916944  0
C  C48  1  0.28837926  0.19318303  0.93759180  1  0  0.134684  0  3.671553  0  0  0.105736  0  3.916957  0  0  0.113064  0  3.935665  0  0  0.053704  0.100887  0  3.904461  0
C  C49  1  0.71161930  0.80681606  0.06240622  1  0  0.134747  0  3.671465  0  0  0.105785  0  3.916885  0  0  0.113114  0  3.935594  0  0  0.053712  0.100936  0  3.904387  0
C  C50  1  0.34750306  0.19986140  0.84469931  1  0  -0.142505  0  3.676747  0  0  -0.162401  0  3.92723  0  0  -0.170408  0  3.948518  0  0  -0.07222  -0.157458  0  3.9129  0
C  C51  1  0.65249758  0.80013770  0.15529987  1  0  -0.142576  0  3.676928  0  0  -0.162495  0  3.927392  0  0  -0.170506  0  3.948684  0  0  -0.072246  -0.157552  0  3.91306  0
C  C52  1  0.41603515  0.08081319  0.79388768  1  0  0.123823  0  3.725684  0  0  0.131887  0  3.958315  0  0  0.13771  0  3.976413  0  0  0.025838  0.128457  0  3.945801  0
C  C53  1  0.58396371  0.91918191  0.20611391  1  0  0.123767  0  3.725773  0  0  0.131926  0  3.958276  0  0  0.137749  0  3.976378  0  0  0.025856  0.128496  0  3.945764  0
C  C54  1  0.42163437  0.95920567  0.84017440  1  0  -0.144157  0  3.681062  0  0  -0.164045  0  3.932024  0  0  -0.171544  0  3.952048  0  0  -0.075913  -0.15872  0  3.91746  0
C  C55  1  0.57836383  0.04079143  0.15982512  1  0  -0.144048  0  3.680849  0  0  -0.163943  0  3.931803  0  0  -0.171436  0  3.951822  0  0  -0.075899  -0.158617  0  3.917238  0
C  C56  1  0.35662649  0.96025194  0.93202428  1  0  0.133685  0  3.702318  0  0  0.100755  0  3.953104  0  0  0.108215  0  3.971638  0  0  0.046405  0.096156  0  3.93967  0
C  C57  1  0.64337138  0.03974615  0.06797387  1  0  0.133651  0  3.702358  0  0  0.100691  0  3.953163  0  0  0.108152  0  3.971698  0  0  0.046382  0.096091  0  3.939731  0
C  C58  1  0.48560531  0.07973627  0.69622134  1  0  0.10753  0  3.730755  0  0  0.117389  0  3.964026  0  0  0.122435  0  3.982082  0  0  0.022146  0.114003  0  3.952241  0
C  C59  1  0.51439632  0.92025681  0.30377936  1  0  0.107504  0  3.730841  0  0  0.117314  0  3.964125  0  0  0.122346  0  3.982204  0  0  0.02207  0.113928  0  3.95234  0
C  C60  1  0.43341689  0.18145022  0.63257484  1  0  -0.148604  0  3.691272  0  0  -0.169098  0  3.944622  0  0  -0.176996  0  3.966457  0  0  -0.074802  -0.163912  0  3.929751  0
C  C61  1  0.56658789  0.81854284  0.36742346  1  0  -0.148496  0  3.691285  0  0  -0.16897  0  3.944616  0  0  -0.176866  0  3.966456  0  0  -0.074783  -0.163779  0  3.929741  0
C  C62  1  0.51030234  0.17627071  0.54294785  1  0  0.130566  0  3.690075  0  0  0.098604  0  3.941502  0  0  0.105393  0  3.961473  0  0  0.048096  0.094368  0  3.927613  0
C  C63  1  0.48970070  0.82372438  0.45705192  1  0  0.130447  0  3.690126  0  0  0.098477  0  3.941553  0  0  0.105264  0  3.961532  0  0  0.048071  0.094241  0  3.927661  0
C  C64  1  0.68502914  0.97723719  0.57551517  1  0  0.132289  0  3.687892  0  0  0.101085  0  3.935139  0  0  0.107839  0  3.953454  0  0  0.048183  0.096581  0  3.922722  0
C  C65  1  0.31497563  0.02275589  0.42448451  1  0  0.132285  0  3.687769  0  0  0.101086  0  3.935012  0  0  0.107837  0  3.953336  0  0  0.048203  0.096582  0  3.922593  0
C  C66  1  0.61266710  0.97482809  0.66506956  1  0  -0.114082  0  3.674011  0  0  -0.135196  0  3.923486  0  0  -0.140856  0  3.941589  0  0  -0.070084  -0.131862  0  3.911627  0
C  C67  1  0.38733660  0.02516197  0.33493035  1  0  -0.114142  0  3.674015  0  0  -0.135246  0  3.923517  0  0  -0.140903  0  3.94162  0  0  -0.070119  -0.131913  0  3.911665  0
C  C68  1  0.11381181  0.28730616  0.22653682  1  0  0.656468  0  3.890731  0  0  0.60395  0  4.184049  0  0  0.638554  0  4.175338  0  0  0.213569  0.580556  0  4.189111  0
C  C69  1  0.88618226  0.71269695  0.77346220  1  0  0.656535  0  3.890609  0  0  0.604028  0  4.18392  0  0  0.638631  0  4.175211  0  0  0.213621  0.580631  0  4.188985  0
C  C70  1  0.06417176  0.43141961  0.25507807  1  0  -0.085349  0  3.693851  0  0  -0.067752  0  3.924621  0  0  -0.073692  0  3.944978  0  0  -0.007123  -0.063735  0  3.910852  0
C  C71  1  0.93582578  0.56858249  0.74491993  1  0  -0.085203  0  3.693667  0  0  -0.067607  0  3.924422  0  0  -0.073545  0  3.944777  0  0  -0.007101  -0.063589  0  3.910656  0
C  C72  1  0.06457691  0.45750345  0.34841085  1  0  -0.073043  0  3.758616  0  0  -0.095188  0  4.007551  0  0  -0.09677  0  4.028551  0  0  -0.085525  -0.094362  0  3.994077  0
C  C73  1  0.93542202  0.54249765  0.65158705  1  0  -0.073096  0  3.758569  0  0  -0.095247  0  4.007547  0  0  -0.09683  0  4.028549  0  0  -0.085538  -0.094422  0  3.994072  0
C  C74  1  0.02502194  0.58820720  0.38063507  1  0  -0.086162  0  3.766898  0  0  -0.110564  0  4.020494  0  0  -0.111544  0  4.04133  0  0  -0.089529  -0.109992  0  4.006994  0
C  C75  1  0.97497664  0.41179489  0.61936214  1  0  -0.086292  0  3.766976  0  0  -0.110744  0  4.020569  0  0  -0.111722  0  4.041403  0  0  -0.089653  -0.110172  0  4.007069  0
C  C76  1  0.98279495  0.69627315  0.31958935  1  0  -0.055517  0  3.764839  0  0  -0.033661  0  4.001776  0  0  -0.040126  0  4.023742  0  0  -0.018913  -0.029798  0  3.987092  0
C  C77  1  0.01719878  0.30373096  0.68040898  1  0  -0.055548  0  3.764769  0  0  -0.033702  0  4.00171  0  0  -0.040163  0  4.023677  0  0  -0.018894  -0.029839  0  3.987029  0
C  C78  1  0.98074363  0.67051874  0.22661010  1  0  -0.105133  0  3.686601  0  0  -0.138158  0  3.941349  0  0  -0.139173  0  3.960895  0  0  -0.078513  -0.136931  0  3.927782  0
C  C79  1  0.01925358  0.32948435  0.77338653  1  0  -0.105051  0  3.686456  0  0  -0.13808  0  3.941206  0  0  -0.139089  0  3.960751  0  0  -0.078518  -0.136857  0  3.927641  0
C  C80  1  0.02101250  0.53910713  0.19228437  1  0  0.06067  0  3.707801  0  0  0.068494  0  3.941613  0  0  0.069609  0  3.964524  0  0  0.008408  0.067784  0  3.925433  0
C  C81  1  0.97898575  0.46089595  0.80771215  1  0  0.060437  0  3.707894  0  0  0.068305  0  3.941683  0  0  0.06942  0  3.964592  0  0  0.008397  0.067596  0  3.925503  0
C  C82  1  0.01071057  0.51833946  0.09385249  1  0  0.043096  0  3.794951  0  0  0.055941  0  4.03218  0  0  0.055666  0  4.056042  0  0  -0.014332  0.056324  0  4.015793  0
C  C83  1  0.98928940  0.48166163  0.90614461  1  0  0.043334  0  3.794805  0  0  0.056117  0  4.032085  0  0  0.055844  0  4.055944  0  0  -0.014337  0.056498  0  4.015697  0
C  C84  1  0.07947335  0.58115816  0.02140813  1  0  -0.118471  0  3.722371  0  0  -0.136171  0  3.970342  0  0  -0.138886  0  3.990178  0  0  -0.097465  -0.134347  0  3.956621  0
C  C85  1  0.92052833  0.41884093  0.97859025  1  0  -0.118569  0  3.722484  0  0  -0.136271  0  3.970451  0  0  -0.138985  0  3.990287  0  0  -0.09747  -0.134448  0  3.956739  0
C  C86  1  0.06974606  0.56228861  0.92895513  1  0  -0.115722  0  3.742269  0  0  -0.13414  0  3.990175  0  0  -0.136746  0  4.01091  0  0  -0.100005  -0.132374  0  3.976071  0
C  C87  1  0.93025425  0.43771148  0.07104266  1  0  -0.115589  0  3.74242  0  0  -0.134023  0  3.990327  0  0  -0.136632  0  4.011066  0  0  -0.099952  -0.132269  0  3.976217  0
C  C88  1  0.93370476  0.83618288  0.35747744  1  0  0.647099  0  3.900962  0  0  0.598752  0  4.188148  0  0  0.632966  0  4.180383  0  0  0.207076  0.575645  0  4.192426  0
C  C89  1  0.06629140  0.16382021  0.64251998  1  0  0.647086  0  3.901004  0  0  0.598752  0  4.18816  0  0  0.632953  0  4.180411  0  0  0.207066  0.575645  0  4.192438  0
C  C90  1  0.64619974  0.29228666  0.26223101  1  0  0.658241  0  3.918677  0  0  0.60369  0  4.222119  0  0  0.637917  0  4.213055  0  0  0.210171  0.580492  0  4.227383  0
C  C91  1  0.35379494  0.70771152  0.73777639  1  0  0.658029  0  3.918911  0  0  0.603487  0  4.222321  0  0  0.637723  0  4.213264  0  0  0.210142  0.580289  0  4.227582  0
C  C92  1  0.54120479  0.42488577  0.23876426  1  0  -0.089372  0  3.703733  0  0  -0.074482  0  3.938936  0  0  -0.079851  0  3.958484  0  0  -0.012723  -0.071072  0  3.92594  0
C  C93  1  0.45879341  0.57511739  0.76123912  1  0  -0.089276  0  3.703614  0  0  -0.074343  0  3.938755  0  0  -0.079746  0  3.958359  0  0  -0.012649  -0.070934  0  3.925761  0
C  C94  1  0.46684273  0.52683258  0.30526828  1  0  0.042629  0  3.747918  0  0  0.052639  0  3.979992  0  0  0.05343  0  4.002748  0  0  -0.001278  0.051959  0  3.964731  0
C  C95  1  0.53315824  0.47316856  0.69473352  1  0  0.042548  0  3.747746  0  0  0.052558  0  3.979827  0  0  0.053342  0  4.002606  0  0  -0.001338  0.051877  0  3.964568  0
C  C96  1  0.37649846  0.64923647  0.27488397  1  0  -0.116814  0  3.697273  0  0  -0.148399  0  3.9499  0  0  -0.149889  0  3.970041  0  0  -0.083966  -0.147241  0  3.936195  0
C  C97  1  0.62350494  0.35076670  0.72511954  1  0  -0.116771  0  3.697362  0  0  -0.148381  0  3.949959  0  0  -0.149839  0  3.97014  0  0  -0.083985  -0.147229  0  3.936249  0
C  C98  1  0.35410358  0.66945425  0.18214730  1  0  -0.041117  0  3.760956  0  0  -0.019847  0  3.998823  0  0  -0.02572  0  4.020857  0  0  -0.015421  -0.016332  0  3.983872  0
C  C99  1  0.64589950  0.33054990  0.81785483  1  0  -0.041144  0  3.76118  0  0  -0.019743  0  3.998913  0  0  -0.025713  0  4.021074  0  0  -0.01538  -0.016211  0  3.983937  0
C  C100  1  0.42062079  0.56424910  0.11845453  1  0  -0.077235  0  3.741776  0  0  -0.101801  0  3.991328  0  0  -0.102558  0  4.011922  0  0  -0.085319  -0.101081  0  3.977165  0
C  C101  1  0.57938192  0.43575304  0.88154772  1  0  -0.077185  0  3.741881  0  0  -0.101776  0  3.991475  0  0  -0.10248  0  4.012075  0  0  -0.085294  -0.101061  0  3.977308  0
C  C102  1  0.51651983  0.44514820  0.14627649  1  0  -0.072829  0  3.755309  0  0  -0.095207  0  4.004982  0  0  -0.096283  0  4.02478  0  0  -0.084712  -0.094333  0  3.991713  0
C  C103  1  0.48348044  0.55485498  0.85372804  1  0  -0.072915  0  3.75527  0  0  -0.095315  0  4.004936  0  0  -0.096383  0  4.024738  0  0  -0.084759  -0.094441  0  3.991669  0
C  C104  1  0.26837737  0.80338742  0.14747258  1  0  0.629056  0  3.91754  0  0  0.57975  0  4.210262  0  0  0.613485  0  4.203124  0  0  0.200687  0.5569  0  4.214409  0
C  C105  1  0.73161979  0.19661574  0.85253091  1  0  0.628999  0  3.917349  0  0  0.57959  0  4.210161  0  0  0.613349  0  4.203033  0  0  0.200599  0.556736  0  4.214307  0
C  C106  1  0.48525354  0.51174133  0.40456644  1  0  0.043099  0  3.807463  0  0  0.055725  0  4.042363  0  0  0.055687  0  4.065671  0  0  -0.012872  0.055616  0  4.026808  0
C  C107  1  0.51474605  0.48826081  0.59543546  1  0  0.043171  0  3.80732  0  0  0.05578  0  4.042287  0  0  0.055748  0  4.065599  0  0  -0.012847  0.05567  0  4.026731  0
C  C108  1  0.36167306  0.54516100  0.47397602  1  0  -0.112739  0  3.748258  0  0  -0.130498  0  3.994926  0  0  -0.13267  0  4.015274  0  0  -0.095674  -0.128807  0  3.980792  0
C  C109  1  0.63832723  0.45484213  0.52602508  1  0  -0.112703  0  3.748144  0  0  -0.130528  0  3.994805  0  0  -0.132702  0  4.015154  0  0  -0.09566  -0.128835  0  3.98067  0
C  C110  1  0.37586391  0.53293033  0.56778078  1  0  -0.103693  0  3.758531  0  0  -0.123524  0  4.008091  0  0  -0.125397  0  4.028276  0  0  -0.093816  -0.122264  0  3.994605  0
C  C111  1  0.62413707  0.46707080  0.43221964  1  0  -0.103698  0  3.758526  0  0  -0.123523  0  4.0081  0  0  -0.125397  0  4.028287  0  0  -0.09383  -0.122262  0  3.994614  0
N  N112  1  0.29111818  0.07527285  0.98048571  1  0  -0.345708  0  3.298106  0  0  -0.260058  0  3.573602  0  0  -0.280555  0  3.588574  0  0  -0.330482  -0.246305  0  3.56304  0
N  N113  1  0.70887831  0.92472926  0.01951378  1  0  -0.345705  0  3.298173  0  0  -0.260039  0  3.573666  0  0  -0.280536  0  3.588639  0  0  -0.330443  -0.246286  0  3.563103  0
N  N114  1  0.63564317  0.07668686  0.51496181  1  0  -0.349014  0  3.297367  0  0  -0.263258  0  3.576091  0  0  -0.283711  0  3.591829  0  0  -0.331615  -0.249326  0  3.565282  0
N  N115  1  0.36436432  0.92330426  0.48504177  1  0  -0.348932  0  3.297256  0  0  -0.2632  0  3.576034  0  0  -0.283656  0  3.59177  0  0  -0.331582  -0.249266  0  3.565222  0
O  O116  1  0.08053661  0.20000995  0.28078867  1  0  -0.627441  0  2.013463  0  0  -0.567036  0  2.241659  0  0  -0.592347  0  2.230306  0  0  -0.30441  -0.549397  0  2.249269  0
O  O117  1  0.91945921  0.79999416  0.71920944  1  0  -0.627552  0  2.013351  0  0  -0.567108  0  2.241567  0  0  -0.592422  0  2.230215  0  0  -0.304468  -0.54947  0  2.249178  0
O  O118  1  0.19414535  0.25457332  0.14684147  1  0  -0.637535  0  2.042141  0  0  -0.567307  0  2.308266  0  0  -0.596398  0  2.295601  0  0  -0.319824  -0.547009  0  2.316034  0
O  O119  1  0.80584839  0.74543077  0.85315549  1  0  -0.637504  0  2.042164  0  0  -0.567305  0  2.308303  0  0  -0.596393  0  2.295638  0  0  -0.319795  -0.547009  0  2.316075  0
O  O120  1  0.96727061  0.85818288  0.43386284  1  0  -0.644847  0  1.988388  0  0  -0.587386  0  2.211581  0  0  -0.611405  0  2.199514  0  0  -0.314045  -0.570384  0  2.219409  0
O  O121  1  0.03272831  0.14181822  0.56613575  1  0  -0.644766  0  1.988592  0  0  -0.587324  0  2.211794  0  0  -0.611338  0  2.199736  0  0  -0.314001  -0.570321  0  2.219613  0
O  O122  1  0.85067217  0.92932651  0.31109288  1  0  -0.642742  0  2.025614  0  0  -0.571106  0  2.294769  0  0  -0.599416  0  2.279632  0  0  -0.32317  -0.551494  0  2.304754  0
O  O123  1  0.14932919  0.07067660  0.68890536  1  0  -0.642797  0  2.025478  0  0  -0.571127  0  2.294577  0  0  -0.599453  0  2.27949  0  0  -0.323192  -0.551514  0  2.304563  0
O  O124  1  0.60257567  0.22933557  0.33363647  1  0  -0.659994  0  2.072034  0  0  -0.587881  0  2.34852  0  0  -0.61712  0  2.335144  0  0  -0.326693  -0.567367  0  2.356982  0
O  O125  1  0.39741971  0.77066359  0.66636943  1  0  -0.659774  0  2.072025  0  0  -0.5877  0  2.348548  0  0  -0.616943  0  2.335174  0  0  -0.326629  -0.567185  0  2.357006  0
O  O126  1  0.76753623  0.25012011  0.21028473  1  0  -0.623938  0  1.980545  0  0  -0.568051  0  2.208352  0  0  -0.592626  0  2.198726  0  0  -0.306538  -0.550643  0  2.214137  0
O  O127  1  0.23246192  0.74987401  0.78971904  1  0  -0.623884  0  1.980647  0  0  -0.567998  0  2.208472  0  0  -0.592569  0  2.19884  0  0  -0.306539  -0.550586  0  2.214247  0
O  O128  1  0.28099931  0.90766363  0.18510196  1  0  -0.650667  0  2.06281  0  0  -0.576069  0  2.333579  0  0  -0.60604  0  2.321266  0  0  -0.324597  -0.554985  0  2.341137  0
O  O129  1  0.71899648  0.09234051  0.81489957  1  0  -0.650648  0  2.062766  0  0  -0.576064  0  2.333644  0  0  -0.606038  0  2.321328  0  0  -0.324564  -0.554982  0  2.3412  0
O  O130  1  0.19544354  0.81024173  0.08266004  1  0  -0.619249  0  1.959443  0  0  -0.567733  0  2.182691  0  0  -0.591021  0  2.172933  0  0  -0.309984  -0.551788  0  2.189122  0
O  O131  1  0.80455497  0.18975743  0.91734485  1  0  -0.619263  0  1.959277  0  0  -0.567682  0  2.182541  0  0  -0.590956  0  2.172756  0  0  -0.309993  -0.551722  0  2.188936  0
O  O132  1  0.98568326  0.07573312  0.10508082  1  0  -0.811288  0  1.898009  0  0  -0.741848  0  2.113609  0  0  -0.763678  0  2.080082  0  0  -0.560239  -0.726408  0  2.136728  0
O  O133  1  0.01431739  0.92426596  0.89491698  1  0  -0.811244  0  1.898003  0  0  -0.741783  0  2.113621  0  0  -0.763612  0  2.080099  0  0  -0.560196  -0.726341  0  2.136749  0
O  O134  1  0.88534739  0.19669298  0.42028785  1  0  -0.853814  0  1.918758  0  0  -0.78097  0  2.146775  0  0  -0.804444  0  2.108551  0  0  -0.576036  -0.764526  0  2.173798  0
O  O135  1  0.11465327  0.80331216  0.57971244  1  0  -0.853832  0  1.918673  0  0  -0.780972  0  2.146787  0  0  -0.804447  0  2.108564  0  0  -0.576014  -0.764528  0  2.173808  0
