# generated using pymatgen
data_CdH7C4Br2NO
_symmetry_space_group_name_H-M   'P 1'
_cell_length_a   4.05794335
_cell_length_b   10.34614568
_cell_length_c   10.83103013
_cell_angle_alpha   63.88176071
_cell_angle_beta   79.16802082
_cell_angle_gamma   78.64471626
_symmetry_Int_Tables_number   1
_chemical_formula_structural   CdH7C4Br2NO
_chemical_formula_sum   'Cd2 H14 C8 Br4 N2 O2'
_cell_volume   397.64798719
_cell_formula_units_Z   2
loop_
 _symmetry_equiv_pos_site_id
 _symmetry_equiv_pos_as_xyz
  1  'x, y, z'
loop_
 _atom_site_type_symbol
 _atom_site_label
 _atom_site_symmetry_multiplicity
 _atom_site_fract_x
 _atom_site_fract_y
 _atom_site_fract_z
 _atom_site_occupancy
 _atom_site_hle17_bader_spin_density
 _atom_site_hle17_ddec_charge
 _atom_site_hle17_ddec_spin_density
 _atom_site_hle17_ddec_sum_bond_order
 _atom_site_hle17_magmom
 _atom_site_hse06_10hf_bader_spin_density
 _atom_site_hse06_10hf_ddec_charge
 _atom_site_hse06_10hf_ddec_spin_density
 _atom_site_hse06_10hf_ddec_sum_bond_order
 _atom_site_hse06_10hf_magmom
 _atom_site_hse06_bader_spin_density
 _atom_site_hse06_ddec_charge
 _atom_site_hse06_ddec_spin_density
 _atom_site_hse06_ddec_sum_bond_order
 _atom_site_hse06_magmom
 _atom_site_pbe_bader_spin_density
 _atom_site_pbe_cm5_charge
 _atom_site_pbe_ddec_charge
 _atom_site_pbe_ddec_spin_density
 _atom_site_pbe_ddec_sum_bond_order
 _atom_site_pbe_magmom
Cd  Cd0  1  0.84970594  0.93608876  0.36499750  1  0  0.905286  0  1.989527  0  0  0.759532  0  2.445377  0  0  0.810983  0  2.402831  0  0  0.490125  0.723008  0  2.475031  0
Cd  Cd1  1  0.15029719  0.06391198  0.63501093  1  0  0.905256  0  1.989666  0  0  0.759505  0  2.445532  0  0  0.810961  0  2.40298  0  0  0.490118  0.722983  0  2.475188  0
H  H2  1  0.07634313  0.43026690  0.41735580  1  0  0.311365  0  0.91053  0  0  0.289671  0  0.978546  0  0  0.298922  0  0.970612  0  0  0.300063  0.282677  0  0.985101  0
H  H3  1  0.92366150  0.56972850  0.58264479  1  0  0.311393  0  0.91063  0  0  0.289741  0  0.978579  0  0  0.298991  0  0.970643  0  0  0.300115  0.282744  0  0.985136  0
H  H4  1  0.97435128  0.41721536  0.19531405  1  0  0.05644  0  0.952848  0  0  0.069134  0  1.023122  0  0  0.069836  0  1.022614  0  0  0.089512  0.068314  0  1.024159  0
H  H5  1  0.59089594  0.58366030  0.80491463  1  0  0.056165  0  0.954282  0  0  0.069114  0  1.024466  0  0  0.06999  0  1.023705  0  0  0.089455  0.068447  0  1.025148  0
H  H6  1  0.02564462  0.58278550  0.80467890  1  0  0.056477  0  0.952894  0  0  0.06918  0  1.023125  0  0  0.069881  0  1.022619  0  0  0.08952  0.068361  0  1.02416  0
H  H7  1  0.40911696  0.41633838  0.19508039  1  0  0.056076  0  0.954266  0  0  0.069091  0  1.024401  0  0  0.069968  0  1.023638  0  0  0.089444  0.068422  0  1.025087  0
H  H8  1  0.95561630  0.65082494  0.00588959  1  0  0.07153  0  0.957009  0  0  0.088029  0  1.019665  0  0  0.089146  0  1.019926  0  0  0.085903  0.086915  0  1.02  0
H  H9  1  0.61219377  0.34967561  0.99347657  1  0  0.070883  0  0.95764  0  0  0.086827  0  1.021104  0  0  0.087969  0  1.021326  0  0  0.085503  0.085981  0  1.02091  0
H  H10  1  0.04437485  0.34917805  0.99410916  1  0  0.071597  0  0.956953  0  0  0.088062  0  1.019662  0  0  0.089188  0  1.019916  0  0  0.085924  0.086948  0  1.019998  0
H  H11  1  0.38781347  0.65032956  0.00651961  1  0  0.070929  0  0.957618  0  0  0.086859  0  1.021083  0  0  0.087999  0  1.021304  0  0  0.085504  0.086014  0  1.02089  0
H  H12  1  0.25048067  0.81583576  0.11133550  1  0  0.109478  0  0.962016  0  0  0.119904  0  1.030329  0  0  0.122659  0  1.029274  0  0  0.087319  0.117434  0  1.032063  0
H  H13  1  0.17955353  0.18423156  0.88837904  1  0  0.109432  0  0.962397  0  0  0.11962  0  1.031227  0  0  0.122352  0  1.030192  0  0  0.087312  0.117375  0  1.032568  0
H  H14  1  0.74950220  0.18416393  0.88866882  1  0  0.109563  0  0.96192  0  0  0.119985  0  1.030237  0  0  0.12274  0  1.029181  0  0  0.087327  0.117516  0  1.031968  0
H  H15  1  0.82044535  0.81576598  0.11162331  1  0  0.109391  0  0.962423  0  0  0.119556  0  1.03128  0  0  0.122288  0  1.030243  0  0  0.087297  0.117318  0  1.032615  0
C  C16  1  0.02793485  0.65088274  0.29306028  1  0  0.604774  0  3.76318  0  0  0.561927  0  4.042985  0  0  0.591451  0  4.043448  0  0  0.242933  0.542185  0  4.04135  0
C  C17  1  0.97203381  0.34911037  0.70695534  1  0  0.604842  0  3.762589  0  0  0.561925  0  4.042514  0  0  0.591447  0  4.042978  0  0  0.242834  0.542181  0  4.040877  0
C  C18  1  0.16033977  0.48181909  0.19455711  1  0  0.054859  0  3.61077  0  0  -0.00355  0  3.874363  0  0  0.000865  0  3.886383  0  0  -0.065174  -0.00664  0  3.866656  0
C  C19  1  0.83966688  0.51818176  0.80543764  1  0  0.05473  0  3.611013  0  0  -0.003623  0  3.874578  0  0  0.000788  0  3.886602  0  0  -0.065174  -0.006712  0  3.866867  0
C  C20  1  0.14577829  0.63471372  0.07275366  1  0  -0.108516  0  3.617547  0  0  -0.145931  0  3.86795  0  0  -0.147268  0  3.881371  0  0  -0.162864  -0.144632  0  3.858529  0
C  C21  1  0.85421928  0.36528931  0.92723861  1  0  -0.108484  0  3.617632  0  0  -0.145897  0  3.868059  0  0  -0.147245  0  3.881488  0  0  -0.162889  -0.144598  0  3.858634  0
C  C22  1  0.05796107  0.74326348  0.13935409  1  0  -0.2684  0  3.665406  0  0  -0.300672  0  3.905856  0  0  -0.307148  0  3.915075  0  0  -0.170108  -0.295747  0  3.89922  0
C  C23  1  0.94203113  0.25673298  0.86064815  1  0  -0.2685  0  3.665372  0  0  -0.300802  0  3.905976  0  0  -0.30728  0  3.915199  0  0  -0.170066  -0.29587  0  3.899334  0
Br  Br24  1  0.39054396  0.04321618  0.17713893  1  0  -0.486055  0  1.113434  0  0  -0.420056  0  1.424828  0  0  -0.44363  0  1.404217  0  0  -0.221985  -0.402929  0  1.441328  0
Br  Br25  1  0.60945301  0.95678461  0.82286306  1  0  -0.486047  0  1.113487  0  0  -0.420064  0  1.424919  0  0  -0.443642  0  1.404307  0  0  -0.221995  -0.402936  0  1.44142  0
Br  Br26  1  0.69706935  0.17723238  0.42952209  1  0  -0.486339  0  1.258794  0  0  -0.421495  0  1.593584  0  0  -0.446414  0  1.571821  0  0  -0.209225  -0.403387  0  1.609635  0
Br  Br27  1  0.30296064  0.82277052  0.57048556  1  0  -0.486356  0  1.258824  0  0  -0.421472  0  1.593558  0  0  -0.446388  0  1.57179  0  0  -0.20922  -0.403384  0  1.609644  0
N  N28  1  0.08559338  0.51066104  0.31786392  1  0  -0.40114  0  3.253751  0  0  -0.336192  0  3.492691  0  0  -0.35701  0  3.499604  0  0  -0.410232  -0.322422  0  3.488805  0
N  N29  1  0.91440955  0.48934742  0.68212675  1  0  -0.401227  0  3.253719  0  0  -0.33626  0  3.492595  0  0  -0.357061  0  3.499482  0  0  -0.410247  -0.322487  0  3.488712  0
O  O30  1  0.95905922  0.69632457  0.38724426  1  0  -0.599686  0  2.076486  0  0  -0.535835  0  2.323899  0  0  -0.562681  0  2.314454  0  0  -0.318527  -0.516546  0  2.329259  0
O  O31  1  0.04094157  0.30366650  0.61275566  1  0  -0.599718  0  2.07607  0  0  -0.535811  0  2.323488  0  0  -0.562658  0  2.314043  0  0  -0.318499  -0.516529  0  2.328865  0
