# generated using pymatgen
data_MgH14C5O8
_symmetry_space_group_name_H-M   'P 1'
_cell_length_a   6.87075945
_cell_length_b   7.30336843
_cell_length_c   21.02038636
_cell_angle_alpha   84.87178986
_cell_angle_beta   80.60071225
_cell_angle_gamma   61.91015925
_symmetry_Int_Tables_number   1
_chemical_formula_structural   MgH14C5O8
_chemical_formula_sum   'Mg4 H56 C20 O32'
_cell_volume   917.96442680
_cell_formula_units_Z   4
loop_
 _symmetry_equiv_pos_site_id
 _symmetry_equiv_pos_as_xyz
  1  'x, y, z'
loop_
 _atom_site_type_symbol
 _atom_site_label
 _atom_site_symmetry_multiplicity
 _atom_site_fract_x
 _atom_site_fract_y
 _atom_site_fract_z
 _atom_site_occupancy
 _atom_site_hle17_bader_spin_density
 _atom_site_hle17_ddec_charge
 _atom_site_hle17_ddec_spin_density
 _atom_site_hle17_ddec_sum_bond_order
 _atom_site_hle17_magmom
 _atom_site_hse06_10hf_bader_spin_density
 _atom_site_hse06_10hf_ddec_charge
 _atom_site_hse06_10hf_ddec_spin_density
 _atom_site_hse06_10hf_ddec_sum_bond_order
 _atom_site_hse06_10hf_magmom
 _atom_site_hse06_bader_spin_density
 _atom_site_hse06_ddec_charge
 _atom_site_hse06_ddec_spin_density
 _atom_site_hse06_ddec_sum_bond_order
 _atom_site_hse06_magmom
 _atom_site_pbe_bader_spin_density
 _atom_site_pbe_cm5_charge
 _atom_site_pbe_ddec_charge
 _atom_site_pbe_ddec_spin_density
 _atom_site_pbe_ddec_sum_bond_order
 _atom_site_pbe_magmom
Mg  Mg0  1  0.73324415  0.60762966  0.68458018  1  0  1.569862  0  1.018848  0  0  1.458577  0  1.276409  0  0  1.480773  0  1.240352  0  0  0.806431  1.442924  0  1.301606  0
Mg  Mg1  1  0.97444232  0.10797648  0.18456533  1  0  1.569756  0  1.018967  0  0  1.458559  0  1.276274  0  0  1.480732  0  1.240246  0  0  0.806468  1.442869  0  1.301556  0
Mg  Mg2  1  0.26675408  0.39237407  0.31542071  1  0  1.569812  0  1.018917  0  0  1.458495  0  1.276519  0  0  1.480692  0  1.240453  0  0  0.806412  1.442832  0  1.301723  0
Mg  Mg3  1  0.02555765  0.89202572  0.81543461  1  0  1.569707  0  1.019061  0  0  1.458528  0  1.276339  0  0  1.480701  0  1.240313  0  0  0.806433  1.442834  0  1.301614  0
H  H4  1  0.46080820  0.67530358  0.90598010  1  0  0.114523  0  0.949518  0  0  0.12856  0  1.013409  0  0  0.131312  0  1.011725  0  0  0.103312  0.126516  0  1.014773  0
H  H5  1  0.95789609  0.17594726  0.40585767  1  0  0.114099  0  0.949995  0  0  0.128044  0  1.013814  0  0  0.130744  0  1.012115  0  0  0.103174  0.126038  0  1.015195  0
H  H6  1  0.53919346  0.32469706  0.09402040  1  0  0.114486  0  0.949532  0  0  0.128532  0  1.013419  0  0  0.131281  0  1.011739  0  0  0.103307  0.126487  0  1.01479  0
H  H7  1  0.04210108  0.82405494  0.59414211  1  0  0.114101  0  0.950045  0  0  0.128042  0  1.013856  0  0  0.130744  0  1.01216  0  0  0.103196  0.126032  0  1.015251  0
H  H8  1  0.70788421  0.43893406  0.90695165  1  0  0.107443  0  0.940555  0  0  0.122244  0  1.002276  0  0  0.124839  0  1.000812  0  0  0.101434  0.12035  0  1.003417  0
H  H9  1  0.94694713  0.93945019  0.40685432  1  0  0.107308  0  0.941221  0  0  0.121806  0  1.003033  0  0  0.124389  0  1.001563  0  0  0.101374  0.119944  0  1.004168  0
H  H10  1  0.29212135  0.56106349  0.09304798  1  0  0.10749  0  0.940455  0  0  0.122259  0  1.002235  0  0  0.124854  0  1.00077  0  0  0.101454  0.12037  0  1.003366  0
H  H11  1  0.05305237  0.06054736  0.59314547  1  0  0.107295  0  0.941274  0  0  0.121807  0  1.003059  0  0  0.12439  0  1.001592  0  0  0.101393  0.119948  0  1.004185  0
H  H12  1  0.66469633  0.86218195  0.93559775  1  0  0.061009  0  0.951863  0  0  0.078319  0  1.014843  0  0  0.079108  0  1.015015  0  0  0.094921  0.077698  0  1.014793  0
H  H13  1  0.53760324  0.36252504  0.43559898  1  0  0.060613  0  0.951748  0  0  0.077832  0  1.015029  0  0  0.078652  0  1.015225  0  0  0.094738  0.077181  0  1.014962  0
H  H14  1  0.33530860  0.13781869  0.06440244  1  0  0.06105  0  0.951865  0  0  0.078348  0  1.01483  0  0  0.079137  0  1.015  0  0  0.094933  0.077723  0  1.014787  0
H  H15  1  0.46239766  0.63747251  0.56440089  1  0  0.060608  0  0.951777  0  0  0.077832  0  1.015055  0  0  0.078651  0  1.015253  0  0  0.094736  0.07718  0  1.014982  0
H  H16  1  0.90390927  0.62290586  0.93869163  1  0  0.059937  0  0.95188  0  0  0.079812  0  1.01189  0  0  0.079928  0  1.012887  0  0  0.095158  0.079618  0  1.011349  0
H  H17  1  0.53501247  0.12307715  0.43860624  1  0  0.059759  0  0.952474  0  0  0.079936  0  1.01213  0  0  0.080083  0  1.013138  0  0  0.095274  0.079741  0  1.011535  0
H  H18  1  0.09609051  0.37709476  0.06130927  1  0  0.059985  0  0.951838  0  0  0.079832  0  1.011854  0  0  0.079946  0  1.012851  0  0  0.095171  0.079646  0  1.011305  0
H  H19  1  0.46498641  0.87691885  0.56139347  1  0  0.059776  0  0.952495  0  0  0.079931  0  1.012186  0  0  0.080077  0  1.013195  0  0  0.095287  0.079736  0  1.011583  0
H  H20  1  0.46284356  0.74865627  0.02901695  1  0  0.109583  0  0.922673  0  0  0.127595  0  0.979209  0  0  0.129854  0  0.978182  0  0  0.104212  0.125932  0  0.980124  0
H  H21  1  0.75973413  0.24875348  0.52902059  1  0  0.109664  0  0.921991  0  0  0.127602  0  0.978849  0  0  0.129837  0  0.977895  0  0  0.104226  0.125957  0  0.979691  0
H  H22  1  0.53715905  0.25134438  0.97098260  1  0  0.109575  0  0.922679  0  0  0.127583  0  0.979226  0  0  0.129854  0  0.978183  0  0  0.104201  0.12592  0  0.980142  0
H  H23  1  0.24026350  0.75124405  0.47097959  1  0  0.109677  0  0.922047  0  0  0.12766  0  0.978841  0  0  0.129895  0  0.977887  0  0  0.104258  0.126012  0  0.97969  0
H  H24  1  0.70262216  0.50844122  0.03229318  1  0  0.109287  0  0.937549  0  0  0.125643  0  0.998769  0  0  0.127798  0  0.997879  0  0  0.102743  0.124051  0  0.999544  0
H  H25  1  0.75731656  0.00848361  0.53219139  1  0  0.108958  0  0.937406  0  0  0.12557  0  0.998427  0  0  0.127714  0  0.997585  0  0  0.10266  0.12397  0  0.999183  0
H  H26  1  0.29738215  0.49155787  0.96770693  1  0  0.109307  0  0.937497  0  0  0.125685  0  0.998696  0  0  0.127828  0  0.997821  0  0  0.102748  0.12409  0  0.999467  0
H  H27  1  0.24268342  0.99151395  0.46780792  1  0  0.108956  0  0.937402  0  0  0.125549  0  0.99845  0  0  0.127694  0  0.997607  0  0  0.102668  0.123956  0  0.999194  0
H  H28  1  0.63434293  0.30773618  0.65480659  1  0  0.432607  0  0.86753  0  0  0.398  0  0.93653  0  0  0.408516  0  0.921083  0  0  0.298401  0.390576  0  0.947445  0
H  H29  1  0.40334838  0.80788444  0.15485626  1  0  0.432212  0  0.868029  0  0  0.397779  0  0.936732  0  0  0.408286  0  0.921314  0  0  0.298306  0.390367  0  0.947618  0
H  H30  1  0.36565521  0.69226604  0.34519224  1  0  0.432561  0  0.867593  0  0  0.397971  0  0.93656  0  0  0.408485  0  0.921116  0  0  0.298412  0.390545  0  0.947478  0
H  H31  1  0.59664755  0.19211930  0.84514399  1  0  0.432175  0  0.86808  0  0  0.397745  0  0.936775  0  0  0.408251  0  0.921359  0  0  0.298287  0.390333  0  0.947662  0
H  H32  1  0.84788178  0.19004043  0.69171017  1  0  0.435781  0  0.86478  0  0  0.403597  0  0.929414  0  0  0.413806  0  0.914451  0  0  0.302992  0.396403  0  0.939961  0
H  H33  1  0.27035597  0.69035339  0.19162203  1  0  0.435991  0  0.864458  0  0  0.40388  0  0.928998  0  0  0.414101  0  0.914016  0  0  0.303192  0.396702  0  0.939518  0
H  H34  1  0.15211882  0.80995868  0.30828922  1  0  0.43577  0  0.864792  0  0  0.403582  0  0.929433  0  0  0.413791  0  0.914469  0  0  0.302995  0.396391  0  0.939972  0
H  H35  1  0.72964011  0.30964725  0.80837814  1  0  0.435979  0  0.864478  0  0  0.403863  0  0.929029  0  0  0.414088  0  0.91404  0  0  0.303182  0.396682  0  0.939554  0
H  H36  1  0.20453194  0.39788898  0.66855007  1  0  0.435612  0  0.864439  0  0  0.400234  0  0.932826  0  0  0.412076  0  0.915574  0  0  0.29303  0.391881  0  0.944966  0
H  H37  1  0.72912941  0.89814909  0.16858521  1  0  0.435976  0  0.863547  0  0  0.400126  0  0.932902  0  0  0.411988  0  0.915606  0  0  0.293051  0.391788  0  0.945044  0
H  H38  1  0.79546869  0.60211017  0.33144781  1  0  0.435607  0  0.864443  0  0  0.400224  0  0.932838  0  0  0.412067  0  0.915585  0  0  0.29305  0.391869  0  0.944984  0
H  H39  1  0.27087320  0.10185157  0.83141434  1  0  0.435965  0  0.863558  0  0  0.400121  0  0.932907  0  0  0.411983  0  0.915611  0  0  0.293074  0.391782  0  0.945049  0
H  H40  1  0.11546107  0.52232029  0.73416787  1  0  0.442686  0  0.836773  0  0  0.411627  0  0.904717  0  0  0.421867  0  0.889378  0  0  0.309197  0.404333  0  0.915659  0
H  H41  1  0.62807075  0.02269125  0.23416424  1  0  0.441956  0  0.837779  0  0  0.410821  0  0.905893  0  0  0.421075  0  0.890534  0  0  0.30903  0.40352  0  0.91685  0
H  H42  1  0.88453876  0.47768037  0.26583151  1  0  0.442662  0  0.836848  0  0  0.4116  0  0.904766  0  0  0.421842  0  0.889425  0  0  0.309202  0.404306  0  0.915706  0
H  H43  1  0.37193123  0.97731250  0.76583586  1  0  0.441933  0  0.837811  0  0  0.410795  0  0.905935  0  0  0.42105  0  0.890575  0  0  0.309021  0.403491  0  0.916893  0
H  H44  1  0.57922865  0.02849447  0.66572518  1  0  0.43149  0  0.867475  0  0  0.3983  0  0.933692  0  0  0.408373  0  0.919063  0  0  0.300487  0.391226  0  0.943954  0
H  H45  1  0.72625681  0.52882713  0.16574709  1  0  0.431355  0  0.867838  0  0  0.398569  0  0.93329  0  0  0.408588  0  0.918732  0  0  0.300501  0.39153  0  0.943518  0
H  H46  1  0.42076853  0.97150773  0.33427460  1  0  0.4315  0  0.867461  0  0  0.398307  0  0.933683  0  0  0.408381  0  0.919052  0  0  0.300492  0.391234  0  0.943942  0
H  H47  1  0.27374423  0.47117195  0.83425333  1  0  0.43129  0  0.867906  0  0  0.398505  0  0.933359  0  0  0.408523  0  0.918803  0  0  0.300493  0.391465  0  0.94359  0
H  H48  1  0.77863593  0.92879795  0.70784145  1  0  0.427465  0  0.879965  0  0  0.39159  0  0.952607  0  0  0.402355  0  0.936654  0  0  0.303856  0.383958  0  0.963937  0
H  H49  1  0.58427125  0.42927743  0.20780075  1  0  0.428343  0  0.87882  0  0  0.392151  0  0.951723  0  0  0.402945  0  0.93572  0  0  0.303971  0.384535  0  0.96302  0
H  H50  1  0.22136246  0.07120268  0.29215937  1  0  0.427454  0  0.879978  0  0  0.391571  0  0.952633  0  0  0.402337  0  0.936678  0  0  0.303854  0.383938  0  0.963961  0
H  H51  1  0.41572949  0.57072322  0.79219919  1  0  0.428357  0  0.878796  0  0  0.392175  0  0.951708  0  0  0.402981  0  0.935686  0  0  0.304  0.384561  0  0.963004  0
H  H52  1  0.78231838  0.63829311  0.54706655  1  0  0.426917  0  0.87655  0  0  0.390528  0  0.950405  0  0  0.401327  0  0.934381  0  0  0.29193  0.382904  0  0.961704  0
H  H53  1  0.03221265  0.13834590  0.04707736  1  0  0.426674  0  0.87677  0  0  0.390223  0  0.950812  0  0  0.40101  0  0.934801  0  0  0.291957  0.382604  0  0.962109  0
H  H54  1  0.21768051  0.36170289  0.45293316  1  0  0.426949  0  0.876503  0  0  0.390558  0  0.950361  0  0  0.401357  0  0.934337  0  0  0.291943  0.382928  0  0.961671  0
H  H55  1  0.96778700  0.86166250  0.95292273  1  0  0.426677  0  0.876766  0  0  0.390228  0  0.9508  0  0  0.401014  0  0.934789  0  0  0.291976  0.382608  0  0.9621  0
H  H56  1  0.01212881  0.50971804  0.57286440  1  0  0.429461  0  0.874494  0  0  0.395921  0  0.941378  0  0  0.407552  0  0.92436  0  0  0.291943  0.387733  0  0.953349  0
H  H57  1  0.90501818  0.01005314  0.07286557  1  0  0.429791  0  0.874033  0  0  0.396284  0  0.940896  0  0  0.407903  0  0.92388  0  0  0.292396  0.388102  0  0.952865  0
H  H58  1  0.98787051  0.49027793  0.42713634  1  0  0.429472  0  0.874474  0  0  0.395926  0  0.941373  0  0  0.407558  0  0.924353  0  0  0.291937  0.38774  0  0.953343  0
H  H59  1  0.09497727  0.98995059  0.92713516  1  0  0.429831  0  0.873996  0  0  0.39631  0  0.940886  0  0  0.407933  0  0.923865  0  0  0.292409  0.388129  0  0.952853  0
C  C60  1  0.71827392  0.64759839  0.83050628  1  0  0.771826  0  3.753189  0  0  0.717095  0  4.052953  0  0  0.750956  0  4.043241  0  0  0.240149  0.694085  0  4.058935  0
C  C61  1  0.80356852  0.14797175  0.33044226  1  0  0.77024  0  3.755625  0  0  0.716323  0  4.054011  0  0  0.750116  0  4.044372  0  0  0.239658  0.693328  0  4.059998  0
C  C62  1  0.28172389  0.35240072  0.16949294  1  0  0.771756  0  3.753164  0  0  0.71707  0  4.052884  0  0  0.750918  0  4.04318  0  0  0.240126  0.694065  0  4.058863  0
C  C63  1  0.19643333  0.85202582  0.66955665  1  0  0.770233  0  3.75566  0  0  0.716339  0  4.054028  0  0  0.750132  0  4.044391  0  0  0.239652  0.693346  0  4.060009  0
C  C64  1  0.64385830  0.60764408  0.89991384  1  0  -0.288852  0  3.670594  0  0  -0.328905  0  3.921241  0  0  -0.335287  0  3.929246  0  0  -0.17013  -0.32438  0  3.915572  0
C  C65  1  0.84877162  0.10811759  0.39983447  1  0  -0.28937  0  3.673453  0  0  -0.328519  0  3.922209  0  0  -0.334845  0  3.930346  0  0  -0.170579  -0.324093  0  3.916525  0
C  C66  1  0.35614525  0.39235192  0.10008564  1  0  -0.288808  0  3.67058  0  0  -0.328877  0  3.921209  0  0  -0.335261  0  3.929218  0  0  -0.170155  -0.32436  0  3.915547  0
C  C67  1  0.15122789  0.89187996  0.60016532  1  0  -0.289383  0  3.673573  0  0  -0.328519  0  3.922281  0  0  -0.334833  0  3.930391  0  0  -0.170653  -0.324096  0  3.916603  0
C  C68  1  0.72116147  0.69675638  0.94707375  1  0  -0.057982  0  3.745527  0  0  -0.099379  0  4.000939  0  0  -0.098389  0  4.015139  0  0  -0.171185  -0.099826  0  3.991034  0
C  C69  1  0.63528121  0.19705172  0.44703099  1  0  -0.056621  0  3.744477  0  0  -0.098436  0  3.999906  0  0  -0.097539  0  4.014253  0  0  -0.170739  -0.098818  0  3.989913  0
C  C70  1  0.27884192  0.30324272  0.05292581  1  0  -0.058124  0  3.745658  0  0  -0.099453  0  4.001002  0  0  -0.098458  0  4.015193  0  0  -0.171208  -0.099906  0  3.991107  0
C  C71  1  0.36471738  0.80294584  0.55296824  1  0  -0.056614  0  3.74457  0  0  -0.098431  0  4.000014  0  0  -0.097533  0  4.014363  0  0  -0.170717  -0.098811  0  3.990015  0
C  C72  1  0.64599483  0.67255635  0.01794481  1  0  -0.283199  0  3.681837  0  0  -0.325633  0  3.942153  0  0  -0.331842  0  3.951144  0  0  -0.168049  -0.321317  0  3.935841  0
C  C73  1  0.66390017  0.17264619  0.51791097  1  0  -0.283312  0  3.679584  0  0  -0.325998  0  3.940358  0  0  -0.33225  0  3.949475  0  0  -0.168162  -0.32164  0  3.933936  0
C  C74  1  0.35400808  0.32744274  0.98205522  1  0  -0.283246  0  3.681864  0  0  -0.325714  0  3.942179  0  0  -0.331927  0  3.951173  0  0  -0.168084  -0.321392  0  3.935861  0
C  C75  1  0.33609794  0.82735136  0.48208874  1  0  -0.283285  0  3.679707  0  0  -0.325999  0  3.940513  0  0  -0.33225  0  3.94963  0  0  -0.168192  -0.321645  0  3.934082  0
C  C76  1  0.73106297  0.76586531  0.06154423  1  0  0.722454  0  3.802601  0  0  0.662186  0  4.12013  0  0  0.694822  0  4.113766  0  0  0.224056  0.640129  0  4.123614  0
C  C77  1  0.44183639  0.26574970  0.56151927  1  0  0.723551  0  3.801363  0  0  0.663758  0  4.11826  0  0  0.696478  0  4.111802  0  0  0.224852  0.641588  0  4.121835  0
C  C78  1  0.26893931  0.23413687  0.93845635  1  0  0.722592  0  3.802535  0  0  0.662334  0  4.120056  0  0  0.694973  0  4.113689  0  0  0.224147  0.640276  0  4.123537  0
C  C79  1  0.55816249  0.73424630  0.43848044  1  0  0.723389  0  3.801572  0  0  0.663594  0  4.118501  0  0  0.696314  0  4.112043  0  0  0.224764  0.641427  0  4.122076  0
O  O80  1  0.67535367  0.56474043  0.78609532  1  0  -0.775617  0  2.074191  0  0  -0.696273  0  2.298946  0  0  -0.723024  0  2.286855  0  0  -0.345734  -0.677748  0  2.306909  0
O  O81  1  0.97375383  0.06514837  0.28603341  1  0  -0.773882  0  2.075771  0  0  -0.695598  0  2.300894  0  0  -0.722119  0  2.288647  0  0  -0.345299  -0.677074  0  2.308858  0
O  O82  1  0.32464402  0.43526182  0.21390247  1  0  -0.77555  0  2.074259  0  0  -0.696259  0  2.299045  0  0  -0.722959  0  2.286919  0  0  -0.345696  -0.677735  0  2.307005  0
O  O83  1  0.02624551  0.93485228  0.71396646  1  0  -0.773896  0  2.075788  0  0  -0.695638  0  2.300916  0  0  -0.72216  0  2.28867  0  0  -0.345296  -0.677115  0  2.308882  0
O  O84  1  0.81659370  0.75685107  0.81785874  1  0  -0.696894  0  2.018896  0  0  -0.629035  0  2.258776  0  0  -0.653272  0  2.24858  0  0  -0.333274  -0.612375  0  2.265489  0
O  O85  1  0.60848176  0.25713754  0.31781018  1  0  -0.695938  0  2.017679  0  0  -0.628552  0  2.257441  0  0  -0.652798  0  2.24733  0  0  -0.332971  -0.611867  0  2.264063  0
O  O86  1  0.18340345  0.24314645  0.18214191  1  0  -0.696875  0  2.01876  0  0  -0.628999  0  2.258582  0  0  -0.65324  0  2.248398  0  0  -0.333261  -0.612344  0  2.265296  0
O  O87  1  0.39151946  0.74286312  0.68218929  1  0  -0.69595  0  2.017734  0  0  -0.628584  0  2.25748  0  0  -0.652834  0  2.247377  0  0  -0.332975  -0.611913  0  2.264123  0
O  O88  1  0.85128115  0.84900924  0.03668741  1  0  -0.625616  0  1.979629  0  0  -0.550594  0  2.19282  0  0  -0.577326  0  2.184308  0  0  -0.298496  -0.532078  0  2.198245  0
O  O89  1  0.26323981  0.34867469  0.53668230  1  0  -0.625891  0  1.979815  0  0  -0.551062  0  2.192857  0  0  -0.57788  0  2.184314  0  0  -0.298548  -0.532517  0  2.198313  0
O  O90  1  0.14871738  0.15099292  0.96331396  1  0  -0.625695  0  1.979502  0  0  -0.550688  0  2.192718  0  0  -0.577424  0  2.184201  0  0  -0.298529  -0.532172  0  2.198139  0
O  O91  1  0.73676015  0.65131819  0.46331789  1  0  -0.625902  0  1.979754  0  0  -0.551074  0  2.192814  0  0  -0.57789  0  2.184266  0  0  -0.298557  -0.532529  0  2.19827  0
O  O92  1  0.67522130  0.75725684  0.12297517  1  0  -0.680625  0  2.014943  0  0  -0.602727  0  2.22985  0  0  -0.630073  0  2.218539  0  0  -0.313935  -0.583772  0  2.237326  0
O  O93  1  0.44492943  0.25718978  0.62295093  1  0  -0.681589  0  2.015209  0  0  -0.603769  0  2.229775  0  0  -0.631138  0  2.218417  0  0  -0.314601  -0.584705  0  2.237175  0
O  O94  1  0.32477693  0.24274689  0.87702572  1  0  -0.680614  0  2.015022  0  0  -0.602713  0  2.22992  0  0  -0.630058  0  2.218607  0  0  -0.313949  -0.583762  0  2.237399  0
O  O95  1  0.55507021  0.74280930  0.37704942  1  0  -0.681408  0  2.015396  0  0  -0.60359  0  2.229956  0  0  -0.630958  0  2.2186  0  0  -0.314517  -0.584529  0  2.237361  0
O  O96  1  0.74481439  0.32700936  0.67459065  1  0  -0.923084  0  1.856428  0  0  -0.868661  0  2.052148  0  0  -0.885078  0  2.018155  0  0  -0.625385  -0.857161  0  2.075908  0
O  O97  1  0.25368623  0.82727505  0.17455084  1  0  -0.92308  0  1.857495  0  0  -0.868853  0  2.052878  0  0  -0.885294  0  2.018889  0  0  -0.625436  -0.857331  0  2.07661  0
O  O98  1  0.25518808  0.67298976  0.32540835  1  0  -0.923043  0  1.856527  0  0  -0.86861  0  2.052244  0  0  -0.885035  0  2.018266  0  0  -0.625396  -0.857114  0  2.076003  0
O  O99  1  0.74631033  0.17272561  0.82544886  1  0  -0.923017  0  1.857531  0  0  -0.868809  0  2.05293  0  0  -0.885248  0  2.018935  0  0  -0.625404  -0.857285  0  2.076665  0
O  O100  1  0.06624630  0.48723095  0.69788156  1  0  -0.910245  0  1.821582  0  0  -0.851515  0  2.013434  0  0  -0.868682  0  1.979248  0  0  -0.615196  -0.839477  0  2.037394  0
O  O101  1  0.74869070  0.98755435  0.19788978  1  0  -0.909784  0  1.821983  0  0  -0.850902  0  2.014042  0  0  -0.868096  0  1.979883  0  0  -0.615186  -0.838856  0  2.037929  0
O  O102  1  0.93375510  0.51277129  0.30211695  1  0  -0.910207  0  1.82166  0  0  -0.851466  0  2.013486  0  0  -0.868636  0  1.9793  0  0  -0.615219  -0.839424  0  2.037445  0
O  O103  1  0.25131192  0.01244631  0.80210977  1  0  -0.909753  0  1.822045  0  0  -0.850855  0  2.014051  0  0  -0.86805  0  1.979891  0  0  -0.615201  -0.838806  0  2.037938  0
O  O104  1  0.64754051  0.91793126  0.69816113  1  0  -0.911338  0  1.908229  0  0  -0.853859  0  2.100926  0  0  -0.871609  0  2.06773  0  0  -0.604542  -0.841355  0  2.124086  0
O  O105  1  0.73603060  0.41816477  0.19812993  1  0  -0.912281  0  1.908242  0  0  -0.854748  0  2.101824  0  0  -0.872397  0  2.068602  0  0  -0.604716  -0.842345  0  2.125004  0
O  O106  1  0.35245884  0.08206939  0.30183873  1  0  -0.911362  0  1.908233  0  0  -0.853876  0  2.100943  0  0  -0.871631  0  2.067751  0  0  -0.604557  -0.841376  0  2.124097  0
O  O107  1  0.26396980  0.58183740  0.80187104  1  0  -0.91224  0  1.908283  0  0  -0.85474  0  2.101795  0  0  -0.872388  0  2.068566  0  0  -0.604744  -0.842334  0  2.124975  0
O  O108  1  0.85425050  0.61639253  0.58615958  1  0  -0.934306  0  1.869068  0  0  -0.88298  0  2.070846  0  0  -0.900379  0  2.035287  0  0  -0.618185  -0.87065  0  2.095595  0
O  O109  1  0.94292365  0.11667352  0.08615148  1  0  -0.934663  0  1.86874  0  0  -0.883043  0  2.069878  0  0  -0.900558  0  2.034617  0  0  -0.618714  -0.870625  0  2.094492  0
O  O110  1  0.14574932  0.38360813  0.41383981  1  0  -0.93433  0  1.869025  0  0  -0.882997  0  2.070813  0  0  -0.900396  0  2.03525  0  0  -0.618189  -0.87066  0  2.095563  0
O  O111  1  0.05707974  0.88332558  0.91384807  1  0  -0.93469  0  1.868747  0  0  -0.883064  0  2.069895  0  0  -0.900579  0  2.034629  0  0  -0.618736  -0.87065  0  2.094504  0
