# generated using pymatgen
data_AlH13C18N2O7
_symmetry_space_group_name_H-M   'P 1'
_cell_length_a   6.75502215
_cell_length_b   23.65360149
_cell_length_c   27.78425237
_cell_angle_alpha   94.53176901
_cell_angle_beta   90.00118835
_cell_angle_gamma   89.99911170
_symmetry_Int_Tables_number   1
_chemical_formula_structural   AlH13C18N2O7
_chemical_formula_sum   'Al4 H52 C72 N8 O28'
_cell_volume   4425.50562127
_cell_formula_units_Z   4
loop_
 _symmetry_equiv_pos_site_id
 _symmetry_equiv_pos_as_xyz
  1  'x, y, z'
loop_
 _atom_site_type_symbol
 _atom_site_label
 _atom_site_symmetry_multiplicity
 _atom_site_fract_x
 _atom_site_fract_y
 _atom_site_fract_z
 _atom_site_occupancy
 _atom_site_pbe_bader_charge
 _atom_site_pbe_bader_spin_density
 _atom_site_pbe_cm5_charge
 _atom_site_pbe_ddec_charge
 _atom_site_pbe_ddec_spin_density
 _atom_site_pbe_ddec_sum_bond_order
 _atom_site_pbe_magmom
Al  Al0  1  0.75312394  0.24810280  0.74801855  1  2.503468  0  0.40034  1.642566  0  2.567947  0
Al  Al1  1  0.25798974  0.75111314  0.25114234  1  2.499138  0  0.399184  1.642561  0  2.572199  0
Al  Al2  1  0.25313157  0.25189260  0.75198572  1  2.503534  0  0.400476  1.642483  0  2.567779  0
Al  Al3  1  0.75799695  0.74888083  0.24886403  1  2.49869  0  0.39906  1.642164  0  2.572735  0
H  H4  1  0.29700832  0.60776779  0.44570154  1  0.103701  0  0.105991  0.104829  0  1.017283  0
H  H5  1  0.71825638  0.39444052  0.55610562  1  0.090854  0  0.106962  0.105517  0  1.01594  0
H  H6  1  0.79696331  0.89225288  0.05432088  1  0.104602  0  0.105982  0.104747  0  1.017834  0
H  H7  1  0.21822585  0.10556280  0.94389125  1  0.088992  0  0.106975  0.105564  0  1.015914  0
H  H8  1  0.67634497  0.57118397  0.06347784  1  0.117627  0  0.106178  0.115775  0  1.055485  0
H  H9  1  0.30066963  0.43422439  0.93936358  1  0.134256  0  0.107988  0.118966  0  1.041557  0
H  H10  1  0.17634544  0.92880706  0.43651117  1  0.117702  0  0.106139  0.115586  0  1.055885  0
H  H11  1  0.80064848  0.06578484  0.56062358  1  0.134612  0  0.107988  0.1189  0  1.041506  0
H  H12  1  0.70008388  0.64242239  0.13237206  1  0.138898  0  0.10992  0.115169  0  1.051453  0
H  H13  1  0.29946044  0.36599854  0.86808495  1  0.150633  0  0.108119  0.111  0  1.071106  0
H  H14  1  0.20013413  0.85757552  0.36761489  1  0.139443  0  0.109959  0.115305  0  1.051391  0
H  H15  1  0.79946537  0.13400636  0.63191015  1  0.150617  0  0.107971  0.110773  0  1.071117  0
H  H16  1  0.41286747  0.54350417  0.16399038  1  0.056983  0  0.101713  0.103736  0  0.977244  0
H  H17  1  0.30591036  0.59703334  0.20593919  1  0.046998  0  0.100678  0.099631  0  1.002736  0
H  H18  1  0.56381846  0.60005634  0.19003526  1  0.042641  0  0.110001  0.113449  0  0.997236  0
H  H19  1  0.55394772  0.30946440  0.92756540  1  0.027667  0  0.098031  0.098702  0  0.981028  0
H  H20  1  0.70259611  0.27315141  0.88083783  1  0.045157  0  0.099562  0.100862  0  1.010633  0
H  H21  1  0.44623789  0.28629127  0.87010068  1  0.077399  0  0.108893  0.116855  0  1.012732  0
H  H22  1  0.91286061  0.95649414  0.33598857  1  0.057161  0  0.101769  0.103764  0  0.977338  0
H  H23  1  0.80591613  0.90295246  0.29405442  1  0.04687  0  0.100686  0.099598  0  1.002755  0
H  H24  1  0.06383050  0.89994010  0.30995645  1  0.041638  0  0.110036  0.113602  0  0.997128  0
H  H25  1  0.05394344  0.19053142  0.57242925  1  0.027473  0  0.098038  0.098665  0  0.980769  0
H  H26  1  0.20258644  0.22684657  0.61916006  1  0.045403  0  0.099427  0.100668  0  1.010429  0
H  H27  1  0.94621175  0.21370589  0.62989549  1  0.077335  0  0.108833  0.116874  0  1.012795  0
H  H28  1  0.42116979  0.63851277  0.02185247  1  0.067412  0  0.099617  0.10132  0  0.978797  0
H  H29  1  0.27443798  0.58979163  0.98360691  1  0.059628  0  0.093502  0.089717  0  1.016584  0
H  H30  1  0.53097090  0.57505702  0.99385107  1  0.072377  0  0.106236  0.112634  0  1.004037  0
H  H31  1  0.56157939  0.48445413  0.87025889  1  0.040062  0  0.099045  0.101513  0  0.982244  0
H  H32  1  0.69729093  0.52924770  0.91425533  1  0.063664  0  0.093798  0.08938  0  1.005923  0
H  H33  1  0.44016749  0.51432631  0.92377912  1  0.040805  0  0.105083  0.109857  0  1.006596  0
H  H34  1  0.92120814  0.86149799  0.47814240  1  0.067727  0  0.099555  0.10123  0  0.978988  0
H  H35  1  0.77447466  0.91021086  0.51639091  1  0.059879  0  0.093499  0.089689  0  1.016508  0
H  H36  1  0.03099145  0.92495561  0.50614846  1  0.072516  0  0.106199  0.112614  0  1.004144  0
H  H37  1  0.06158485  0.01554612  0.62973831  1  0.040216  0  0.099039  0.101443  0  0.982181  0
H  H38  1  0.19729208  0.97075473  0.58573815  1  0.063738  0  0.093779  0.089361  0  1.005915  0
H  H39  1  0.94014599  0.98566972  0.57622095  1  0.040791  0  0.10502  0.109777  0  1.006654  0
H  H40  1  0.29984608  0.67158273  0.37777314  1  0.103931  0  0.112728  0.120072  0  0.98567  0
H  H41  1  0.71363180  0.33150947  0.62464225  1  0.104969  0  0.111551  0.117741  0  0.987202  0
H  H42  1  0.79982354  0.82843025  0.12223955  1  0.104059  0  0.112807  0.120102  0  0.985873  0
H  H43  1  0.21360841  0.16848558  0.87534739  1  0.104674  0  0.111646  0.117772  0  0.987112  0
H  H44  1  0.71028428  0.55150052  0.40412772  1  0.098194  0  0.10639  0.104898  0  1.017123  0
H  H45  1  0.30191012  0.45222922  0.59882960  1  0.103499  0  0.106793  0.105815  0  1.01665  0
H  H46  1  0.21020013  0.94849895  0.09586289  1  0.097827  0  0.106287  0.104823  0  1.016933  0
H  H47  1  0.80188763  0.04777413  0.90118970  1  0.102943  0  0.106756  0.105662  0  1.01695  0
H  H48  1  0.70951881  0.61869771  0.33866120  1  0.108272  0  0.111046  0.117299  0  0.989504  0
H  H49  1  0.30103830  0.38599170  0.66505451  1  0.09943  0  0.112124  0.119392  0  0.986485  0
H  H50  1  0.20942009  0.88128905  0.16132905  1  0.107871  0  0.110959  0.11714  0  0.989235  0
H  H51  1  0.80105701  0.11399873  0.83495325  1  0.099005  0  0.112181  0.119589  0  0.986393  0
H  H52  1  0.51615431  0.31959035  0.77526677  1  0.622871  0  0.347837  0.427427  0  0.863121  0
H  H53  1  0.50104843  0.67919357  0.22961583  1  0.595389  0  0.33808  0.407983  0  0.904678  0
H  H54  1  0.01613088  0.18040109  0.72473348  1  0.622708  0  0.347896  0.427461  0  0.86311  0
H  H55  1  0.00104357  0.82080601  0.27037485  1  0.595524  0  0.33818  0.40814  0  0.904489  0
C  C56  1  0.50328904  0.18215480  0.81053852  1  1.567172  0  0.263052  0.626106  0  4.126291  0
C  C57  1  0.50734943  0.81371980  0.18625867  1  1.571433  0  0.265192  0.634697  0  4.110842  0
C  C58  1  0.00328046  0.31784358  0.68945841  1  1.567983  0  0.263308  0.626657  0  4.125903  0
C  C59  1  0.00737466  0.68628195  0.31374649  1  1.570907  0  0.265216  0.634852  0  4.110568  0
C  C60  1  0.49624720  0.18370588  0.67914857  1  1.569187  0  0.269427  0.656806  0  4.07551  0
C  C61  1  0.51282331  0.82088434  0.31760153  1  1.567815  0  0.269564  0.658526  0  4.075274  0
C  C62  1  0.99626578  0.31628972  0.82085145  1  1.569331  0  0.269448  0.656855  0  4.075007  0
C  C63  1  0.01278897  0.67910674  0.18240727  1  1.5679  0  0.269594  0.658316  0  4.075498  0
C  C64  1  0.82099607  0.58487858  0.07688610  1  -0.039983  0  -0.089554  -0.127788  0  3.961034  0
C  C65  1  0.16098951  0.42081622  0.92278356  1  -0.046564  0  -0.089629  -0.129672  0  3.962587  0
C  C66  1  0.32100205  0.91512143  0.42310648  1  -0.04014  0  -0.089492  -0.127581  0  3.961137  0
C  C67  1  0.66096608  0.07919184  0.57721159  1  -0.045641  0  -0.089589  -0.12969  0  3.962845  0
C  C68  1  0.83405222  0.62311938  0.11704298  1  -0.035132  0  -0.088542  -0.090177  0  4.019444  0
C  C69  1  0.16000892  0.38056550  0.88387684  1  0.000875  0  -0.088161  -0.086365  0  4.015498  0
C  C70  1  0.33407757  0.87687476  0.38295076  1  -0.035891  0  -0.088651  -0.090456  0  4.019512  0
C  C71  1  0.65999849  0.11943412  0.61611831  1  0.000258  0  -0.08796  -0.085951  0  4.015522  0
C  C72  1  0.01614278  0.63776671  0.13896913  1  -0.028588  0  -0.023021  -0.147068  0  3.972914  0
C  C73  1  0.98333092  0.35816944  0.86379532  1  -0.067085  0  -0.024655  -0.149892  0  3.974527  0
C  C74  1  0.51617711  0.86223319  0.36103030  1  -0.034672  0  -0.022885  -0.146779  0  3.973559  0
C  C75  1  0.48332870  0.14182751  0.63620500  1  -0.06715  0  -0.02471  -0.150147  0  3.97484  0
C  C76  1  0.19110270  0.61423267  0.11771723  1  0.555067  0  0.089003  0.148656  0  4.014867  0
C  C77  1  0.80167378  0.37867421  0.88375423  1  0.516651  0  0.088484  0.149377  0  4.017652  0
C  C78  1  0.69111093  0.88577682  0.38228014  1  0.561972  0  0.088843  0.148109  0  4.015264  0
C  C79  1  0.30167541  0.12132120  0.61624342  1  0.516241  0  0.088461  0.149558  0  4.017964  0
C  C80  1  0.17968506  0.58024870  0.07387099  1  0.500176  0  0.083124  0.102985  0  3.997216  0
C  C81  1  0.80235802  0.42410929  0.91965307  1  0.546741  0  0.081042  0.100266  0  3.997983  0
C  C82  1  0.67968334  0.91976143  0.42612813  1  0.499944  0  0.083307  0.103008  0  3.996961  0
C  C83  1  0.30233388  0.07589043  0.58034096  1  0.547165  0  0.080994  0.100101  0  3.998609  0
C  C84  1  0.99412761  0.56312200  0.05401015  1  0.143774  0  -0.004002  0.054688  0  4.127622  0
C  C85  1  0.98167235  0.44462341  0.94065524  1  0.1022  0  -0.002567  0.058297  0  4.128888  0
C  C86  1  0.49412252  0.93688212  0.44598507  1  0.143725  0  -0.004163  0.054284  0  4.1282  0
C  C87  1  0.48163717  0.05538339  0.55934182  1  0.101737  0  -0.002672  0.058333  0  4.129189  0
C  C88  1  0.98590490  0.52360430  0.01309329  1  -0.02013  0  -0.03453  -0.079399  0  4.102271  0
C  C89  1  0.98050333  0.48757647  0.97906965  1  -0.347456  0  -0.035568  -0.080106  0  4.099045  0
C  C90  1  0.48589081  0.97640170  0.48689900  1  -0.02077  0  -0.03457  -0.079541  0  4.102055  0
C  C91  1  0.48049383  0.01243553  0.52092415  1  -0.346735  0  -0.035447  -0.079956  0  4.098648  0
C  C92  1  0.17108952  0.64551281  0.38437277  1  -0.024434  0  -0.078978  -0.089358  0  3.966857  0
C  C93  1  0.84233063  0.35766475  0.61815052  1  -0.002289  0  -0.078622  -0.08511  0  3.95968  0
C  C94  1  0.67110204  0.85449186  0.11563534  1  -0.023591  0  -0.078988  -0.089389  0  3.967224  0
C  C95  1  0.34231511  0.14233109  0.88184912  1  -0.001955  0  -0.078619  -0.085072  0  3.95959  0
C  C96  1  0.16976859  0.60989630  0.42182419  1  -0.029933  0  -0.080553  -0.106047  0  3.96298  0
C  C97  1  0.84442876  0.39283468  0.58039067  1  0.006227  0  -0.080394  -0.107108  0  3.959754  0
C  C98  1  0.66976568  0.89010555  0.07818536  1  -0.030619  0  -0.080556  -0.105716  0  3.96355  0
C  C99  1  0.34440498  0.10716632  0.91961007  1  0.007774  0  -0.080451  -0.107199  0  3.959848  0
C  C100  1  0.00377628  0.57552065  0.42896451  1  -0.02526  0  -0.00425  0.01649  0  3.992434  0
C  C101  1  0.00973154  0.42757150  0.57355716  1  -0.040538  0  -0.003055  0.019104  0  3.987  0
C  C102  1  0.50377389  0.92447774  0.07104063  1  -0.025033  0  -0.004285  0.016299  0  3.992344  0
C  C103  1  0.50969507  0.07242732  0.92645388  1  -0.041078  0  -0.003261  0.018851  0  3.986635  0
C  C104  1  0.83771148  0.57846844  0.39863024  1  -0.036191  0  -0.08151  -0.107907  0  3.966273  0
C  C105  1  0.17478639  0.42513578  0.60426433  1  -0.054499  0  -0.081386  -0.10894  0  3.964625  0
C  C106  1  0.33767957  0.92152790  0.10136459  1  -0.036133  0  -0.081238  -0.107692  0  3.965794  0
C  C107  1  0.67476348  0.07485968  0.89575039  1  -0.053851  0  -0.081054  -0.108408  0  3.963852  0
C  C108  1  0.83769859  0.61534725  0.36209446  1  -0.04437  0  -0.078686  -0.087453  0  3.967873  0
C  C109  1  0.17404873  0.38872038  0.64114827  1  0.011984  0  -0.078315  -0.086158  0  3.966093  0
C  C110  1  0.33767914  0.88464454  0.13790146  1  -0.043983  0  -0.078781  -0.087454  0  3.967469  0
C  C111  1  0.67405185  0.11127350  0.85885851  1  0.013172  0  -0.078443  -0.086538  0  3.96555  0
C  C112  1  0.00507391  0.64853494  0.35437943  1  -0.028159  0  -0.0082  -0.030616  0  3.963025  0
C  C113  1  0.00692392  0.35541797  0.64874289  1  -0.095833  0  -0.010023  -0.034788  0  3.965401  0
C  C114  1  0.50508172  0.85146574  0.14562319  1  -0.029389  0  -0.008239  -0.030643  0  3.9629  0
C  C115  1  0.50692165  0.14458010  0.85125550  1  -0.095715  0  -0.010102  -0.034754  0  3.96508  0
C  C116  1  0.00842169  0.46678296  0.53502365  1  0.939871  0  0.242334  0.249958  0  3.973177  0
C  C117  1  0.00488331  0.53639447  0.46756007  1  0.920827  0  0.241827  0.250494  0  3.971248  0
C  C118  1  0.50842165  0.03322467  0.96498666  1  0.939591  0  0.24214  0.249994  0  3.973741  0
C  C119  1  0.50485781  0.96360746  0.03244688  1  0.920716  0  0.241838  0.25037  0  3.971877  0
C  C120  1  0.41475873  0.58876913  0.17676853  1  0.401477  0  -0.133  -0.173607  0  3.890587  0
C  C121  1  0.58000388  0.30297903  0.88839379  1  0.401594  0  -0.137718  -0.17301  0  3.872333  0
C  C122  1  0.91476801  0.91122894  0.32322595  1  0.402627  0  -0.133155  -0.173934  0  3.890671  0
C  C123  1  0.07998777  0.19701491  0.61160460  1  0.401303  0  -0.137496  -0.172743  0  3.871872  0
C  C124  1  0.39572128  0.59353767  0.01009698  1  0.336944  0  -0.137376  -0.175279  0  3.902069  0
C  C125  1  0.57977308  0.49706910  0.90901029  1  0.394548  0  -0.137012  -0.176396  0  3.911573  0
C  C126  1  0.89575082  0.90646973  0.48990138  1  0.336375  0  -0.137242  -0.175597  0  3.902031  0
C  C127  1  0.07975965  0.00293267  0.59098593  1  0.394435  0  -0.13693  -0.176213  0  3.911362  0
N  N128  1  0.85423762  0.49862740  0.46888232  1  -0.511106  0  -0.1531  -0.145923  0  3.208475  0
N  N129  1  0.15838757  0.50475457  0.53388710  1  -0.526957  0  -0.155122  -0.147972  0  3.211945  0
N  N130  1  0.35422069  0.00138011  0.03112166  1  -0.511504  0  -0.153114  -0.145919  0  3.208166  0
N  N131  1  0.65836151  0.99525923  0.96613110  1  -0.527121  0  -0.155052  -0.148083  0  3.21284  0
N  N132  1  0.85601055  0.46330703  0.50315259  1  -0.55061  0  -0.154141  -0.147114  0  3.211477  0
N  N133  1  0.15655395  0.54013532  0.49964315  1  -0.560232  0  -0.154995  -0.148863  0  3.210164  0
N  N134  1  0.35599558  0.03670525  0.99685181  1  -0.549968  0  -0.154058  -0.147051  0  3.211045  0
N  N135  1  0.65652297  0.95987731  0.00037246  1  -0.55998  0  -0.154909  -0.148632  0  3.211206  0
O  O136  1  0.33594166  0.20129047  0.69904356  1  -1.263898  0  -0.230441  -0.592405  0  2.414601  0
O  O137  1  0.67652935  0.80359962  0.29925678  1  -1.260756  0  -0.231286  -0.592121  0  2.393034  0
O  O138  1  0.83592544  0.29870755  0.80095208  1  -1.263704  0  -0.23042  -0.59264  0  2.414233  0
O  O139  1  0.17650600  0.69636703  0.20076546  1  -1.261275  0  -0.231278  -0.592037  0  2.392988  0
O  O140  1  0.66969895  0.19367823  0.79199352  1  -1.250319  0  -0.23756  -0.596056  0  2.352406  0
O  O141  1  0.33999797  0.80164006  0.20393274  1  -1.257375  0  -0.236558  -0.591593  0  2.350785  0
O  O142  1  0.16964518  0.30631330  0.70800601  1  -1.251074  0  -0.237757  -0.596239  0  2.352606  0
O  O143  1  0.84004591  0.69834208  0.29605958  1  -1.256872  0  -0.236499  -0.591503  0  2.350987  0
O  O144  1  0.66938529  0.19836286  0.69404464  1  -1.255414  0  -0.236159  -0.592176  0  2.338336  0
O  O145  1  0.34219446  0.80519572  0.30179692  1  -1.256765  0  -0.235366  -0.592988  0  2.348037  0
O  O146  1  0.16937262  0.30163841  0.80595958  1  -1.255728  0  -0.23612  -0.591953  0  2.338428  0
O  O147  1  0.84215882  0.69480705  0.19819902  1  -1.256651  0  -0.235428  -0.592968  0  2.34852  0
O  O148  1  0.83377911  0.30067875  0.70217581  1  -1.252656  0  -0.237083  -0.594695  0  2.359939  0
O  O149  1  0.17670692  0.70227418  0.29984935  1  -1.246619  0  -0.237241  -0.593332  0  2.347243  0
O  O150  1  0.33379489  0.19931745  0.79782741  1  -1.25254  0  -0.23691  -0.594302  0  2.360347  0
O  O151  1  0.67666003  0.79773355  0.20016456  1  -1.246628  0  -0.237168  -0.593144  0  2.347595  0
O  O152  1  0.50549857  0.28493757  0.75419184  1  -1.426702  0  -0.450673  -0.9828  0  2.153919  0
O  O153  1  0.50668555  0.71541834  0.24850211  1  -1.403298  0  -0.450948  -0.979178  0  2.174001  0
O  O154  1  0.00550319  0.21505542  0.74581087  1  -1.426504  0  -0.450813  -0.982968  0  2.154024  0
O  O155  1  0.00667807  0.78457386  0.25150485  1  -1.403392  0  -0.451032  -0.979352  0  2.173988  0
O  O156  1  0.37578663  0.62332346  0.13743578  1  -1.068793  0  -0.199692  -0.172371  0  2.576899  0
O  O157  1  0.62135753  0.35685273  0.86915777  1  -1.074264  0  -0.201566  -0.182038  0  2.575937  0
O  O158  1  0.87579959  0.87668524  0.36256645  1  -1.069039  0  -0.199583  -0.172048  0  2.576766  0
O  O159  1  0.12137256  0.14314224  0.63084009  1  -1.074094  0  -0.201626  -0.182176  0  2.576324  0
O  O160  1  0.35124879  0.56184725  0.05105405  1  -1.063695  0  -0.20515  -0.179621  0  2.553665  0
O  O161  1  0.62620908  0.44844729  0.93513719  1  -1.074368  0  -0.204285  -0.177917  0  2.556001  0
O  O162  1  0.85123173  0.93816334  0.44894914  1  -1.063889  0  -0.205208  -0.178608  0  2.553021  0
O  O163  1  0.12619233  0.05155159  0.56485744  1  -1.074611  0  -0.204102  -0.177715  0  2.555961  0
