# generated using pymatgen
data_LaH6(C2N3)3
_symmetry_space_group_name_H-M   'P 1'
_cell_length_a   9.55728868
_cell_length_b   9.55729440
_cell_length_c   13.18132947
_cell_angle_alpha   92.38804988
_cell_angle_beta   92.38826303
_cell_angle_gamma   119.92739935
_symmetry_Int_Tables_number   1
_chemical_formula_structural   LaH6(C2N3)3
_chemical_formula_sum   'La4 H24 C24 N36'
_cell_volume   1039.84040529
_cell_formula_units_Z   4
loop_
 _symmetry_equiv_pos_site_id
 _symmetry_equiv_pos_as_xyz
  1  'x, y, z'
loop_
 _atom_site_type_symbol
 _atom_site_label
 _atom_site_symmetry_multiplicity
 _atom_site_fract_x
 _atom_site_fract_y
 _atom_site_fract_z
 _atom_site_occupancy
 _atom_site_hle17_bader_spin_density
 _atom_site_hle17_ddec_charge
 _atom_site_hle17_ddec_spin_density
 _atom_site_hle17_ddec_sum_bond_order
 _atom_site_hle17_magmom
 _atom_site_hse06_10hf_bader_spin_density
 _atom_site_hse06_10hf_ddec_charge
 _atom_site_hse06_10hf_ddec_spin_density
 _atom_site_hse06_10hf_ddec_sum_bond_order
 _atom_site_hse06_10hf_magmom
 _atom_site_hse06_bader_spin_density
 _atom_site_hse06_ddec_charge
 _atom_site_hse06_ddec_spin_density
 _atom_site_hse06_ddec_sum_bond_order
 _atom_site_hse06_magmom
 _atom_site_pbe_bader_spin_density
 _atom_site_pbe_cm5_charge
 _atom_site_pbe_ddec_charge
 _atom_site_pbe_ddec_spin_density
 _atom_site_pbe_ddec_sum_bond_order
 _atom_site_pbe_magmom
La  La0  1  0.52173864  0.25533509  0.42737875  1  0  1.656079  0  2.289695  0  0  1.400293  0  2.950973  0  0  1.493136  0  2.882871  0  0  1.681781  1.334419  0  2.992961  0
La  La1  1  0.74466664  0.47826411  0.07262092  1  0  1.656113  0  2.289673  0  0  1.40028  0  2.951044  0  0  1.493178  0  2.88285  0  0  1.681801  1.334479  0  2.992903  0
La  La2  1  0.47826240  0.74466642  0.57262030  1  0  1.656084  0  2.289676  0  0  1.400283  0  2.950969  0  0  1.493158  0  2.882829  0  0  1.681793  1.334462  0  2.99287  0
La  La3  1  0.25533485  0.52173619  0.92737886  1  0  1.656086  0  2.289681  0  0  1.400279  0  2.951004  0  0  1.49317  0  2.882836  0  0  1.681785  1.334437  0  2.992941  0
H  H4  1  0.96318414  0.99166508  0.40142083  1  0  0.102768  0  0.961377  0  0  0.110419  0  1.025803  0  0  0.112816  0  1.024788  0  0  0.119948  0.108699  0  1.026721  0
H  H5  1  0.00833428  0.03681397  0.09857825  1  0  0.102754  0  0.961378  0  0  0.110433  0  1.02578  0  0  0.11283  0  1.024765  0  0  0.119936  0.108713  0  1.026698  0
H  H6  1  0.03681481  0.00833644  0.59857816  1  0  0.102773  0  0.961351  0  0  0.110441  0  1.025762  0  0  0.112837  0  1.024748  0  0  0.119939  0.108719  0  1.026682  0
H  H7  1  0.99166450  0.96318512  0.90142067  1  0  0.102763  0  0.961367  0  0  0.110414  0  1.025795  0  0  0.112811  0  1.024782  0  0  0.119944  0.108692  0  1.026713  0
H  H8  1  0.91002200  0.23671680  0.33510243  1  0  0.100301  0  0.971277  0  0  0.106067  0  1.03973  0  0  0.108442  0  1.038821  0  0  0.120293  0.104248  0  1.040817  0
H  H9  1  0.76328303  0.08997727  0.16489763  1  0  0.100287  0  0.971294  0  0  0.106053  0  1.039745  0  0  0.108428  0  1.038834  0  0  0.120289  0.104233  0  1.040835  0
H  H10  1  0.08997800  0.76328471  0.66489659  1  0  0.100279  0  0.971298  0  0  0.106039  0  1.03976  0  0  0.108415  0  1.038853  0  0  0.120281  0.10422  0  1.04085  0
H  H11  1  0.23671725  0.91002062  0.83510357  1  0  0.100276  0  0.971299  0  0  0.106027  0  1.03977  0  0  0.108402  0  1.038864  0  0  0.120278  0.104207  0  1.04086  0
H  H12  1  0.77214730  0.69898415  0.77169802  1  0  0.104546  0  0.962505  0  0  0.113122  0  1.025748  0  0  0.115225  0  1.025347  0  0  0.122333  0.111578  0  1.026114  0
H  H13  1  0.30102206  0.22785440  0.72829879  1  0  0.104523  0  0.962612  0  0  0.113104  0  1.025853  0  0  0.11521  0  1.025438  0  0  0.122324  0.111566  0  1.026221  0
H  H14  1  0.22785286  0.30101978  0.22830031  1  0  0.104539  0  0.962542  0  0  0.113111  0  1.025792  0  0  0.115216  0  1.025381  0  0  0.122333  0.111571  0  1.02616  0
H  H15  1  0.69898214  0.77214712  0.27170111  1  0  0.104518  0  0.96263  0  0  0.113092  0  1.025881  0  0  0.115194  0  1.025476  0  0  0.122326  0.111552  0  1.02625  0
H  H16  1  0.86426841  0.46749557  0.73053053  1  0  0.108803  0  0.955237  0  0  0.116282  0  1.017385  0  0  0.11863  0  1.016574  0  0  0.122323  0.114854  0  1.017627  0
H  H17  1  0.53250596  0.13573068  0.76946802  1  0  0.108854  0  0.955166  0  0  0.116349  0  1.017297  0  0  0.118698  0  1.016483  0  0  0.122338  0.114923  0  1.017538  0
H  H18  1  0.13572890  0.53250475  0.26947066  1  0  0.108809  0  0.955201  0  0  0.116274  0  1.01738  0  0  0.118621  0  1.016568  0  0  0.122322  0.114846  0  1.01762  0
H  H19  1  0.46749493  0.86426842  0.23053247  1  0  0.108791  0  0.955263  0  0  0.11631  0  1.017368  0  0  0.118659  0  1.016556  0  0  0.122335  0.114882  0  1.017609  0
H  H20  1  0.35391628  0.06494082  0.00953484  1  0  0.102056  0  0.975759  0  0  0.110556  0  1.039655  0  0  0.112604  0  1.039473  0  0  0.121394  0.108957  0  1.040082  0
H  H21  1  0.93506210  0.64608262  0.49046554  1  0  0.102078  0  0.975746  0  0  0.110575  0  1.039634  0  0  0.112626  0  1.039457  0  0  0.121393  0.108975  0  1.040062  0
H  H22  1  0.64608357  0.93505829  0.99046638  1  0  0.10205  0  0.975756  0  0  0.11056  0  1.039643  0  0  0.112612  0  1.039463  0  0  0.12139  0.108959  0  1.040071  0
H  H23  1  0.06493922  0.35391526  0.50953341  1  0  0.102024  0  0.975771  0  0  0.110531  0  1.039653  0  0  0.112584  0  1.039474  0  0  0.121373  0.108931  0  1.040081  0
H  H24  1  0.15863941  0.88174579  0.16027889  1  0  0.107721  0  0.967065  0  0  0.112411  0  1.035543  0  0  0.115292  0  1.033663  0  0  0.122751  0.110286  0  1.037141  0
H  H25  1  0.11825575  0.84136026  0.33972164  1  0  0.107731  0  0.96697  0  0  0.112421  0  1.035455  0  0  0.115302  0  1.033573  0  0  0.122751  0.110296  0  1.037053  0
H  H26  1  0.84135911  0.11825694  0.83972164  1  0  0.107734  0  0.966968  0  0  0.11242  0  1.035461  0  0  0.115301  0  1.033581  0  0  0.122753  0.110297  0  1.037059  0
H  H27  1  0.88174304  0.15863884  0.66027803  1  0  0.107723  0  0.967016  0  0  0.112412  0  1.0355  0  0  0.115292  0  1.03362  0  0  0.12278  0.110288  0  1.037097  0
C  C28  1  0.86514051  0.01510820  0.41416070  1  0  -0.008231  0  3.738572  0  0  -0.0358  0  4.002199  0  0  -0.033886  0  4.017529  0  0  0.012642  -0.037363  0  3.992145  0
C  C29  1  0.98489024  0.13485653  0.08583874  1  0  -0.008228  0  3.73857  0  0  -0.03583  0  4.002208  0  0  -0.033912  0  4.017534  0  0  0.012625  -0.037391  0  3.992151  0
C  C30  1  0.13485949  0.98489332  0.58583984  1  0  -0.008242  0  3.738521  0  0  -0.035825  0  4.002153  0  0  -0.033911  0  4.017485  0  0  0.012649  -0.037383  0  3.992097  0
C  C31  1  0.01510838  0.86514014  0.91416010  1  0  -0.008203  0  3.738598  0  0  -0.035774  0  4.002222  0  0  -0.03387  0  4.017559  0  0  0.012677  -0.037331  0  3.992166  0
C  C32  1  0.83855884  0.13686287  0.38090247  1  0  -0.009047  0  3.73143  0  0  -0.039199  0  3.994272  0  0  -0.036083  0  4.010402  0  0  0.016825  -0.041597  0  3.984223  0
C  C33  1  0.86313606  0.16144016  0.11909760  1  0  -0.009009  0  3.731385  0  0  -0.039152  0  3.994229  0  0  -0.036036  0  4.010359  0  0  0.016861  -0.041553  0  3.984184  0
C  C34  1  0.16144160  0.86313744  0.61909729  1  0  -0.009057  0  3.731456  0  0  -0.039197  0  3.994289  0  0  -0.036084  0  4.010425  0  0  0.016813  -0.041596  0  3.984244  0
C  C35  1  0.13686439  0.83856015  0.88090367  1  0  -0.009035  0  3.731377  0  0  -0.039164  0  3.994205  0  0  -0.036044  0  4.010339  0  0  0.016811  -0.041561  0  3.98416  0
C  C36  1  0.73550715  0.60847670  0.70861544  1  0  0.006941  0  3.697454  0  0  -0.02877  0  3.965017  0  0  -0.025601  0  3.982019  0  0  0.019746  -0.030544  0  3.953487  0
C  C37  1  0.39152251  0.26449043  0.79138037  1  0  0.00701  0  3.697331  0  0  -0.028705  0  3.964888  0  0  -0.025532  0  3.98189  0  0  0.019778  -0.030488  0  3.953363  0
C  C38  1  0.26449178  0.39152480  0.29138127  1  0  0.006957  0  3.697366  0  0  -0.028754  0  3.964928  0  0  -0.025578  0  3.981927  0  0  0.019737  -0.030532  0  3.953398  0
C  C39  1  0.60847777  0.73550746  0.20862083  1  0  0.006996  0  3.697417  0  0  -0.028703  0  3.964965  0  0  -0.025539  0  3.981988  0  0  0.019765  -0.030482  0  3.953439  0
C  C40  1  0.78147433  0.49355878  0.68789965  1  0  -0.000415  0  3.725253  0  0  -0.030099  0  3.996037  0  0  -0.027965  0  4.011674  0  0  0.013444  -0.031674  0  3.985211  0
C  C41  1  0.50644212  0.21852299  0.81209945  1  0  -0.00058  0  3.725318  0  0  -0.030278  0  3.996109  0  0  -0.028144  0  4.011744  0  0  0.013375  -0.031854  0  3.985284  0
C  C42  1  0.21852552  0.50644033  0.31210234  1  0  -0.000435  0  3.725308  0  0  -0.030118  0  3.99612  0  0  -0.027983  0  4.011754  0  0  0.013428  -0.031694  0  3.985296  0
C  C43  1  0.49355756  0.78147369  0.18790170  1  0  -0.000486  0  3.7253  0  0  -0.030217  0  3.996109  0  0  -0.028086  0  4.011746  0  0  0.013374  -0.031791  0  3.985285  0
C  C44  1  0.37200879  0.08346135  0.09166341  1  0  0.007123  0  3.702579  0  0  -0.028937  0  3.967838  0  0  -0.02578  0  3.984991  0  0  0.020648  -0.030761  0  3.955933  0
C  C45  1  0.91654099  0.62798948  0.40833618  1  0  0.006988  0  3.702601  0  0  -0.029068  0  3.967862  0  0  -0.025922  0  3.985022  0  0  0.020616  -0.03089  0  3.955953  0
C  C46  1  0.62799016  0.91654016  0.90833558  1  0  0.007096  0  3.702578  0  0  -0.028975  0  3.967841  0  0  -0.025827  0  3.985  0  0  0.020652  -0.030797  0  3.955932  0
C  C47  1  0.08345929  0.37200840  0.59166275  1  0  0.007114  0  3.702546  0  0  -0.02895  0  3.9678  0  0  -0.025802  0  3.984958  0  0  0.02066  -0.030772  0  3.955893  0
C  C48  1  0.27455059  0.99334118  0.16673837  1  0  -0.00727  0  3.721304  0  0  -0.035224  0  3.988338  0  0  -0.033517  0  4.00392  0  0  0.012203  -0.036306  0  3.977947  0
C  C49  1  0.00666004  0.72544730  0.33326135  1  0  -0.007229  0  3.721177  0  0  -0.035175  0  3.988205  0  0  -0.033458  0  4.003779  0  0  0.012216  -0.036257  0  3.977816  0
C  C50  1  0.72544539  0.00666276  0.83326212  1  0  -0.007271  0  3.72115  0  0  -0.035207  0  3.988169  0  0  -0.033502  0  4.003763  0  0  0.012177  -0.036292  0  3.977781  0
C  C51  1  0.99333753  0.27454937  0.66673746  1  0  -0.007251  0  3.721104  0  0  -0.035198  0  3.988146  0  0  -0.033487  0  4.003727  0  0  0.012161  -0.03628  0  3.977756  0
N  N52  1  0.69877282  0.11396198  0.41764264  1  0  -0.268831  0  3.172527  0  0  -0.221304  0  3.460228  0  0  -0.236291  0  3.483237  0  0  -0.291794  -0.210809  0  3.444524  0
N  N53  1  0.88603744  0.30122631  0.08235578  1  0  -0.268832  0  3.172602  0  0  -0.221315  0  3.46031  0  0  -0.236305  0  3.48332  0  0  -0.291828  -0.210829  0  3.444611  0
N  N54  1  0.30122822  0.88603954  0.58235641  1  0  -0.268806  0  3.172662  0  0  -0.221287  0  3.460366  0  0  -0.236274  0  3.483374  0  0  -0.291804  -0.210799  0  3.444665  0
N  N55  1  0.11396407  0.69877401  0.91764629  1  0  -0.268817  0  3.172544  0  0  -0.221318  0  3.460273  0  0  -0.23631  0  3.483285  0  0  -0.29182  -0.210827  0  3.444576  0
N  N56  1  0.64280493  0.98331182  0.47118462  1  0  -0.194883  0  3.2361  0  0  -0.153145  0  3.527343  0  0  -0.166429  0  3.555075  0  0  -0.242548  -0.143467  0  3.50758  0
N  N57  1  0.01668748  0.35719261  0.02881402  1  0  -0.194861  0  3.236241  0  0  -0.153111  0  3.527473  0  0  -0.166401  0  3.555212  0  0  -0.242512  -0.143435  0  3.507715  0
N  N58  1  0.35719404  0.01668971  0.52881589  1  0  -0.194839  0  3.236257  0  0  -0.153091  0  3.527491  0  0  -0.166375  0  3.555224  0  0  -0.242492  -0.14341  0  3.507726  0
N  N59  1  0.98331341  0.64280649  0.97118647  1  0  -0.194853  0  3.23618  0  0  -0.153097  0  3.52741  0  0  -0.166384  0  3.555151  0  0  -0.242508  -0.143423  0  3.507653  0
N  N60  1  0.74085023  0.92111058  0.47048315  1  0  -0.291424  0  3.117064  0  0  -0.250529  0  3.400007  0  0  -0.26257  0  3.420687  0  0  -0.29485  -0.242145  0  3.386021  0
N  N61  1  0.07888765  0.25914654  0.02951641  1  0  -0.291482  0  3.117148  0  0  -0.250574  0  3.400069  0  0  -0.262626  0  3.420752  0  0  -0.294856  -0.242188  0  3.38608  0
N  N62  1  0.25914978  0.07889095  0.52951890  1  0  -0.29146  0  3.117118  0  0  -0.250568  0  3.400067  0  0  -0.26261  0  3.42075  0  0  -0.294856  -0.242177  0  3.386073  0
N  N63  1  0.92111157  0.74085134  0.97048248  1  0  -0.291492  0  3.117153  0  0  -0.250583  0  3.400076  0  0  -0.262622  0  3.420758  0  0  -0.29486  -0.2422  0  3.386087  0
N  N64  1  0.69778679  0.40747407  0.60040557  1  0  -0.295113  0  3.128524  0  0  -0.251694  0  3.40939  0  0  -0.264817  0  3.431589  0  0  -0.297978  -0.242725  0  3.394061  0
N  N65  1  0.59252478  0.30220920  0.89959420  1  0  -0.295105  0  3.128539  0  0  -0.251675  0  3.409403  0  0  -0.264806  0  3.431608  0  0  -0.297956  -0.242711  0  3.394073  0
N  N66  1  0.30221035  0.59252382  0.39959478  1  0  -0.295129  0  3.128545  0  0  -0.251694  0  3.409399  0  0  -0.264827  0  3.431603  0  0  -0.297974  -0.242733  0  3.394073  0
N  N67  1  0.40747386  0.69778749  0.10040768  1  0  -0.295088  0  3.128417  0  0  -0.251663  0  3.409291  0  0  -0.264796  0  3.431496  0  0  -0.297931  -0.2427  0  3.393965  0
N  N68  1  0.60523496  0.46799177  0.56926818  1  0  -0.190236  0  3.254444  0  0  -0.14756  0  3.542977  0  0  -0.160696  0  3.571653  0  0  -0.249527  -0.138093  0  3.522622  0
N  N69  1  0.53200944  0.39476264  0.93073073  1  0  -0.190223  0  3.254389  0  0  -0.147545  0  3.542921  0  0  -0.160691  0  3.571606  0  0  -0.249535  -0.138088  0  3.522569  0
N  N70  1  0.39476608  0.53200973  0.43073011  1  0  -0.190199  0  3.254464  0  0  -0.147527  0  3.542999  0  0  -0.160663  0  3.571673  0  0  -0.249522  -0.138063  0  3.522639  0
N  N71  1  0.46798920  0.60523405  0.06927115  1  0  -0.190154  0  3.254341  0  0  -0.147467  0  3.542853  0  0  -0.160604  0  3.571533  0  0  -0.249509  -0.138003  0  3.522501  0
N  N72  1  0.62581445  0.59005014  0.63296984  1  0  -0.275611  0  3.189483  0  0  -0.227221  0  3.480297  0  0  -0.243  0  3.504311  0  0  -0.297705  -0.216228  0  3.463193  0
N  N73  1  0.40995232  0.37418507  0.86702827  1  0  -0.275577  0  3.18921  0  0  -0.227191  0  3.480033  0  0  -0.242972  0  3.504048  0  0  -0.297681  -0.216194  0  3.462931  0
N  N74  1  0.37418719  0.40995257  0.36702774  1  0  -0.275617  0  3.189346  0  0  -0.227232  0  3.48018  0  0  -0.243009  0  3.504189  0  0  -0.297681  -0.216232  0  3.463071  0
N  N75  1  0.59004962  0.62581404  0.13297302  1  0  -0.275669  0  3.18935  0  0  -0.227285  0  3.480188  0  0  -0.243068  0  3.504201  0  0  -0.297718  -0.216296  0  3.463086  0
N  N76  1  0.35283864  0.06886180  0.25787363  1  0  -0.306661  0  3.127547  0  0  -0.261367  0  3.406837  0  0  -0.274  0  3.427343  0  0  -0.296372  -0.252443  0  3.392975  0
N  N77  1  0.93113990  0.64716084  0.24212597  1  0  -0.30661  0  3.127438  0  0  -0.261302  0  3.406712  0  0  -0.273938  0  3.427217  0  0  -0.296352  -0.252386  0  3.392855  0
N  N78  1  0.64715944  0.93114213  0.74212616  1  0  -0.306636  0  3.127426  0  0  -0.261341  0  3.406715  0  0  -0.273971  0  3.427217  0  0  -0.296322  -0.252419  0  3.392856  0
N  N79  1  0.06885827  0.35283704  0.75787289  1  0  -0.30663  0  3.127354  0  0  -0.261331  0  3.406643  0  0  -0.273965  0  3.427147  0  0  -0.296346  -0.252408  0  3.392782  0
N  N80  1  0.49228963  0.19918476  0.23859849  1  0  -0.180858  0  3.242524  0  0  -0.140434  0  3.532168  0  0  -0.152582  0  3.559124  0  0  -0.245441  -0.132029  0  3.513621  0
N  N81  1  0.80081727  0.50770999  0.26140113  1  0  -0.180895  0  3.242431  0  0  -0.14047  0  3.532078  0  0  -0.152625  0  3.559031  0  0  -0.245462  -0.132073  0  3.513532  0
N  N82  1  0.50770933  0.80081676  0.76140125  1  0  -0.180845  0  3.24246  0  0  -0.140414  0  3.532101  0  0  -0.152568  0  3.559058  0  0  -0.24545  -0.132017  0  3.513557  0
N  N83  1  0.19918300  0.49228789  0.73859779  1  0  -0.180923  0  3.242324  0  0  -0.140498  0  3.531966  0  0  -0.15265  0  3.558922  0  0  -0.245478  -0.132096  0  3.513422  0
N  N84  1  0.50683160  0.21134887  0.13864986  1  0  -0.267747  0  3.169707  0  0  -0.217864  0  3.456145  0  0  -0.232938  0  3.479172  0  0  -0.29013  -0.20688  0  3.4394  0
N  N85  1  0.78865247  0.49316795  0.36134975  1  0  -0.267708  0  3.169675  0  0  -0.217821  0  3.4561  0  0  -0.232887  0  3.479129  0  0  -0.290123  -0.206828  0  3.439352  0
N  N86  1  0.49316824  0.78865023  0.86134984  1  0  -0.267779  0  3.169716  0  0  -0.2179  0  3.456164  0  0  -0.232975  0  3.479197  0  0  -0.290151  -0.206912  0  3.43942  0
N  N87  1  0.21134780  0.50682992  0.63864918  1  0  -0.267707  0  3.169643  0  0  -0.217823  0  3.456081  0  0  -0.232896  0  3.479112  0  0  -0.290093  -0.206836  0  3.439335  0
