# generated using pymatgen
data_CaH10C12N2(ClO3)2
_symmetry_space_group_name_H-M   'P 1'
_cell_length_a   7.80055178
_cell_length_b   10.75087465
_cell_length_c   10.81378865
_cell_angle_alpha   98.90866941
_cell_angle_beta   98.06444636
_cell_angle_gamma   97.12362867
_symmetry_Int_Tables_number   1
_chemical_formula_structural   CaH10C12N2(ClO3)2
_chemical_formula_sum   'Ca2 H20 C24 N4 Cl4 O12'
_cell_volume   877.17330907
_cell_formula_units_Z   2
loop_
 _symmetry_equiv_pos_site_id
 _symmetry_equiv_pos_as_xyz
  1  'x, y, z'
loop_
 _atom_site_type_symbol
 _atom_site_label
 _atom_site_symmetry_multiplicity
 _atom_site_fract_x
 _atom_site_fract_y
 _atom_site_fract_z
 _atom_site_occupancy
 _atom_site_hle17_bader_spin_density
 _atom_site_hle17_ddec_charge
 _atom_site_hle17_ddec_spin_density
 _atom_site_hle17_ddec_sum_bond_order
 _atom_site_hle17_magmom
 _atom_site_hse06_10hf_bader_spin_density
 _atom_site_hse06_10hf_ddec_charge
 _atom_site_hse06_10hf_ddec_spin_density
 _atom_site_hse06_10hf_ddec_sum_bond_order
 _atom_site_hse06_10hf_magmom
 _atom_site_hse06_bader_spin_density
 _atom_site_hse06_ddec_charge
 _atom_site_hse06_ddec_spin_density
 _atom_site_hse06_ddec_sum_bond_order
 _atom_site_hse06_magmom
 _atom_site_pbe_bader_spin_density
 _atom_site_pbe_cm5_charge
 _atom_site_pbe_ddec_charge
 _atom_site_pbe_ddec_spin_density
 _atom_site_pbe_ddec_sum_bond_order
 _atom_site_pbe_magmom
Ca  Ca0  1  0.75329241  0.97977886  0.54552411  1  0  1.554842  0  1.094133  0  0  1.424025  0  1.444116  0  0  1.468745  0  1.397551  0  0  0.871079  1.39045  0  1.476781  0
Ca  Ca1  1  0.24670706  0.02022337  0.45447601  1  0  1.554861  0  1.094109  0  0  1.424046  0  1.444093  0  0  1.468769  0  1.397525  0  0  0.871089  1.390454  0  1.476795  0
H  H2  1  0.98265425  0.79392284  0.56794263  1  0  0.432692  0  0.868237  0  0  0.400004  0  0.935344  0  0  0.4116  0  0.918301  0  0  0.297621  0.391682  0  0.947563  0
H  H3  1  0.01734463  0.20607654  0.43205793  1  0  0.432682  0  0.868237  0  0  0.399988  0  0.935354  0  0  0.411583  0  0.918312  0  0  0.29762  0.391661  0  0.947581  0
H  H4  1  0.79815968  0.70785066  0.53749754  1  0  0.387109  0  0.936469  0  0  0.344457  0  1.020802  0  0  0.355566  0  1.004963  0  0  0.279442  0.336516  0  1.032109  0
H  H5  1  0.20183847  0.29215156  0.46249875  1  0  0.387114  0  0.936463  0  0  0.344444  0  1.020814  0  0  0.35555  0  1.004977  0  0  0.279429  0.336506  0  1.032115  0
H  H6  1  0.71375354  0.02490283  0.81950437  1  0  0.385695  0  0.935357  0  0  0.342493  0  1.020782  0  0  0.353407  0  1.005122  0  0  0.275669  0.334697  0  1.031972  0
H  H7  1  0.28624885  0.97509465  0.18049718  1  0  0.385767  0  0.935273  0  0  0.342575  0  1.020681  0  0  0.353489  0  1.005021  0  0  0.275687  0.334777  0  1.031875  0
H  H8  1  0.56225243  0.08344803  0.74187566  1  0  0.428322  0  0.870724  0  0  0.395592  0  0.937686  0  0  0.407177  0  0.920469  0  0  0.292885  0.387214  0  0.950142  0
H  H9  1  0.43775056  0.91655232  0.25812822  1  0  0.428332  0  0.870707  0  0  0.395604  0  0.937665  0  0  0.407189  0  0.920449  0  0  0.292904  0.387228  0  0.950118  0
H  H10  1  0.02779905  0.27599737  0.82683688  1  0  0.108908  0  0.921255  0  0  0.120922  0  0.976243  0  0  0.124282  0  0.973476  0  0  0.117507  0.118318  0  0.978499  0
H  H11  1  0.97220344  0.72400680  0.17317031  1  0  0.108843  0  0.921299  0  0  0.120867  0  0.976291  0  0  0.124228  0  0.973521  0  0  0.117463  0.118263  0  0.978546  0
H  H12  1  0.00258779  0.32778312  0.05919514  1  0  0.102157  0  0.93769  0  0  0.113744  0  0.991856  0  0  0.117174  0  0.990758  0  0  0.106542  0.111022  0  0.99322  0
H  H13  1  0.99741534  0.67221152  0.94081160  1  0  0.102145  0  0.937628  0  0  0.113664  0  0.991882  0  0  0.117089  0  0.990792  0  0  0.106523  0.110946  0  0.993246  0
H  H14  1  0.12722606  0.19092736  0.20666713  1  0  0.093682  0  0.965965  0  0  0.099279  0  1.033637  0  0  0.103205  0  1.029669  0  0  0.117247  0.096387  0  1.036577  0
H  H15  1  0.87277904  0.80906441  0.79333475  1  0  0.093703  0  0.965968  0  0  0.09931  0  1.03361  0  0  0.103235  0  1.02964  0  0  0.117258  0.096418  0  1.036562  0
H  H16  1  0.45975127  0.24312825  0.24971511  1  0  0.10345  0  0.946949  0  0  0.113567  0  1.009665  0  0  0.116215  0  1.00779  0  0  0.112227  0.111597  0  1.011046  0
H  H17  1  0.54024760  0.75687112  0.75028360  1  0  0.103479  0  0.946909  0  0  0.113564  0  1.009653  0  0  0.116212  0  1.00778  0  0  0.11224  0.1116  0  1.011031  0
H  H18  1  0.42267644  0.44789032  0.17003162  1  0  0.102832  0  0.945118  0  0  0.114636  0  0.999652  0  0  0.117555  0  0.999554  0  0  0.106223  0.112502  0  1.000032  0
H  H19  1  0.57731666  0.55210619  0.82996424  1  0  0.102802  0  0.945085  0  0  0.114571  0  0.999661  0  0  0.117491  0  0.999564  0  0  0.106215  0.112437  0  1.000034  0
H  H20  1  0.58155524  0.65383788  0.30629721  1  0  0.094848  0  0.925729  0  0  0.102454  0  0.98689  0  0  0.106024  0  0.983776  0  0  0.12212  0.099833  0  0.98921  0
H  H21  1  0.41843065  0.34616147  0.69369467  1  0  0.094847  0  0.925636  0  0  0.10239  0  0.986865  0  0  0.105956  0  0.983757  0  0  0.122095  0.099771  0  0.98918  0
C  C22  1  0.18992959  0.09003074  0.71640099  1  0  0.68135  0  3.94254  0  0  0.626389  0  4.244348  0  0  0.661451  0  4.235312  0  0  0.218588  0.602666  0  4.249368  0
C  C23  1  0.81007506  0.90997150  0.28360056  1  0  0.681396  0  3.942559  0  0  0.626416  0  4.244371  0  0  0.661489  0  4.235336  0  0  0.218575  0.602692  0  4.249394  0
C  C24  1  0.22780483  0.04739218  0.94310918  1  0  0.266401  0  3.796413  0  0  0.248212  0  4.079028  0  0  0.259111  0  4.096337  0  0  0.144009  0.240797  0  4.067561  0
C  C25  1  0.77219754  0.95260529  0.05688959  1  0  0.266478  0  3.796485  0  0  0.248162  0  4.079224  0  0  0.259077  0  4.096538  0  0  0.143925  0.240747  0  4.06775  0
C  C26  1  0.16873693  0.11989801  0.85325817  1  0  -0.13466  0  3.712414  0  0  -0.117444  0  3.953136  0  0  -0.126679  0  3.972102  0  0  -0.004271  -0.111957  0  3.940862  0
C  C27  1  0.83126385  0.88010423  0.14674393  1  0  -0.134761  0  3.712351  0  0  -0.11747  0  3.953062  0  0  -0.126745  0  3.972076  0  0  -0.004273  -0.111987  0  3.940793  0
C  C28  1  0.08371236  0.22161630  0.89549287  1  0  -0.003603  0  3.694442  0  0  -0.03061  0  3.94468  0  0  -0.02584  0  3.960493  0  0  -0.057992  -0.033468  0  3.934082  0
C  C29  1  0.91629284  0.77838215  0.10451279  1  0  -0.003517  0  3.694345  0  0  -0.030552  0  3.944532  0  0  -0.025766  0  3.960346  0  0  -0.057941  -0.033406  0  3.933932  0
C  C30  1  0.06880744  0.24958010  0.02339198  1  0  -0.129991  0  3.767328  0  0  -0.148219  0  4.031645  0  0  -0.154268  0  4.051371  0  0  -0.091945  -0.144394  0  4.018585  0
C  C31  1  0.93119555  0.75042025  0.97661190  1  0  -0.129924  0  3.767568  0  0  -0.148095  0  4.031903  0  0  -0.15414  0  4.051623  0  0  -0.091906  -0.144274  0  4.018847  0
C  C32  1  0.13611544  0.17315070  0.10550687  1  0  0.12297  0  3.699032  0  0  0.091065  0  3.963745  0  0  0.097576  0  3.979834  0  0  0.042165  0.086902  0  3.952667  0
C  C33  1  0.86389117  0.82684203  0.89449715  1  0  0.122968  0  3.699301  0  0  0.091057  0  3.963948  0  0  0.097572  0  3.980035  0  0  0.042119  0.086878  0  3.952876  0
C  C34  1  0.66544258  0.21195444  0.45963849  1  0  0.690873  0  3.930372  0  0  0.636181  0  4.229785  0  0  0.671437  0  4.220668  0  0  0.22267  0.612322  0  4.234941  0
C  C35  1  0.33455670  0.78804684  0.54036146  1  0  0.690725  0  3.930398  0  0  0.636018  0  4.229851  0  0  0.67128  0  4.220734  0  0  0.222663  0.612153  0  4.23501  0
C  C36  1  0.72539594  0.45486405  0.48167066  1  0  0.276345  0  3.78255  0  0  0.256659  0  4.06713  0  0  0.267953  0  4.08415  0  0  0.1498  0.248941  0  4.055889  0
C  C37  1  0.27459982  0.54513912  0.51832554  1  0  0.276199  0  3.782694  0  0  0.25655  0  4.067199  0  0  0.267847  0  4.084219  0  0  0.149809  0.248823  0  4.055971  0
C  C38  1  0.64195370  0.33531656  0.41515957  1  0  -0.143118  0  3.709116  0  0  -0.127268  0  3.954007  0  0  -0.137192  0  3.973273  0  0  -0.00774  -0.121365  0  3.941575  0
C  C39  1  0.35804497  0.66468185  0.58483712  1  0  -0.142889  0  3.709123  0  0  -0.127063  0  3.954013  0  0  -0.137005  0  3.973305  0  0  -0.007688  -0.121152  0  3.941582  0
C  C40  1  0.53018310  0.33415855  0.30191591  1  0  -0.000975  0  3.69293  0  0  -0.029801  0  3.945648  0  0  -0.025351  0  3.962966  0  0  -0.060759  -0.032301  0  3.933781  0
C  C41  1  0.46981633  0.66584366  0.69807866  1  0  -0.001087  0  3.692984  0  0  -0.029886  0  3.945711  0  0  -0.025431  0  3.963029  0  0  -0.060836  -0.032393  0  3.933848  0
C  C42  1  0.50890623  0.44751221  0.25839642  1  0  -0.135689  0  3.775483  0  0  -0.153092  0  4.037553  0  0  -0.159807  0  4.058366  0  0  -0.092728  -0.148853  0  4.023513  0
C  C43  1  0.49108725  0.55248620  0.74159791  1  0  -0.135623  0  3.775415  0  0  -0.152989  0  4.037463  0  0  -0.159704  0  4.058272  0  0  -0.092711  -0.148747  0  4.023414  0
C  C44  1  0.59612757  0.56119173  0.33281197  1  0  0.136807  0  3.698279  0  0  0.104097  0  3.960814  0  0  0.111083  0  3.976219  0  0  0.050149  0.099572  0  3.950264  0
C  C45  1  0.40386521  0.43880954  0.66718365  1  0  0.136799  0  3.698307  0  0  0.104109  0  3.96083  0  0  0.111094  0  3.976232  0  0  0.050157  0.099588  0  3.950273  0
N  N46  1  0.21311046  0.07219623  0.06513250  1  0  -0.358999  0  3.17949  0  0  -0.304569  0  3.435325  0  0  -0.319604  0  3.451816  0  0  -0.304704  -0.294306  0  3.424165  0
N  N47  1  0.78689283  0.92779934  0.93486885  1  0  -0.359094  0  3.179601  0  0  -0.304573  0  3.435383  0  0  -0.319615  0  3.451875  0  0  -0.304617  -0.294306  0  3.424235  0
N  N48  1  0.70088436  0.56390357  0.44339875  1  0  -0.352693  0  3.201442  0  0  -0.296033  0  3.453512  0  0  -0.310998  0  3.469637  0  0  -0.302906  -0.28589  0  3.442776  0
N  N49  1  0.29911209  0.43609674  0.55659617  1  0  -0.352659  0  3.201532  0  0  -0.295946  0  3.453511  0  0  -0.310907  0  3.469632  0  0  -0.302861  -0.285804  0  3.442778  0
Cl  Cl50  1  0.31873828  0.91216695  0.89446093  1  0  -0.090141  0  1.345219  0  0  -0.075157  0  1.576228  0  0  -0.078578  0  1.5703  0  0  0.024489  -0.072764  0  1.58065  0
Cl  Cl51  1  0.68126298  0.08783146  0.10553602  1  0  -0.090158  0  1.34522  0  0  -0.07515  0  1.576277  0  0  -0.078568  0  1.570344  0  0  0.024486  -0.072761  0  1.580699  0
Cl  Cl52  1  0.86397518  0.46827885  0.62509578  1  0  -0.08459  0  1.306336  0  0  -0.069612  0  1.522244  0  0  -0.072834  0  1.516533  0  0  0.019294  -0.067185  0  1.526557  0
Cl  Cl53  1  0.13602244  0.53172717  0.37489918  1  0  -0.084563  0  1.306378  0  0  -0.069605  0  1.522273  0  0  -0.072826  0  1.51656  0  0  0.01928  -0.06717  0  1.526584  0
O  O54  1  0.05317846  0.05157386  0.63505323  1  0  -0.69225  0  2.01564  0  0  -0.627637  0  2.260733  0  0  -0.657341  0  2.252863  0  0  -0.354352  -0.606362  0  2.265157  0
O  O55  1  0.94681991  0.94842933  0.36494693  1  0  -0.692212  0  2.015787  0  0  -0.627608  0  2.260892  0  0  -0.657311  0  2.253019  0  0  -0.354318  -0.606333  0  2.265322  0
O  O56  1  0.34264798  0.10740229  0.68787154  1  0  -0.679899  0  1.978564  0  0  -0.622937  0  2.211213  0  0  -0.650365  0  2.200662  0  0  -0.326894  -0.603142  0  2.217377  0
O  O57  1  0.65735130  0.89259899  0.31212935  1  0  -0.679954  0  1.978423  0  0  -0.62298  0  2.211074  0  0  -0.650407  0  2.200507  0  0  -0.326905  -0.603188  0  2.217238  0
O  O58  1  0.81964227  0.18681117  0.48537047  1  0  -0.681866  0  2.036989  0  0  -0.622367  0  2.270723  0  0  -0.650323  0  2.261559  0  0  -0.338909  -0.602343  0  2.276197  0
O  O59  1  0.18035951  0.81319585  0.51463614  1  0  -0.681829  0  2.036984  0  0  -0.622334  0  2.270739  0  0  -0.650291  0  2.261578  0  0  -0.338938  -0.602305  0  2.276218  0
O  O60  1  0.52978183  0.13769157  0.46784952  1  0  -0.707821  0  1.986642  0  0  -0.644887  0  2.233629  0  0  -0.674391  0  2.224864  0  0  -0.355958  -0.623684  0  2.238902  0
O  O61  1  0.47022022  0.86231066  0.53214993  1  0  -0.707743  0  1.986694  0  0  -0.644803  0  2.233696  0  0  -0.674307  0  2.224931  0  0  -0.355918  -0.623594  0  2.23897  0
O  O62  1  0.86143161  0.79165889  0.58684177  1  0  -0.889275  0  1.846715  0  0  -0.834832  0  2.043448  0  0  -0.856163  0  2.010148  0  0  -0.637214  -0.81907  0  2.066824  0
O  O63  1  0.13856746  0.20834143  0.41315710  1  0  -0.889292  0  1.846658  0  0  -0.834827  0  2.04343  0  0  -0.856157  0  2.010137  0  0  -0.637225  -0.819063  0  2.066807  0
O  O64  1  0.68537813  0.06852490  0.74590295  1  0  -0.883729  0  1.813341  0  0  -0.829339  0  1.999096  0  0  -0.849856  0  1.966147  0  0  -0.633356  -0.814356  0  2.022393  0
O  O65  1  0.31462595  0.93147449  0.25409997  1  0  -0.883817  0  1.813252  0  0  -0.829423  0  1.998995  0  0  -0.849942  0  1.966045  0  0  -0.633395  -0.814437  0  2.022294  0
