# generated using pymatgen
data_Co3H32C42(NO7)2
_symmetry_space_group_name_H-M   'P 1'
_cell_length_a   10.81452984
_cell_length_b   10.81465503
_cell_length_c   21.16280248
_cell_angle_alpha   95.64028207
_cell_angle_beta   95.64066663
_cell_angle_gamma   107.02233212
_symmetry_Int_Tables_number   1
_chemical_formula_structural   Co3H32C42(NO7)2
_chemical_formula_sum   'Co6 H64 C84 N4 O28'
_cell_volume   2334.12246065
_cell_formula_units_Z   2
loop_
 _symmetry_equiv_pos_site_id
 _symmetry_equiv_pos_as_xyz
  1  'x, y, z'
loop_
 _atom_site_type_symbol
 _atom_site_label
 _atom_site_symmetry_multiplicity
 _atom_site_fract_x
 _atom_site_fract_y
 _atom_site_fract_z
 _atom_site_occupancy
 _atom_site_pbe_bader_charge
 _atom_site_pbe_bader_spin_density
 _atom_site_pbe_cm5_charge
 _atom_site_pbe_ddec_charge
 _atom_site_pbe_ddec_spin_density
 _atom_site_pbe_ddec_sum_bond_order
 _atom_site_pbe_magmom
Co  Co0  1  0.50355289  0.97353950  0.19305195  1  1.274359  2.569306  0.655455  0.961241  2.759719  2.422849  2.528
Co  Co1  1  0.02645448  0.49647218  0.30695436  1  1.27427  2.569295  0.655311  0.961055  2.759691  2.422529  2.528
Co  Co2  1  0.49649626  0.02642175  0.80692971  1  1.27427  2.569256  0.655384  0.961097  2.759556  2.422085  2.528
Co  Co3  1  0.97352985  0.50352380  0.69307395  1  1.274008  2.569319  0.65531  0.960933  2.759662  2.422043  2.528
Co  Co4  1  0.24541848  0.75460185  0.24999778  1  1.412328  2.670101  0.690282  1.127151  2.907477  2.387163  2.658
Co  Co5  1  0.75459436  0.24539556  0.75000419  1  1.412744  2.670008  0.690443  1.127184  2.907442  2.389174  2.658
H  H6  1  0.32225088  0.94621224  0.38818893  1  0.10407  0.00018  0.108164  0.121684  -3.7e-05  1.031532  0.0
H  H7  1  0.23036056  0.94584601  0.49184093  1  0.086027  3.8e-05  0.094817  0.09323  -2.7e-05  1.075878  0.0
H  H8  1  0.26219669  0.96349978  0.61068958  1  0.09792  0.000413  0.105742  0.111739  0.000154  0.998344  0.0
H  H9  1  0.96393603  0.73445218  0.46532371  1  0.117818  0.000346  0.103482  0.109152  9.5e-05  1.015643  0.0
H  H10  1  0.92402753  0.80152939  0.57627591  1  0.095826  0.000207  0.104004  0.111477  1.6e-05  1.006768  0.0
H  H11  1  0.25589161  0.45452561  0.10749959  1  0.097264  0.000217  0.102753  0.111106  6.4e-05  1.020718  0.0
H  H12  1  0.61823090  0.73093606  0.08293492  1  0.087089  0.000293  0.105951  0.1136  5.7e-05  1.016234  0.0
H  H13  1  0.73482027  0.68881410  0.99043124  1  0.089716  0.000165  0.098515  0.1012  5.5e-05  1.024104  0.0
H  H14  1  0.71428899  0.24257253  0.18821128  1  0.120557  0.001371  0.128232  0.060406  0.000393  0.996557  0.001
H  H15  1  0.74121297  0.42772670  0.15290677  1  0.092485  0.000257  0.111495  0.128833  -4.3e-05  0.999328  0.0
H  H16  1  0.74023656  0.43583231  0.06893735  1  0.090947  0.000303  0.104218  0.120965  9.5e-05  1.010871  0.0
H  H17  1  0.59302538  0.41755104  0.10375430  1  0.086701  0.001557  0.10203  0.118915  0.000597  1.021296  0.001
H  H18  1  0.09612090  0.02581291  0.34222272  1  0.107613  0.000255  0.113075  0.124777  9e-05  0.980072  0.0
H  H19  1  0.50205907  0.20173890  0.01747678  1  0.071112  0.000946  0.106284  0.122481  0.000323  1.003447  0.001
H  H20  1  0.66097906  0.22288623  0.99519343  1  0.073097  0.000757  0.108968  0.127637  0.00024  0.981722  0.0
H  H21  1  0.58111559  0.07989696  0.02961915  1  0.094188  0.000231  0.112136  0.128038  -6.6e-05  1.020117  0.0
H  H22  1  0.05377920  0.67778763  0.11181396  1  0.103141  0.00018  0.108092  0.121504  -3.7e-05  1.031659  0.0
H  H23  1  0.05416040  0.76966831  0.00815738  1  0.085707  3.7e-05  0.094724  0.093086  -2.7e-05  1.076034  0.0
H  H24  1  0.03650828  0.73782890  0.88931663  1  0.098006  0.000413  0.105714  0.111722  0.000154  0.998461  0.0
H  H25  1  0.26556360  0.03607346  0.03467820  1  0.117504  0.000346  0.103483  0.109113  9.6e-05  1.01577  0.0
H  H26  1  0.19848660  0.07597237  0.92372011  1  0.095623  0.000207  0.104014  0.111437  1.6e-05  1.006639  0.0
H  H27  1  0.54548933  0.74409131  0.39248945  1  0.097347  0.000217  0.102724  0.111198  6.4e-05  1.020605  0.0
H  H28  1  0.26905655  0.38177233  0.41705697  1  0.087039  0.000293  0.10592  0.113598  5.6e-05  1.016126  0.0
H  H29  1  0.31117525  0.26517670  0.50956031  1  0.089601  0.000165  0.098562  0.101301  5.5e-05  1.024122  0.0
H  H30  1  0.75741227  0.28569268  0.31177800  1  0.119986  0.00137  0.128315  0.060551  0.000393  0.99637  0.001
H  H31  1  0.57225381  0.25876158  0.34708313  1  0.092132  0.000257  0.111476  0.128907  -4.3e-05  0.999352  0.0
H  H32  1  0.56415596  0.25972921  0.43105815  1  0.091103  0.000303  0.10421  0.12096  9.5e-05  1.010692  0.0
H  H33  1  0.58242282  0.40694675  0.39624250  1  0.086283  0.001557  0.10198  0.118931  0.000596  1.021408  0.001
H  H34  1  0.97420919  0.90390288  0.15777673  1  0.107729  0.000255  0.113163  0.124872  9e-05  0.980121  0.0
H  H35  1  0.79824241  0.49793468  0.48251460  1  0.071195  0.000946  0.106222  0.122397  0.000323  1.003471  0.001
H  H36  1  0.77709535  0.33901165  0.50480360  1  0.075127  0.000756  0.108967  0.127663  0.00024  0.98165  0.0
H  H37  1  0.92009364  0.41887961  0.47037826  1  0.09427  0.000231  0.11218  0.128164  -6.6e-05  1.019976  0.0
H  H38  1  0.67777274  0.05378573  0.61180701  1  0.103386  0.000181  0.108095  0.121555  -3.6e-05  1.031769  0.0
H  H39  1  0.76964761  0.05417151  0.50813160  1  0.086026  3.8e-05  0.094775  0.093091  -2.7e-05  1.076086  0.0
H  H40  1  0.73779474  0.03648275  0.38930391  1  0.097786  0.000413  0.105771  0.11175  0.000154  0.998628  0.0
H  H41  1  0.03608756  0.26557085  0.53467494  1  0.117473  0.000346  0.103434  0.109038  9.6e-05  1.015801  0.0
H  H42  1  0.07599306  0.19849546  0.42373213  1  0.095471  0.000207  0.104008  0.111526  1.6e-05  1.006618  0.0
H  H43  1  0.74408712  0.54545115  0.89249672  1  0.097557  0.000218  0.102726  0.111054  6.4e-05  1.020771  0.0
H  H44  1  0.38177221  0.26902863  0.91706675  1  0.086901  0.000294  0.105911  0.11356  5.7e-05  1.016153  0.0
H  H45  1  0.26515461  0.31118291  0.00955599  1  0.089491  0.000165  0.098638  0.101421  5.5e-05  1.023762  0.0
H  H46  1  0.28572607  0.75737181  0.81176066  1  0.107934  0.001391  0.128208  0.060369  0.000393  0.996411  0.001
H  H47  1  0.25878048  0.57222581  0.84708102  1  0.09238  0.000256  0.111475  0.128875  -4.3e-05  0.999192  0.0
H  H48  1  0.25975685  0.56415085  0.93105201  1  0.090855  0.000304  0.104196  0.120913  9.5e-05  1.010815  0.0
H  H49  1  0.40696510  0.58240332  0.89623815  1  0.08614  0.001557  0.101999  0.118807  0.000597  1.021663  0.001
H  H50  1  0.90390851  0.97422582  0.65778035  1  0.107729  0.000255  0.113182  0.124914  9e-05  0.980266  0.0
H  H51  1  0.49793731  0.79825542  0.98250764  1  0.0712  0.000947  0.106196  0.122455  0.000323  1.00351  0.001
H  H52  1  0.33901638  0.77711247  0.00478598  1  0.075826  0.000756  0.10892  0.127659  0.00024  0.981618  0.0
H  H53  1  0.41888480  0.92009401  0.97035161  1  0.094161  0.000231  0.112134  0.128093  -6.6e-05  1.020069  0.0
H  H54  1  0.94618958  0.32226313  0.88820031  1  0.103814  0.00018  0.10814  0.121616  -3.6e-05  1.031683  0.0
H  H55  1  0.94581217  0.23039562  0.99187052  1  0.080859  3.7e-05  0.094917  0.093269  -2.7e-05  1.075936  0.0
H  H56  1  0.96348288  0.26223611  0.11070661  1  0.097021  0.000414  0.10583  0.111864  0.000154  0.99838  0.0
H  H57  1  0.73443360  0.96391171  0.96532753  1  0.117522  0.000346  0.103381  0.108927  9.6e-05  1.015653  0.0
H  H58  1  0.80151657  0.92402494  0.07626907  1  0.095576  0.000207  0.104064  0.111583  1.6e-05  1.006735  0.0
H  H59  1  0.45450399  0.25592616  0.60751018  1  0.097281  0.000218  0.102682  0.111184  6.4e-05  1.020636  0.0
H  H60  1  0.73092793  0.61823960  0.58295043  1  0.087928  0.000293  0.106012  0.113672  5.7e-05  1.016035  0.0
H  H61  1  0.68880730  0.73483187  0.49044398  1  0.089642  0.000165  0.098513  0.101143  5.5e-05  1.024014  0.0
H  H62  1  0.24258984  0.71434886  0.68822002  1  0.120095  0.001368  0.128171  0.060619  0.000392  0.996313  0.001
H  H63  1  0.42774546  0.74125778  0.65290368  1  0.092325  0.000256  0.111471  0.128745  -4.3e-05  0.999448  0.0
H  H64  1  0.43582375  0.74027855  0.56893320  1  0.091034  0.000303  0.104204  0.12085  9.5e-05  1.010739  0.0
H  H65  1  0.41756955  0.59308253  0.60375250  1  0.087222  0.001555  0.101936  0.118812  0.000596  1.021315  0.001
H  H66  1  0.02578130  0.09607660  0.84221277  1  0.107444  0.000255  0.113202  0.124926  9e-05  0.98018  0.0
H  H67  1  0.20173717  0.50205807  0.51749581  1  0.070865  0.000946  0.106191  0.122463  0.000322  1.00341  0.001
H  H68  1  0.22286675  0.66096373  0.49519462  1  0.073213  0.000756  0.108989  0.127641  0.000239  0.981671  0.0
H  H69  1  0.07988204  0.58110729  0.52963259  1  0.093789  0.000231  0.112113  0.128016  -6.6e-05  1.020288  0.0
C  C70  1  0.43555693  0.98420104  0.48278790  1  -0.077484  -0.00072  -0.005788  0.068401  -0.000893  4.003467  0.0
C  C71  1  0.41960440  0.97115214  0.41505955  1  -0.014624  -0.001496  -0.072861  -0.129041  -0.002176  3.886489  -0.001
C  C72  1  0.50955148  0.98579319  0.31176319  1  1.507987  -0.002913  0.212965  0.583035  -0.005141  4.138888  -0.002
C  C73  1  0.32768152  0.96739096  0.51799991  1  -0.061856  -0.000126  -0.090145  -0.131392  -0.000288  3.978182  0.0
C  C74  1  0.52717675  0.99151154  0.38220889  1  -0.004036  0.000386  -0.013896  -0.027906  -0.000491  3.995201  0.0
C  C75  1  0.34513546  0.97750013  0.58380839  1  -0.036276  0.000797  -0.085352  -0.101197  0.000285  3.976262  0.001
C  C76  1  0.98266926  0.93297076  0.50574506  1  -0.059873  -0.000288  -0.005999  0.071252  -0.000427  4.001891  0.0
C  C77  1  0.05852763  0.77159686  0.35184923  1  1.546719  -0.003782  0.221788  0.603833  -0.005136  4.146383  -0.003
C  C78  1  0.98881011  0.83622418  0.45687010  1  -0.088614  -0.00159  -0.082722  -0.152156  -0.002131  3.93848  -0.001
C  C79  1  0.03176254  0.86974766  0.39948077  1  0.017524  0.008423  -0.016777  -0.031333  0.004285  3.973764  0.007
C  C80  1  0.94526825  0.90232610  0.56632866  1  -0.078766  -3.8e-05  -0.088718  -0.136668  -0.00024  3.982794  0.0
C  C81  1  0.55125567  0.56015740  0.01053244  1  0.003666  -0.000604  -0.011725  0.056134  -0.000766  4.036015  0.0
C  C82  1  0.33742576  0.48112707  0.07998842  1  -0.021232  0.000529  -0.087212  -0.094479  1.3e-05  3.98107  0.0
C  C83  1  0.43736795  0.60119711  0.10023665  1  -0.077969  0.009695  -0.018996  -0.032858  0.005014  3.979021  0.008
C  C84  1  0.54271922  0.63829863  0.06642087  1  -0.033709  -0.002412  -0.081222  -0.148708  -0.002998  3.954375  -0.001
C  C85  1  0.42417925  0.69383748  0.15466897  1  1.565014  -0.005074  0.217787  0.595067  -0.006454  4.172072  -0.004
C  C86  1  0.65693775  0.59748555  0.97419604  1  -0.072521  -3.3e-05  -0.091139  -0.137445  -0.000251  3.988052  0.0
C  C87  1  0.66834483  0.18240943  0.14202801  1  1.324949  0.010877  0.184456  0.297464  0.007524  4.07745  0.007
C  C88  1  0.68380109  0.39117335  0.10563050  1  0.233148  0.000519  -0.130968  -0.279942  0.000339  3.89141  0.0
C  C89  1  0.06377201  0.00212718  0.38794788  1  -0.078128  0.000584  -0.083229  -0.096358  4.2e-05  3.982718  0.0
C  C90  1  0.59593178  0.18438831  0.03014230  1  0.23444  2.3e-05  -0.127837  -0.267121  -0.000244  3.863518  0.0
C  C91  1  0.01577732  0.56449330  0.01721218  1  -0.076571  -0.000721  -0.005832  0.068419  -0.000894  4.003484  0.0
C  C92  1  0.02882205  0.58043704  0.08494080  1  -0.003422  -0.001497  -0.072701  -0.128927  -0.002173  3.886355  -0.001
C  C93  1  0.01418980  0.49049275  0.18824542  1  1.507288  -0.002908  0.213013  0.582957  -0.005134  4.139035  -0.002
C  C94  1  0.03260350  0.67235998  0.98199799  1  -0.062111  -0.000124  -0.089977  -0.131156  -0.000286  3.978712  0.0
C  C95  1  0.00846354  0.47286728  0.11779601  1  -0.014158  0.000388  -0.013846  -0.027608  -0.000491  3.99473  0.0
C  C96  1  0.02250602  0.65489349  0.91619373  1  -0.036776  0.000796  -0.085295  -0.101168  0.000284  3.977378  0.001
C  C97  1  0.06705073  0.01735314  0.99426600  1  -0.059394  -0.000285  -0.005923  0.071303  -0.000424  4.001753  0.0
C  C98  1  0.22842722  0.94150092  0.14815187  1  1.546542  -0.003773  0.221574  0.60392  -0.005125  4.145787  -0.003
C  C99  1  0.16379760  0.01119648  0.04313186  1  -0.089398  -0.001593  -0.082785  -0.152234  -0.002134  3.938803  -0.001
C  C100  1  0.13027556  0.96826179  0.10051942  1  0.018302  0.008426  -0.016667  -0.031222  0.004287  3.973862  0.007
C  C101  1  0.09768939  0.05473150  0.93367477  1  -0.078714  -4e-05  -0.088714  -0.136537  -0.000241  3.98256  0.0
C  C102  1  0.43982773  0.44874360  0.48947082  1  0.002823  -0.000602  -0.011919  0.056101  -0.000764  4.035825  0.0
C  C103  1  0.51887822  0.66255626  0.42000488  1  -0.012613  0.000523  -0.087272  -0.094947  1.2e-05  3.981296  0.0
C  C104  1  0.39880506  0.56262724  0.39976045  1  -0.086656  0.009702  -0.018987  -0.032678  0.005015  3.978795  0.008
C  C105  1  0.36169066  0.45727950  0.43357773  1  -0.032741  -0.002418  -0.081069  -0.148546  -0.003003  3.953815  -0.001
C  C106  1  0.30617714  0.57581883  0.34532264  1  1.565026  -0.005081  0.218017  0.595159  -0.006463  4.171877  -0.004
C  C107  1  0.40249069  0.34306735  0.52580473  1  -0.072497  -3.5e-05  -0.091251  -0.137731  -0.000252  3.988724  0.0
C  C108  1  0.81757498  0.33164203  0.35796391  1  1.325038  0.010872  0.184229  0.297188  0.007519  4.077702  0.007
C  C109  1  0.60880387  0.31617150  0.39436241  1  0.234199  0.000519  -0.130992  -0.280149  0.000339  3.891368  0.0
C  C110  1  0.99790397  0.93624883  0.11205660  1  -0.078763  0.000583  -0.083417  -0.096582  4.1e-05  3.98297  0.0
C  C111  1  0.81560036  0.40406004  0.46985282  1  0.232173  2.3e-05  -0.127952  -0.26735  -0.000245  3.863193  0.0
C  C112  1  0.56452639  0.01581440  0.51718839  1  -0.024361  -0.000736  -0.005992  0.068158  -0.000904  4.004052  0.0
C  C113  1  0.58044572  0.02884288  0.58492012  1  -0.013795  -0.001471  -0.072892  -0.129159  -0.002151  3.886419  -0.001
C  C114  1  0.49051491  0.01421682  0.68825920  1  1.506952  -0.002856  0.212731  0.582544  -0.005084  4.13974  -0.001
C  C115  1  0.67236375  0.03259981  0.48197504  1  -0.061871  -0.000114  -0.089953  -0.130856  -0.000278  3.979469  0.0
C  C116  1  0.47287907  0.00847954  0.61779261  1  -0.003022  0.000368  -0.013966  -0.02785  -0.000505  3.993601  0.0
C  C117  1  0.65489015  0.02250125  0.41618405  1  -0.036805  0.000787  -0.085316  -0.101265  0.000277  3.978455  0.001
C  C118  1  0.01735921  0.06703889  0.49425504  1  0.008801  -0.000289  -0.005913  0.071345  -0.000428  4.001881  0.0
C  C119  1  0.94149390  0.22844592  0.64816262  1  1.546414  -0.003788  0.221858  0.60412  -0.005141  4.14561  -0.003
C  C120  1  0.01121157  0.16379458  0.54312350  1  -0.098428  -0.001584  -0.082646  -0.151809  -0.002126  3.938221  -0.001
C  C121  1  0.96825717  0.13028256  0.60051521  1  0.018691  0.008426  -0.016767  -0.031624  0.004287  3.973519  0.007
C  C122  1  0.05473287  0.09769468  0.43367249  1  -0.07903  -3.5e-05  -0.088856  -0.137035  -0.000237  3.983132  0.0
C  C123  1  0.44873079  0.43983749  0.98947229  1  -0.048105  -0.000603  -0.011943  0.055931  -0.000765  4.035774  0.0
C  C124  1  0.66255393  0.51885184  0.92000853  1  -0.021308  0.000529  -0.087256  -0.094533  1.3e-05  3.981442  0.0
C  C125  1  0.56263316  0.39878182  0.89976896  1  -0.077071  0.009702  -0.019176  -0.033199  0.005019  3.979451  0.008
C  C126  1  0.45727994  0.36167784  0.93358498  1  -0.03255  -0.002413  -0.081089  -0.148407  -0.002998  3.953859  -0.001
C  C127  1  0.57586865  0.30612321  0.84534804  1  1.564673  -0.005083  0.218216  0.595463  -0.006468  4.171728  -0.004
C  C128  1  0.34305071  0.40249697  0.02580249  1  -0.072115  -3.3e-05  -0.091296  -0.137827  -0.00025  3.988161  0.0
C  C129  1  0.33166044  0.81754957  0.85794466  1  1.336703  0.010852  0.184464  0.297322  0.007517  4.078009  0.007
C  C130  1  0.31619528  0.60878749  0.89435740  1  0.234066  0.000517  -0.13096  -0.279869  0.000337  3.891581  0.0
C  C131  1  0.93627494  0.99791971  0.61205888  1  -0.079087  0.000585  -0.083442  -0.096723  4.2e-05  3.983087  0.0
C  C132  1  0.40406367  0.81560204  0.96983572  1  0.230743  2.3e-05  -0.127831  -0.267368  -0.000245  3.863612  0.0
C  C133  1  0.98416501  0.43552977  0.98281489  1  -0.02551  -0.000734  -0.005903  0.06813  -0.000902  4.00368  0.0
C  C134  1  0.97113201  0.41960079  0.91508338  1  -0.013616  -0.001473  -0.072925  -0.129085  -0.002153  3.886526  -0.001
C  C135  1  0.98577427  0.50951206  0.81174875  1  1.507333  -0.002867  0.21276  0.582545  -0.005091  4.139318  -0.002
C  C136  1  0.96736814  0.32768231  0.01802638  1  -0.055473  -0.000114  -0.090066  -0.131082  -0.000278  3.979365  0.0
C  C137  1  0.99151797  0.52716324  0.88221503  1  -0.003838  0.000372  -0.014015  -0.027926  -0.000502  3.99452  0.0
C  C138  1  0.97748132  0.34514624  0.08381950  1  -0.036215  0.000788  -0.08571  -0.10174  0.000278  3.978088  0.001
C  C139  1  0.93298244  0.98265783  0.00575898  1  0.00759  -0.000291  -0.006106  0.071273  -0.00043  4.00161  0.0
C  C140  1  0.77155064  0.05847100  0.85182997  1  1.546095  -0.003795  0.221918  0.604102  -0.00515  4.144953  -0.003
C  C141  1  0.83622394  0.98879703  0.95688311  1  -0.097373  -0.001578  -0.082499  -0.151609  -0.00212  3.937788  -0.001
C  C142  1  0.86972067  0.03172866  0.89948417  1  0.018613  0.008425  -0.016819  -0.031761  0.004286  3.973505  0.007
C  C143  1  0.90232042  0.94527794  0.06633948  1  -0.078669  -3.3e-05  -0.088782  -0.136971  -0.000235  3.983102  0.0
C  C144  1  0.56014995  0.55125975  0.51053248  1  -0.047149  -0.000605  -0.011862  0.055988  -0.000767  4.035941  0.0
C  C145  1  0.48110433  0.33746160  0.57999847  1  -0.012119  0.000525  -0.087061  -0.094622  1.4e-05  3.981543  0.001
C  C146  1  0.60118040  0.43737662  0.60024658  1  -0.086619  0.009704  -0.018999  -0.032847  0.005017  3.978679  0.008
C  C147  1  0.63828602  0.54272912  0.56642721  1  -0.034529  -0.002408  -0.081315  -0.148761  -0.002992  3.953986  -0.001
C  C148  1  0.69381517  0.42415831  0.65468526  1  1.564635  -0.005071  0.218096  0.595118  -0.006456  4.171571  -0.004
C  C149  1  0.59748892  0.65694217  0.47419994  1  -0.072154  -3.1e-05  -0.091105  -0.137286  -0.000249  3.98811  0.0
C  C150  1  0.18240464  0.66836657  0.64204023  1  1.324659  0.010868  0.184271  0.296784  0.007514  4.078002  0.007
C  C151  1  0.39118071  0.68384425  0.60563101  1  0.232705  0.000519  -0.130929  -0.279706  0.000338  3.89108  0.0
C  C152  1  0.00209621  0.06372891  0.88794276  1  -0.078284  0.000586  -0.083525  -0.096837  4.3e-05  3.982958  0.0
C  C153  1  0.18437828  0.59593151  0.53015323  1  0.234488  2.2e-05  -0.127872  -0.267285  -0.000245  3.86337  0.0
N  N154  1  0.65391027  0.25003230  0.09412507  1  -1.228846  0.020354  -0.273328  0.047807  0.009983  3.724093  0.017
N  N155  1  0.74994883  0.34607130  0.40586723  1  -1.229205  0.020353  -0.273027  0.048112  0.009982  3.723622  0.017
N  N156  1  0.34609399  0.74992730  0.90585230  1  -1.22837  0.020361  -0.273179  0.048075  0.009986  3.723812  0.017
N  N157  1  0.25003568  0.65393973  0.59413540  1  -1.228213  0.02034  -0.273089  0.048201  0.009976  3.723238  0.017
O  O158  1  0.40189555  0.92159618  0.27711088  1  -1.168212  0.106767  -0.300179  -0.584737  0.056123  2.51311  0.093
O  O159  1  0.14099664  0.81796322  0.31525637  1  -1.144955  0.066912  -0.296936  -0.553959  0.035182  2.387117  0.058
O  O160  1  0.60236248  0.04956780  0.28279654  1  -1.143088  0.085664  -0.317387  -0.563858  0.04407  2.220148  0.067
O  O161  1  0.51668066  0.80272645  0.16673527  1  -1.152011  0.092264  -0.326231  -0.566541  0.046262  2.388759  0.075
O  O162  1  0.63421819  0.05915482  0.13604439  1  -1.11909  0.049927  -0.310832  -0.474289  0.024469  2.401927  0.033
O  O163  1  0.32253146  0.66171177  0.18167372  1  -1.145361  0.068003  -0.298733  -0.558018  0.034946  2.384345  0.061
O  O164  1  0.00044707  0.64990023  0.35415809  1  -1.149941  0.085509  -0.32914  -0.584667  0.043704  2.348893  0.067
O  O165  1  0.07842203  0.59815411  0.22288985  1  -1.16753  0.106753  -0.300005  -0.584493  0.05611  2.513147  0.093
O  O166  1  0.18207322  0.85906445  0.18475560  1  -1.144603  0.06694  -0.296813  -0.553991  0.035195  2.387027  0.058
O  O167  1  0.95041551  0.39765495  0.21719698  1  -1.143235  0.085618  -0.317358  -0.563853  0.044044  2.22  0.067
O  O168  1  0.19726639  0.48333437  0.33327402  1  -1.151772  0.09226  -0.326233  -0.566589  0.046269  2.389074  0.075
O  O169  1  0.94082760  0.36576871  0.36395558  1  -1.118843  0.049911  -0.310738  -0.474145  0.02446  2.402015  0.033
O  O170  1  0.33832093  0.67744834  0.31829604  1  -1.145595  0.068015  -0.298912  -0.558103  0.034956  2.383867  0.061
O  O171  1  0.35012990  0.99952272  0.14584415  1  -1.150346  0.085536  -0.329063  -0.584706  0.043714  2.348715  0.067
O  O172  1  0.59822483  0.07844453  0.72287099  1  -1.168065  0.106683  -0.299844  -0.584173  0.056078  2.514029  0.093
O  O173  1  0.85900731  0.18210578  0.68475356  1  -1.144714  0.066963  -0.296841  -0.553909  0.035214  2.387198  0.058
O  O174  1  0.39759494  0.95043231  0.71717341  1  -1.14241  0.085551  -0.317177  -0.563661  0.044014  2.219879  0.067
O  O175  1  0.48339235  0.19720083  0.83332289  1  -1.152455  0.092349  -0.326348  -0.566795  0.046298  2.389337  0.075
O  O176  1  0.36572655  0.94079491  0.86392846  1  -1.118017  0.04986  -0.310962  -0.474322  0.024442  2.402061  0.033
O  O177  1  0.67746308  0.33826254  0.81829587  1  -1.145655  0.068039  -0.298798  -0.557911  0.03497  2.384396  0.061
O  O178  1  0.99955983  0.35013900  0.64585140  1  -1.150689  0.085538  -0.32923  -0.584835  0.043706  2.34909  0.067
O  O179  1  0.92157018  0.40179597  0.77713319  1  -1.168107  0.106709  -0.29986  -0.584219  0.056087  2.5134  0.093
O  O180  1  0.81789757  0.14098698  0.81524936  1  -1.144114  0.066952  -0.2969  -0.553981  0.035209  2.386956  0.058
O  O181  1  0.04955227  0.60240014  0.78281982  1  -1.142166  0.085595  -0.317188  -0.563579  0.044035  2.219899  0.067
O  O182  1  0.80272004  0.51664840  0.66673576  1  -1.15157  0.092287  -0.326304  -0.566479  0.046279  2.388825  0.075
O  O183  1  0.05915293  0.63424012  0.63605713  1  -1.118519  0.049878  -0.310758  -0.474079  0.024448  2.40181  0.033
O  O184  1  0.66169285  0.32253260  0.68171222  1  -1.145749  0.068022  -0.298886  -0.557909  0.034959  2.383883  0.061
O  O185  1  0.64986554  0.00033094  0.85414715  1  -1.150699  0.085536  -0.32917  -0.584679  0.043703  2.348476  0.067
