# generated using pymatgen
data_GdCu2H8C8N6ClO12
_symmetry_space_group_name_H-M   'P 1'
_cell_length_a   6.29434402
_cell_length_b   11.32738428
_cell_length_c   12.29485314
_cell_angle_alpha   102.27796685
_cell_angle_beta   89.99858676
_cell_angle_gamma   89.99991386
_symmetry_Int_Tables_number   1
_chemical_formula_structural   GdCu2H8C8N6ClO12
_chemical_formula_sum   'Gd2 Cu4 H16 C16 N12 Cl2 O24'
_cell_volume   856.55382259
_cell_formula_units_Z   2
loop_
 _symmetry_equiv_pos_site_id
 _symmetry_equiv_pos_as_xyz
  1  'x, y, z'
loop_
 _atom_site_type_symbol
 _atom_site_label
 _atom_site_symmetry_multiplicity
 _atom_site_fract_x
 _atom_site_fract_y
 _atom_site_fract_z
 _atom_site_occupancy
 _atom_site_hle17_ddec_charge
 _atom_site_hle17_ddec_spin_density
 _atom_site_hle17_ddec_sum_bond_order
 _atom_site_hle17_magmom
 _atom_site_hse06_10hf_ddec_charge
 _atom_site_hse06_10hf_ddec_spin_density
 _atom_site_hse06_10hf_ddec_sum_bond_order
 _atom_site_hse06_10hf_magmom
 _atom_site_hse06_ddec_charge
 _atom_site_hse06_ddec_spin_density
 _atom_site_hse06_ddec_sum_bond_order
 _atom_site_hse06_magmom
 _atom_site_pbe_cm5_charge
 _atom_site_pbe_ddec_charge
 _atom_site_pbe_ddec_spin_density
 _atom_site_pbe_ddec_sum_bond_order
 _atom_site_pbe_magmom
Gd  Gd0  1  0.51794092  0.74999724  0.50000101  1  2.26585  -0.000906  1.777005  -0.001  2.192532  -0.001002  2.116083  -0.001  2.233669  -0.000585  2.073567  -0.001  1.492676  2.158326  -0.001429  2.153024  -0.002
Gd  Gd1  1  0.48206669  0.25000324  0.49999955  1  2.265774  0.000907  1.777091  0.001  2.19245  0.001004  2.116152  0.001  2.233587  0.000585  2.073634  0.001  1.49264  2.158242  0.001431  2.153118  0.002
Cu  Cu2  1  0.13209544  0.38686947  0.08009341  1  0.721753  -0.666305  2.078426  -0.484  0.693217  -0.783532  2.502163  -0.622  0.784414  -0.870361  2.429211  -0.719  0.744702  0.638783  -0.696829  2.551317  -0.54
Cu  Cu3  1  0.13197134  0.11312021  0.91986192  1  0.721577  -0.666403  2.078566  -0.484  0.693199  -0.783489  2.502213  -0.622  0.784393  -0.870297  2.42928  -0.719  0.744717  0.638731  -0.696835  2.551422  -0.54
Cu  Cu4  1  0.86790899  0.61312746  0.91990314  1  0.721652  0.666312  2.078411  0.484  0.693143  0.783534  2.502166  0.622  0.78427  0.870343  2.429219  0.719  0.744653  0.638653  0.696828  2.551303  0.54
Cu  Cu5  1  0.86802832  0.88688027  0.08013864  1  0.721473  0.666398  2.078589  0.484  0.693069  0.783491  2.502261  0.622  0.784274  0.870298  2.429314  0.719  0.744651  0.63859  0.696818  2.551414  0.54
H  H6  1  0.72212685  0.53027535  0.53914240  1  0.440301  -0.000121  0.855088  0.0  0.409944  -5.9e-05  0.918428  0.0  0.421446  -3.8e-05  0.901383  0.0  0.306987  0.401805  -6.7e-05  0.930459  0.0
H  H7  1  0.72212637  0.96973249  0.46087688  1  0.440412  -0.000121  0.854934  0.0  0.409977  -5.9e-05  0.918371  0.0  0.421477  -3.8e-05  0.901331  0.0  0.306981  0.40184  -6.7e-05  0.9304  0.0
H  H8  1  0.27787916  0.46972249  0.46085353  1  0.440301  0.000121  0.855091  0.0  0.409937  5.8e-05  0.918443  0.0  0.421443  3.8e-05  0.901391  0.0  0.306997  0.401796  6.7e-05  0.930476  0.0
H  H9  1  0.27787647  0.03027334  0.53912887  1  0.440472  0.000121  0.854856  0.0  0.410011  5.8e-05  0.918328  0.0  0.42151  3.8e-05  0.901289  0.0  0.30698  0.401872  6.6e-05  0.930358  0.0
H  H10  1  0.79162538  0.54261741  0.41864988  1  0.431245  -0.0  0.87191  0.0  0.401489  7e-06  0.93438  0.0  0.413152  -3e-06  0.917342  0.0  0.298964  0.393202  2.3e-05  0.946434  0.0
H  H11  1  0.79157480  0.95738466  0.58137217  1  0.431259  0.0  0.871914  0.0  0.401568  7e-06  0.934298  0.0  0.413202  -3e-06  0.917284  0.0  0.298996  0.393296  2.3e-05  0.946348  0.0
H  H12  1  0.20837745  0.45738491  0.58134944  1  0.431243  -1e-06  0.871931  0.0  0.401447  -7e-06  0.93445  0.0  0.413113  3e-06  0.917411  0.0  0.298919  0.393165  -2.3e-05  0.946495  0.0
H  H13  1  0.20842168  0.04261490  0.41862901  1  0.431221  -1e-06  0.871982  0.0  0.401514  -7e-06  0.934388  0.0  0.41315  3e-06  0.917371  0.0  0.298967  0.393237  -2.3e-05  0.94644  0.0
H  H14  1  0.72634949  0.63997090  0.26910064  1  0.454349  -2.9e-05  0.806146  0.0  0.42971  -1.4e-05  0.866311  0.0  0.437158  -1.4e-05  0.855561  0.0  0.324037  0.424403  -6e-06  0.873981  0.0
H  H15  1  0.72628745  0.86003884  0.73091330  1  0.454208  -2.9e-05  0.806131  0.0  0.429564  -1.4e-05  0.866478  0.0  0.437014  -1.4e-05  0.855726  0.0  0.324004  0.424256  -6e-06  0.874149  0.0
H  H16  1  0.27364858  0.36003225  0.73090292  1  0.454313  2.9e-05  0.806096  0.0  0.429675  1.4e-05  0.866339  0.0  0.437123  1.4e-05  0.85559  0.0  0.324001  0.424367  6e-06  0.874009  0.0
H  H17  1  0.27371539  0.13996807  0.26908292  1  0.45422  2.9e-05  0.806143  0.0  0.429534  1.4e-05  0.866532  0.0  0.436981  1.4e-05  0.855783  0.0  0.323961  0.424232  6e-06  0.874195  0.0
H  H18  1  0.70084840  0.78326128  0.27657220  1  0.448132  -1.9e-05  0.840432  0.0  0.416434  4e-05  0.90501  0.0  0.426653  -2.5e-05  0.890249  0.0  0.306219  0.409294  0.000119  0.915363  0.0
H  H19  1  0.70078719  0.71675291  0.72345196  1  0.447999  -1.8e-05  0.840601  0.0  0.416294  4e-05  0.905189  0.0  0.426508  -2.5e-05  0.890441  0.0  0.306156  0.409152  0.000119  0.915544  0.0
H  H20  1  0.29915444  0.21674283  0.72342831  1  0.448125  1.8e-05  0.840454  0.0  0.416441  -4e-05  0.905012  0.0  0.42666  2.5e-05  0.890252  0.0  0.306236  0.409304  -0.000119  0.915363  0.0
H  H21  1  0.29921882  0.28325477  0.27655175  1  0.448223  1.8e-05  0.840297  0.0  0.4165  -4.1e-05  0.904922  0.0  0.426717  2.5e-05  0.890166  0.0  0.306268  0.40936  -0.000119  0.915278  0.0
C  C22  1  0.28713293  0.53761195  0.27696422  1  0.685516  0.005716  3.829706  0.009  0.635867  0.00113  4.130461  0.004  0.674411  0.000917  4.121144  0.003  0.240475  0.609353  0.001099  4.137001  0.004
C  C23  1  0.28706139  0.96236959  0.72300469  1  0.685917  0.005726  3.829574  0.009  0.636229  0.001128  4.130309  0.004  0.674779  0.000916  4.120943  0.003  0.240593  0.609704  0.001098  4.136894  0.004
C  C24  1  0.71288261  0.46238845  0.72304039  1  0.685325  -0.005725  3.829735  -0.009  0.635841  -0.001135  4.130243  -0.004  0.674388  -0.000918  4.120928  -0.003  0.240501  0.609317  -0.001101  4.136792  -0.004
C  C25  1  0.71293350  0.03762567  0.27698419  1  0.685694  -0.005713  3.829847  -0.009  0.636189  -0.001134  4.130333  -0.004  0.674757  -0.000918  4.120973  -0.003  0.240606  0.609654  -0.0011  4.136911  -0.004
C  C26  1  0.20174185  0.62053029  0.20901591  1  -0.005475  0.002764  3.668926  0.003  -0.007479  0.002306  3.919343  0.003  -0.005847  0.002252  3.930482  0.003  0.10217  -0.008401  0.002461  3.912438  0.003
C  C27  1  0.20173889  0.87946029  0.79097309  1  -0.005909  0.002714  3.668972  0.003  -0.00769  0.002301  3.91904  0.003  -0.00597  0.002249  3.930045  0.003  0.10213  -0.00862  0.002454  3.912171  0.003
C  C28  1  0.79826257  0.37947217  0.79097612  1  -0.005596  -0.002763  3.669272  -0.003  -0.007558  -0.002301  3.919653  -0.003  -0.005937  -0.00225  3.930799  -0.003  0.102213  -0.008464  -0.002457  3.912747  -0.003
C  C29  1  0.79825441  0.12054016  0.20902908  1  -0.005742  -0.00278  3.669012  -0.003  -0.007611  -0.002296  3.919135  -0.003  -0.005952  -0.002245  3.930216  -0.003  0.102122  -0.008529  -0.002452  3.912265  -0.003
C  C30  1  0.21334646  0.85372787  0.30495825  1  0.706368  0.000562  3.88214  0.001  0.658512  0.000331  4.17641  0.0  0.693477  0.000219  4.163719  0.0  0.237168  0.634526  0.000418  4.184278  0.001
C  C31  1  0.21330430  0.64626906  0.69502788  1  0.706199  0.00056  3.882622  0.001  0.658418  0.000331  4.176683  0.0  0.693357  0.000218  4.164024  0.0  0.237131  0.634462  0.000418  4.184522  0.001
C  C32  1  0.78664685  0.14627353  0.69504169  1  0.706188  -0.000573  3.882045  -0.001  0.658393  -0.000333  4.176282  0.0  0.693355  -0.00022  4.163597  0.0  0.23715  0.634404  -0.000419  4.184166  -0.001
C  C33  1  0.78667789  0.35372777  0.30497354  1  0.706127  -0.000575  3.882419  -0.001  0.65826  -0.000334  4.176682  0.0  0.693206  -0.00022  4.164011  0.0  0.237029  0.634307  -0.000419  4.184524  -0.001
C  C34  1  0.15843429  0.74410916  0.21849019  1  0.035565  0.000943  3.644173  0.003  0.034809  0.001695  3.89147  0.003  0.038736  0.000384  3.900839  0.002  0.11603  0.031721  0.002745  3.886013  0.004
C  C35  1  0.15842107  0.75588322  0.78150869  1  0.035667  0.000981  3.644498  0.003  0.035002  0.001692  3.891433  0.003  0.038905  0.000383  3.900778  0.002  0.116043  0.031896  0.002742  3.886017  0.004
C  C36  1  0.84156537  0.25589495  0.78151031  1  0.035801  -0.000916  3.643997  -0.002  0.034876  -0.001696  3.891481  -0.003  0.038809  -0.000384  3.90085  -0.002  0.115976  0.0318  -0.002746  3.886032  -0.004
C  C37  1  0.84156271  0.24411823  0.21848881  1  0.035629  -0.000912  3.644284  -0.002  0.03491  -0.001694  3.891379  -0.003  0.038831  -0.000382  3.90074  -0.002  0.116031  0.031807  -0.002743  3.885977  -0.004
N  N38  1  0.11576229  0.56286634  0.11094773  1  -0.200952  -0.054088  3.352521  -0.069  -0.184611  -0.040074  3.688022  -0.055  -0.202913  -0.035155  3.703739  -0.051  -0.254008  -0.174399  -0.039925  3.680429  -0.053
N  N39  1  0.11581650  0.93712060  0.88906032  1  -0.200513  -0.054121  3.352439  -0.069  -0.184199  -0.040088  3.687903  -0.055  -0.202543  -0.035161  3.703633  -0.051  -0.253843  -0.173972  -0.039944  3.680297  -0.053
N  N40  1  0.88424213  0.43712969  0.88904863  1  -0.200746  0.054087  3.352478  0.069  -0.184451  0.040077  3.687992  0.055  -0.20273  0.035158  3.703694  0.051  -0.253922  -0.174214  0.039921  3.680361  0.053
N  N41  1  0.88417680  0.06288075  0.11094205  1  -0.20061  0.054166  3.352312  0.07  -0.184305  0.040085  3.68783  0.055  -0.202632  0.035159  3.703572  0.051  -0.253882  -0.174061  0.039936  3.680205  0.053
N  N42  1  0.02198225  0.64251586  0.06379117  1  -0.040025  0.070168  3.303923  0.088  -0.019799  0.056292  3.638072  0.075  -0.038342  0.047824  3.663328  0.067  -0.141001  -0.010282  0.058382  3.624779  0.075
N  N43  1  0.02207105  0.85747478  0.93623352  1  -0.040256  0.070219  3.304555  0.088  -0.020288  0.0563  3.639024  0.075  -0.038866  0.047828  3.664331  0.067  -0.141199  -0.010759  0.058389  3.625719  0.075
N  N44  1  0.97802059  0.35748280  0.93620982  1  -0.040078  -0.07012  3.303981  -0.087  -0.019839  -0.056281  3.638138  -0.075  -0.038404  -0.047812  3.663419  -0.067  -0.141035  -0.010338  -0.058365  3.624878  -0.075
N  N45  1  0.97793973  0.14252206  0.06376790  1  -0.040235  -0.070184  3.30457  -0.088  -0.020228  -0.05629  3.63898  -0.075  -0.038797  -0.047818  3.664274  -0.067  -0.141181  -0.010717  -0.058375  3.625715  -0.075
N  N46  1  0.04565422  0.75278779  0.12678003  1  -0.21128  0.01333  3.235906  0.017  -0.188648  0.019684  3.544736  0.026  -0.205913  0.017293  3.56359  0.024  -0.236324  -0.177648  0.020057  3.53382  0.026
N  N47  1  0.04570822  0.74719739  0.87323994  1  -0.211385  0.013136  3.236037  0.017  -0.188728  0.019591  3.54489  0.026  -0.205964  0.017214  3.563735  0.024  -0.236221  -0.177731  0.019956  3.533974  0.026
N  N48  1  0.95434385  0.24720992  0.87322319  1  -0.211384  -0.013355  3.235813  -0.017  -0.18871  -0.01968  3.544686  -0.026  -0.205968  -0.01729  3.563537  -0.024  -0.236331  -0.177712  -0.020051  3.533803  -0.026
N  N49  1  0.95429462  0.25279768  0.12675866  1  -0.211327  -0.01319  3.235953  -0.017  -0.188645  -0.019587  3.54479  -0.026  -0.20589  -0.017209  3.563644  -0.024  -0.236153  -0.177652  -0.019954  3.533906  -0.026
Cl  Cl50  1  0.41152180  0.24998991  0.99998711  1  -0.485319  -0.116123  0.951628  -0.139  -0.519108  -0.051006  1.235475  -0.067  -0.553574  -0.033233  1.208739  -0.046  -0.331638  -0.494749  -0.060047  1.253732  -0.075
Cl  Cl51  1  0.58847786  0.75001160  0.00000715  1  -0.485334  0.116113  0.951638  0.139  -0.519102  0.050996  1.235463  0.067  -0.553557  0.033231  1.208727  0.046  -0.331694  -0.494771  0.060059  1.253706  0.075
O  O52  1  0.28542959  0.42482084  0.22705818  1  -0.550817  -0.105773  2.060073  -0.141  -0.51757  -0.069203  2.326407  -0.101  -0.566228  -0.052345  2.323609  -0.08  -0.29493  -0.487572  -0.076448  2.329889  -0.107
O  O53  1  0.28531569  0.07516735  0.77289485  1  -0.550651  -0.105821  2.059846  -0.141  -0.517738  -0.069204  2.326564  -0.101  -0.56636  -0.052342  2.32363  -0.08  -0.294973  -0.487724  -0.076448  2.330036  -0.107
O  O54  1  0.71457643  0.57517351  0.77293132  1  -0.550626  0.105725  2.060368  0.141  -0.517515  0.069185  2.32673  0.101  -0.566135  0.052337  2.323882  0.08  -0.294951  -0.48749  0.076425  2.330137  0.107
O  O55  1  0.71466331  0.92483579  0.22710871  1  -0.550556  0.105773  2.060273  0.141  -0.517618  0.069189  2.326817  0.101  -0.566229  0.052331  2.32388  0.08  -0.294943  -0.487612  0.076434  2.330289  0.107
O  O56  1  0.34875573  0.57274777  0.37576762  1  -0.657725  -0.013562  2.090916  -0.018  -0.617542  -0.007932  2.33447  -0.011  -0.643172  -0.004137  2.322443  -0.006  -0.325147  -0.59908  -0.0115  2.341991  -0.015
O  O57  1  0.34870641  0.92722531  0.62420359  1  -0.658009  -0.013573  2.090924  -0.018  -0.617703  -0.007935  2.334394  -0.011  -0.643343  -0.004138  2.322336  -0.006  -0.325229  -0.599227  -0.011502  2.341919  -0.015
O  O58  1  0.65125823  0.42724026  0.62421974  1  -0.657786  0.013573  2.090319  0.018  -0.617593  0.007936  2.333658  0.011  -0.643207  0.004137  2.32159  0.006  -0.325213  -0.599134  0.011503  2.341194  0.015
O  O59  1  0.65128372  0.07277421  0.37580001  1  -0.658064  0.013575  2.090537  0.018  -0.617807  0.007941  2.333843  0.011  -0.643454  0.004141  2.321786  0.006  -0.325326  -0.599337  0.011509  2.341385  0.015
O  O60  1  0.17243221  0.95655813  0.28645875  1  -0.604395  -0.00406  1.926734  -0.005  -0.561579  -0.001823  2.14574  -0.002  -0.587141  -0.001079  2.13617  -0.001  -0.300273  -0.543596  -0.002594  2.152083  -0.003
O  O61  1  0.17235298  0.54343475  0.71351078  1  -0.604389  -0.004068  1.926819  -0.005  -0.561621  -0.001823  2.145784  -0.002  -0.587174  -0.001077  2.136237  -0.001  -0.300299  -0.543654  -0.002594  2.152109  -0.003
O  O62  1  0.82755633  0.04343670  0.71355282  1  -0.604442  0.004076  1.926335  0.005  -0.56164  0.001826  2.145326  0.002  -0.587205  0.00108  2.13576  0.001  -0.300325  -0.543646  0.002596  2.15168  0.003
O  O63  1  0.82764509  0.45656858  0.28648305  1  -0.604388  0.004082  1.926381  0.005  -0.561561  0.001826  2.145351  0.002  -0.587116  0.001079  2.135804  0.001  -0.30022  -0.543575  0.002595  2.151673  0.003
O  O64  1  0.29785044  0.83472835  0.39368127  1  -0.748197  -0.00022  2.092268  0.0  -0.706173  -0.000186  2.345992  0.0  -0.730248  -0.000152  2.331593  0.0  -0.424374  -0.687543  -0.000324  2.354655  -0.001
O  O65  1  0.29782667  0.66526457  0.60630698  1  -0.748061  -0.000214  2.092338  0.0  -0.706087  -0.000186  2.346036  0.0  -0.730152  -0.000153  2.331645  0.0  -0.424336  -0.687465  -0.000325  2.354691  -0.001
O  O66  1  0.70214763  0.16526299  0.60632305  1  -0.74808  0.000219  2.092498  0.0  -0.706032  0.000186  2.346129  0.0  -0.730104  0.000154  2.331731  0.0  -0.424286  -0.687397  0.000325  2.354805  0.001
O  O67  1  0.70216505  0.33473687  0.39369052  1  -0.747987  0.00022  2.092548  0.0  -0.706002  0.000187  2.346316  0.0  -0.730066  0.000154  2.331921  0.0  -0.424302  -0.687376  0.000326  2.354974  0.001
O  O68  1  0.75945336  0.59104621  0.49491919  1  -0.895794  -6.8e-05  1.852472  0.0  -0.85599  -4e-05  2.032971  0.0  -0.874328  -1.4e-05  1.998424  0.0  -0.657462  -0.842302  -4.7e-05  2.057118  0.0
O  O69  1  0.75944147  0.90895790  0.50509801  1  -0.895911  -6.9e-05  1.852421  0.0  -0.856107  -3.9e-05  2.032981  0.0  -0.874412  -1.4e-05  1.998507  0.0  -0.657473  -0.842446  -4.7e-05  2.057073  0.0
O  O70  1  0.24055265  0.40895431  0.50507975  1  -0.89578  6.8e-05  1.852431  0.0  -0.855928  4e-05  2.032974  0.0  -0.874273  1.5e-05  1.99842  0.0  -0.657389  -0.842233  4.8e-05  2.057118  0.0
O  O71  1  0.24055660  0.09104526  0.49490474  1  -0.895907  6.8e-05  1.852363  0.0  -0.856059  4e-05  2.032959  0.0  -0.874366  1.5e-05  1.998485  0.0  -0.657421  -0.842378  4.8e-05  2.057072  0.0
O  O72  1  0.69607976  0.71767115  0.31808872  1  -0.898671  0.000293  1.865583  0.0  -0.857109  0.000118  2.056235  0.0  -0.8752  3e-06  2.028869  0.0  -0.62374  -0.843854  0.000221  2.075261  0.0
O  O73  1  0.69603141  0.78233597  0.68192668  1  -0.898417  0.000292  1.86565  0.0  -0.856862  0.000118  2.05647  0.0  -0.874931  3e-06  2.029061  0.0  -0.623638  -0.843605  0.000221  2.075495  0.0
O  O74  1  0.30392148  0.28233021  0.68191365  1  -0.898626  -0.000293  1.865531  0.0  -0.857078  -0.000119  2.056212  0.0  -0.875171  -3e-06  2.028845  0.0  -0.623697  -0.84381  -0.000221  2.075236  0.0
O  O75  1  0.30397620  0.21767180  0.31807216  1  -0.898654  -0.000293  1.865429  0.0  -0.857045  -0.000119  2.056256  0.0  -0.875116  -3e-06  2.028859  0.0  -0.623702  -0.843781  -0.000221  2.075274  0.0
