# generated using pymatgen
data_Co2H40C48S2N4O13
_symmetry_space_group_name_H-M   'P 1'
_cell_length_a   8.21924156
_cell_length_b   15.64205322
_cell_length_c   21.22707110
_cell_angle_alpha   79.58308935
_cell_angle_beta   78.84122628
_cell_angle_gamma   74.78414086
_symmetry_Int_Tables_number   1
_chemical_formula_structural   Co2H40C48S2N4O13
_chemical_formula_sum   'Co4 H80 C96 S4 N8 O26'
_cell_volume   2559.13824131
_cell_formula_units_Z   2
loop_
 _symmetry_equiv_pos_site_id
 _symmetry_equiv_pos_as_xyz
  1  'x, y, z'
loop_
 _atom_site_type_symbol
 _atom_site_label
 _atom_site_symmetry_multiplicity
 _atom_site_fract_x
 _atom_site_fract_y
 _atom_site_fract_z
 _atom_site_occupancy
 _atom_site_pbe_bader_charge
 _atom_site_pbe_bader_spin_density
 _atom_site_pbe_cm5_charge
 _atom_site_pbe_ddec_charge
 _atom_site_pbe_ddec_spin_density
 _atom_site_pbe_ddec_sum_bond_order
 _atom_site_pbe_magmom
Co  Co0  1  0.59899584  0.14282851  0.72089838  1  1.300866  2.606945  0.675742  0.916692  2.833911  2.459737  2.59
Co  Co1  1  0.46297923  0.35719724  0.77914365  1  1.299791  2.607497  0.675654  0.917396  2.833869  2.457589  2.59
Co  Co2  1  0.40098533  0.85717234  0.27911367  1  1.300784  2.60696  0.675668  0.916472  2.833933  2.459859  2.59
Co  Co3  1  0.53702448  0.64279759  0.22086752  1  1.299491  2.607539  0.675616  0.917475  2.833862  2.457621  2.59
H  H4  1  0.76564360  0.26252848  0.70976733  1  0.651115  0.000299  0.287768  0.376157  0.000262  0.972963  0.0
H  H5  1  0.73794860  0.23741804  0.79017994  1  0.65355  0.000302  0.287785  0.377094  0.000261  0.971476  0.0
H  H6  1  0.23436331  0.73747299  0.29022951  1  0.651155  0.0003  0.287766  0.376183  0.000263  0.9729  0.0
H  H7  1  0.26204839  0.76258342  0.20981576  1  0.653424  0.000301  0.28788  0.377359  0.00026  0.971136  0.0
H  H8  1  0.08122915  0.28695972  0.53169411  1  0.063457  0.000165  0.098028  0.106195  7.1e-05  1.097604  0.0
H  H9  1  0.90016016  0.21298847  0.96839298  1  0.071698  0.000166  0.098274  0.107404  7.1e-05  1.096276  0.0
H  H10  1  0.91878148  0.71304176  0.46830480  1  0.063635  0.000165  0.098007  0.106174  7.1e-05  1.097667  0.0
H  H11  1  0.09984359  0.78700899  0.03160511  1  0.071878  0.000166  0.09826  0.107412  7.1e-05  1.096339  0.0
H  H12  1  0.98594519  0.21553361  0.35676711  1  0.128375  2.5e-05  0.117112  0.150502  -1.8e-05  0.972801  0.0
H  H13  1  0.55826132  0.28446876  0.14323030  1  0.128319  2.5e-05  0.117503  0.151164  -1.8e-05  0.972025  0.0
H  H14  1  0.01405951  0.78446453  0.64323364  1  0.128365  2.5e-05  0.117112  0.150482  -1.8e-05  0.972755  0.0
H  H15  1  0.44174342  0.71553204  0.85676538  1  0.12815  2.5e-05  0.117523  0.151182  -1.8e-05  0.97203  0.0
H  H16  1  0.73349400  0.12062582  0.54550078  1  0.112861  -1.1e-05  0.102152  0.117417  -0.000143  1.056744  0.0
H  H17  1  0.40026434  0.37955016  0.95442099  1  0.123584  -1.4e-05  0.102472  0.118574  -0.000143  1.055835  0.0
H  H18  1  0.26650491  0.87937969  0.45450130  1  0.112844  -1.1e-05  0.102147  0.117455  -0.000143  1.05671  0.0
H  H19  1  0.59974133  0.62045131  0.04557500  1  0.123939  -1.5e-05  0.102481  0.118574  -0.000144  1.055801  0.0
H  H20  1  0.67709044  0.49210829  0.31897495  1  0.130212  0.001622  0.112347  0.078176  0.000245  1.03273  0.001
H  H21  1  0.48836823  0.00803301  0.18094322  1  0.117568  0.001626  0.112836  0.079084  0.000248  1.031266  0.001
H  H22  1  0.32291241  0.50789119  0.68102623  1  0.13027  0.001622  0.112361  0.078216  0.000245  1.032683  0.001
H  H23  1  0.51162223  0.99196647  0.81905795  1  0.117785  0.001627  0.112926  0.079183  0.000248  1.031154  0.001
H  H24  1  0.57300841  0.37478629  0.40148323  1  0.091587  0.000855  0.104824  0.114611  0.000416  1.011347  0.0
H  H25  1  0.34919338  0.12525769  0.09846433  1  0.073412  0.000871  0.104766  0.11477  0.000419  1.011675  0.0
H  H26  1  0.42700312  0.62521319  0.59851636  1  0.09158  0.000855  0.10485  0.114681  0.000415  1.011311  0.0
H  H27  1  0.65079922  0.87473977  0.90153413  1  0.073726  0.000871  0.104759  0.114787  0.000419  1.011638  0.0
H  H28  1  0.09261018  0.46186176  0.32802254  1  0.107052  0.000971  0.102681  0.108522  0.000437  1.032261  0.0
H  H29  1  0.88278837  0.03784237  0.17212911  1  0.11882  0.000963  0.102638  0.108532  0.000437  1.032945  0.0
H  H30  1  0.90740102  0.53813570  0.67197640  1  0.107446  0.00097  0.102686  0.108548  0.000436  1.032229  0.0
H  H31  1  0.11720513  0.96215310  0.82787096  1  0.118862  0.000963  0.102641  0.10854  0.000437  1.032952  0.0
H  H32  1  0.21653439  0.57648135  0.24917160  1  0.102269  0.002166  0.117364  0.088537  0.000734  1.000545  0.001
H  H33  1  0.04274163  0.92336322  0.25093383  1  0.092915  0.002177  0.116871  0.088059  0.00074  1.000109  0.001
H  H34  1  0.78347181  0.42351343  0.75082572  1  0.102198  0.002166  0.117393  0.088581  0.000734  1.000555  0.001
H  H35  1  0.95725348  0.07663693  0.74906831  1  0.093129  0.002177  0.116889  0.088099  0.000741  1.000092  0.001
H  H36  1  0.23551620  0.02236451  0.34613162  1  0.110207  0.001855  0.12118  0.094732  0.000349  0.988099  0.001
H  H37  1  0.60429951  0.47801666  0.15348426  1  0.126075  0.001851  0.121841  0.094947  0.000348  0.988865  0.001
H  H38  1  0.76449282  0.97763228  0.65386616  1  0.110016  0.001854  0.121197  0.094783  0.000348  0.988114  0.001
H  H39  1  0.39569947  0.52197208  0.84650641  1  0.126391  0.001853  0.121885  0.094977  0.000349  0.988775  0.001
H  H40  1  0.31972588  0.10506429  0.42042308  1  0.083145  0.000973  0.10367  0.111092  0.000453  1.031666  0.0
H  H41  1  0.84574468  0.39519122  0.07943449  1  0.080617  0.000974  0.103676  0.111117  0.000452  1.030693  0.0
H  H42  1  0.68026521  0.89493653  0.57957786  1  0.083213  0.000973  0.103676  0.111142  0.000453  1.031578  0.0
H  H43  1  0.15425866  0.60479886  0.92055803  1  0.080968  0.000974  0.103561  0.110972  0.000452  1.030843  0.0
H  H44  1  0.84124040  0.95903654  0.36972292  1  0.099848  0.001043  0.110502  0.125868  0.000459  1.006409  0.0
H  H45  1  0.17039118  0.54101511  0.13059985  1  0.108473  0.001046  0.109986  0.125395  0.000459  1.006258  0.0
H  H46  1  0.15876122  0.04096295  0.63028306  1  0.099914  0.001044  0.11048  0.12587  0.000459  1.006391  0.0
H  H47  1  0.82960784  0.45897633  0.86939846  1  0.10836  0.001046  0.110019  0.125424  0.000459  1.00635  0.0
H  H48  1  0.73431291  0.88410614  0.29636926  1  0.138856  0.001963  0.120098  0.097753  0.000646  0.994301  0.001
H  H49  1  0.91494002  0.61590726  0.20385864  1  0.100078  0.001958  0.120169  0.097481  0.000639  0.995514  0.001
H  H50  1  0.26569156  0.11589802  0.70363023  1  0.138887  0.001963  0.120133  0.097841  0.000647  0.994264  0.001
H  H51  1  0.08506242  0.38408484  0.79613745  1  0.099843  0.001959  0.120113  0.097412  0.000639  0.995543  0.001
H  H52  1  0.34762574  0.30172743  0.45123407  1  0.037839  1e-06  0.102011  0.073916  2.9e-05  0.975143  0.0
H  H53  1  0.10016267  0.19819250  0.04879415  1  0.041592  5e-06  0.100899  0.072965  3.2e-05  0.973683  0.0
H  H54  1  0.65238613  0.69827406  0.54876757  1  0.037826  1e-06  0.102015  0.073971  2.9e-05  0.975248  0.0
H  H55  1  0.89984349  0.80179961  0.95120448  1  0.041505  5e-06  0.100906  0.073084  3.1e-05  0.973602  0.0
H  H56  1  0.15789599  0.38867677  0.46123093  1  0.087455  -0.000671  0.097423  0.059676  -0.000569  1.051012  0.0
H  H57  1  0.00754051  0.11110488  0.03886878  1  0.092278  -0.000676  0.097244  0.059675  -0.000573  1.050606  0.0
H  H58  1  0.84210251  0.61132136  0.53876746  1  0.087429  -0.000668  0.097405  0.059673  -0.000566  1.050979  0.0
H  H59  1  0.99246102  0.88888924  0.96112899  1  0.092404  -0.000679  0.097255  0.059757  -0.000576  1.05059  0.0
H  H60  1  0.53737746  0.12547941  0.47444646  1  0.054566  2.4e-05  0.103363  0.073855  4.6e-05  0.974988  0.0
H  H61  1  0.13770021  0.37485444  0.02554788  1  0.035329  2.7e-05  0.10305  0.074037  4.7e-05  0.974233  0.0
H  H62  1  0.46261645  0.87452342  0.52555447  1  0.054617  2.4e-05  0.103366  0.073845  4.6e-05  0.974971  0.0
H  H63  1  0.86231283  0.62514165  0.97444216  1  0.035317  2.7e-05  0.103122  0.074123  4.7e-05  0.974144  0.0
H  H64  1  0.70385355  0.02721389  0.48633151  1  0.078627  -0.000578  0.10337  0.073542  -0.000475  0.996454  0.0
H  H65  1  0.21782922  0.47311095  0.01377305  1  0.06907  -0.000574  0.103848  0.074844  -0.00047  0.996474  0.0
H  H66  1  0.29613634  0.97278960  0.51366963  1  0.078465  -0.00058  0.103325  0.073502  -0.000477  0.996471  0.0
H  H67  1  0.78217735  0.52688851  0.98622361  1  0.069214  -0.000573  0.103832  0.074829  -0.000469  0.996415  0.0
H  H68  1  0.46242444  0.14767094  0.93044667  1  0.077032  8.2e-05  0.101041  0.114328  6e-06  1.038909  0.0
H  H69  1  0.54019718  0.35232811  0.56956191  1  0.114028  8.5e-05  0.101549  0.114351  8e-06  1.038845  0.0
H  H70  1  0.53756981  0.85233388  0.06955208  1  0.077164  8.3e-05  0.101049  0.114299  6e-06  1.038972  0.0
H  H71  1  0.45980504  0.64767007  0.43044845  1  0.114149  8.4e-05  0.101598  0.114432  8e-06  1.038788  0.0
H  H72  1  0.70036300  0.09742741  0.99114110  1  0.079608  6.2e-05  0.096053  0.1049  3.2e-05  1.032196  0.0
H  H73  1  0.78868323  0.40249835  0.50892272  1  0.088695  6e-05  0.09492  0.103527  3.1e-05  1.034265  0.0
H  H74  1  0.29963249  0.90257742  0.00885991  1  0.079657  6.2e-05  0.09605  0.104893  3.2e-05  1.032155  0.0
H  H75  1  0.21131808  0.59750183  0.49108696  1  0.088707  6e-05  0.094952  0.103588  3.1e-05  1.034229  0.0
H  H76  1  0.05721391  0.19035323  0.86681199  1  0.164539  0.000553  0.111983  0.163496  0.000228  0.995081  0.0
H  H77  1  0.11403323  0.30988878  0.63327673  1  0.168604  0.000551  0.112286  0.164301  0.000229  0.993596  0.0
H  H78  1  0.94278744  0.80964959  0.13318744  1  0.164536  0.000554  0.111992  0.163449  0.000229  0.995106  0.0
H  H79  1  0.88595410  0.69010937  0.36672862  1  0.168757  0.00055  0.112311  0.164373  0.000228  0.993697  0.0
H  H80  1  0.16137648  0.20920308  0.92730167  1  0.060348  0.001577  0.098547  0.117889  0.000587  1.016217  0.001
H  H81  1  0.29733197  0.29099035  0.57274547  1  0.077296  0.001549  0.098176  0.117571  0.000585  1.016325  0.001
H  H82  1  0.83861935  0.79080376  0.07270045  1  0.060289  0.001576  0.098529  0.117904  0.000586  1.016219  0.001
H  H83  1  0.70266502  0.70901117  0.42726436  1  0.077039  0.001551  0.098112  0.11749  0.000585  1.016433  0.001
C  C84  1  0.90722169  0.20193549  0.54419853  1  -0.005862  0.002549  -0.020326  0.023703  0.001015  4.002481  0.002
C  C85  1  0.65388770  0.29817745  0.95578073  1  0.016862  0.002565  -0.018463  0.025039  0.001032  4.002082  0.002
C  C86  1  0.09278064  0.79807068  0.45580132  1  -0.005644  0.002554  -0.020314  0.02383  0.001019  4.002212  0.002
C  C87  1  0.34611952  0.70182335  0.04421430  1  0.016842  0.002561  -0.018384  0.025216  0.001029  4.001971  0.002
C  C88  1  0.02136679  0.25104133  0.50722663  1  0.011595  0.002739  -0.120995  -0.284253  0.001334  4.011122  0.002
C  C89  1  0.77995040  0.24898736  0.99280858  1  -0.012195  0.002727  -0.123284  -0.287258  0.001327  4.012305  0.002
C  C90  1  0.97864167  0.74895948  0.49277254  1  0.011061  0.002737  -0.120988  -0.284356  0.001333  4.011165  0.002
C  C91  1  0.22005306  0.75101076  0.00718708  1  -0.012385  0.002727  -0.123291  -0.287357  0.001327  4.012603  0.002
C  C92  1  0.05063718  0.25456300  0.43961606  1  0.394041  -0.000372  0.075614  0.268433  -0.000562  4.115184  0.0
C  C93  1  0.74491097  0.24537402  0.06043139  1  0.397754  -0.000364  0.077541  0.269808  -0.00055  4.113789  0.0
C  C94  1  0.94937060  0.74543380  0.56038464  1  0.394006  -0.00037  0.075691  0.268602  -0.000561  4.114999  0.0
C  C95  1  0.25509155  0.75462343  0.93956538  1  0.397593  -0.000365  0.077581  0.2698  -0.000551  4.113911  0.0
C  C96  1  0.96521313  0.21102707  0.40939123  1  0.029942  0.003377  -0.115585  -0.318256  0.001731  3.960893  0.002
C  C97  1  0.58581730  0.28897782  0.09060368  1  0.016718  0.003352  -0.116319  -0.318947  0.001717  3.96092  0.002
C  C98  1  0.03479375  0.78897174  0.59060880  1  0.030049  0.003374  -0.115565  -0.318247  0.00173  3.960734  0.002
C  C99  1  0.41418770  0.71101963  0.90939149  1  0.016635  0.003354  -0.116365  -0.318897  0.001718  3.960784  0.002
C  C100  1  0.85020623  0.16341141  0.44705751  1  0.413486  -0.000336  0.078807  0.274083  -0.000538  4.108008  0.0
C  C101  1  0.46110885  0.33672098  0.05288886  1  0.429621  -0.00033  0.07804  0.273967  -0.000533  4.1069  0.0
C  C102  1  0.14979449  0.83659007  0.55294309  1  0.413487  -0.000336  0.07882  0.274175  -0.000538  4.107944  0.0
C  C103  1  0.53889704  0.66327446  0.94710510  1  0.429963  -0.000331  0.078009  0.273772  -0.000533  4.107097  0.0
C  C104  1  0.82203870  0.15712134  0.51476499  1  -0.063989  0.003043  -0.118863  -0.271077  0.00155  3.985718  0.002
C  C105  1  0.49447983  0.34305589  0.98518168  1  -0.081737  0.003033  -0.120938  -0.274033  0.001544  3.983602  0.002
C  C106  1  0.17796081  0.84288283  0.48523628  1  -0.06391  0.003042  -0.118901  -0.271234  0.00155  3.98562  0.002
C  C107  1  0.50552674  0.65694357  0.01481451  1  -0.08205  0.003034  -0.12096  -0.273925  0.001544  3.983591  0.002
C  C108  1  0.54865951  0.48268127  0.32261725  1  0.457044  -0.010126  0.046719  0.104701  -0.011203  3.946989  -0.006
C  C109  1  0.35415564  0.01737196  0.17733266  1  0.516371  -0.010206  0.044448  0.102195  -0.011265  3.949577  -0.006
C  C110  1  0.45134582  0.51731822  0.67738468  1  0.457165  -0.010086  0.046705  0.104676  -0.011161  3.946967  -0.006
C  C111  1  0.64583947  0.98262820  0.82266948  1  0.516035  -0.01024  0.044527  0.102274  -0.011301  3.949447  -0.007
C  C112  1  0.48971089  0.41756799  0.36827838  1  -0.004579  0.005825  -0.082093  -0.171626  0.002644  3.945638  0.005
C  C113  1  0.27558033  0.08242398  0.13168426  1  -0.055091  0.005869  -0.082864  -0.172452  0.00266  3.946902  0.005
C  C114  1  0.51029564  0.58242880  0.63172006  1  -0.005154  0.005815  -0.082176  -0.171844  0.002639  3.945654  0.005
C  C115  1  0.72441376  0.91757013  0.86831453  1  -0.055635  0.00588  -0.082828  -0.172454  0.002664  3.946831  0.005
C  C116  1  0.32236584  0.41013220  0.37236347  1  -0.03991  -0.01308  0.004729  0.129336  -0.013853  3.950629  -0.008
C  C117  1  0.10490993  0.08973866  0.12766350  1  -0.07858  -0.013173  0.0066  0.129945  -0.013916  3.950685  -0.008
C  C118  1  0.67763946  0.58986460  0.62763695  1  -0.04025  -0.013029  0.004806  0.129534  -0.013799  3.950534  -0.008
C  C119  1  0.89508853  0.91025679  0.87233479  1  -0.078615  -0.01322  0.006576  0.129968  -0.013965  3.950738  -0.008
C  C120  1  0.22285887  0.46622032  0.32765065  1  -0.034347  0.006241  -0.086236  -0.170632  0.002871  3.948053  0.005
C  C121  1  0.01699893  0.03357088  0.17241854  1  0.024212  0.006263  -0.087593  -0.172458  0.002876  3.948659  0.005
C  C122  1  0.77714771  0.53377915  0.67234884  1  -0.034695  0.006227  -0.086269  -0.170818  0.002866  3.948105  0.005
C  C123  1  0.98299118  0.96642658  0.82758151  1  0.024563  0.006276  -0.087638  -0.172542  0.002881  3.948918  0.005
C  C124  1  0.29047555  0.52995300  0.28386168  1  0.481431  -0.007589  0.043587  0.102211  -0.008034  3.945967  -0.005
C  C125  1  0.10471659  0.96989563  0.21617397  1  0.443168  -0.007574  0.046262  0.103849  -0.008063  3.943677  -0.005
C  C126  1  0.70953193  0.47004447  0.71613943  1  0.481141  -0.007559  0.043588  0.102259  -0.008003  3.94611  -0.005
C  C127  1  0.89527450  0.03010519  0.78382791  1  0.442609  -0.007606  0.046281  0.103866  -0.008094  3.943684  -0.005
C  C128  1  0.36831896  0.01087691  0.35263231  1  0.45266  -0.009067  0.051468  0.10241  -0.010115  3.945428  -0.006
C  C129  1  0.73214972  0.48937756  0.14719025  1  0.464164  -0.009011  0.050488  0.100668  -0.010052  3.947304  -0.006
C  C130  1  0.63169021  0.98913058  0.64736307  1  0.45284  -0.0091  0.051434  0.102324  -0.010149  3.945408  -0.006
C  C131  1  0.26784592  0.51061587  0.85280239  1  0.463707  -0.008988  0.050523  0.100754  -0.010027  3.947132  -0.006
C  C132  1  0.41610752  0.05574604  0.39446447  1  0.024621  0.005334  -0.087596  -0.189068  0.002367  3.964582  0.004
C  C133  1  0.86681857  0.44445508  0.10546684  1  0.003283  0.00531  -0.086668  -0.18801  0.002357  3.965134  0.004
C  C134  1  0.58389011  0.94425678  0.60553618  1  0.024667  0.005344  -0.08768  -0.189233  0.00237  3.964637  0.004
C  C135  1  0.13318413  0.55553368  0.89452874  1  0.003178  0.005302  -0.086568  -0.187945  0.002354  3.965209  0.004
C  C136  1  0.58715601  0.03629591  0.40264068  1  -0.000929  -0.012585  0.003513  0.122737  -0.013311  3.976726  -0.008
C  C137  1  0.02663252  0.46383698  0.09747225  1  -0.016041  -0.012528  0.001519  0.121373  -0.013251  3.978692  -0.008
C  C138  1  0.41284133  0.96370758  0.59735990  1  -0.000597  -0.012628  0.003541  0.122735  -0.013356  3.976958  -0.008
C  C139  1  0.97336868  0.53615512  0.90252345  1  -0.015757  -0.012496  0.001656  0.12172  -0.013217  3.978546  -0.008
C  C140  1  0.70563812  0.97468674  0.36616670  1  -0.062982  0.005846  -0.083311  -0.175067  0.002679  3.931664  0.005
C  C141  1  0.04688478  0.52538100  0.13404660  1  -0.02993  0.005834  -0.081528  -0.172565  0.002688  3.931064  0.005
C  C142  1  0.29436601  0.02531543  0.63383638  1  -0.062486  0.005856  -0.083274  -0.175015  0.002684  3.931544  0.005
C  C143  1  0.95311702  0.47460976  0.86594924  1  -0.029598  0.005826  -0.081528  -0.172668  0.002685  3.931109  0.005
C  C144  1  0.64780671  0.93315123  0.32533863  1  0.465529  -0.006963  0.04894  0.103157  -0.00744  3.933759  -0.004
C  C145  1  0.90652740  0.56692692  0.17479710  1  0.450158  -0.0069  0.048495  0.10271  -0.007419  3.934698  -0.004
C  C146  1  0.35220559  0.06685760  0.67465587  1  0.464779  -0.006989  0.048737  0.102834  -0.007465  3.933473  -0.004
C  C147  1  0.09346828  0.43306918  0.82519425  1  0.452446  -0.006886  0.048471  0.102718  -0.0074  3.93478  -0.004
C  C148  1  0.86588266  0.20040748  0.61660095  1  1.558303  0.008545  0.212014  0.579015  0.005598  4.157927  0.006
C  C149  1  0.68335777  0.29962225  0.88337700  1  1.562825  0.008522  0.212494  0.579742  0.005574  4.162013  0.006
C  C150  1  0.13411043  0.79960270  0.38339905  1  1.558107  0.008541  0.212086  0.579109  0.005594  4.157679  0.006
C  C151  1  0.31664324  0.70037855  0.11661895  1  1.562674  0.008525  0.212363  0.579519  0.005575  4.162125  0.006
C  C152  1  0.24746849  0.34835786  0.42569312  1  0.419555  -0.000201  -0.059318  -0.015403  -0.000531  3.910766  0.0
C  C153  1  0.02128427  0.15146968  0.07437942  1  0.436161  -0.000177  -0.057532  -0.013125  -0.00053  3.906445  0.0
C  C154  1  0.75253561  0.65164162  0.57430749  1  0.420058  -0.000199  -0.059318  -0.0155  -0.000529  3.910705  0.0
C  C155  1  0.97871821  0.84852511  0.92561865  1  0.436142  -0.000178  -0.057521  -0.013403  -0.000532  3.906774  0.0
C  C156  1  0.64515050  0.07899315  0.44927878  1  0.387035  -0.000309  -0.058755  -0.014472  -0.000638  3.919387  0.0
C  C157  1  0.17392306  0.42125213  0.05077468  1  0.427153  -0.000295  -0.057735  -0.015216  -0.000625  3.918256  0.0
C  C158  1  0.35484683  0.92101034  0.55072181  1  0.386993  -0.00031  -0.058769  -0.014435  -0.00064  3.919357  0.0
C  C159  1  0.82608283  0.57874330  0.94921787  1  0.427295  -0.000294  -0.057897  -0.015507  -0.000624  3.918348  0.0
C  C160  1  0.36259255  0.02842205  0.96440237  1  -0.205979  0.000311  -0.020465  0.036988  0.000101  4.058987  0.0
C  C161  1  0.35529975  0.47165637  0.53559236  1  -0.201156  0.000315  -0.020389  0.03772  0.000105  4.05994  0.0
C  C162  1  0.63739400  0.97158614  0.03560310  1  -0.205362  0.000311  -0.020556  0.036909  0.000102  4.059306  0.0
C  C163  1  0.64470033  0.52834381  0.46441788  1  -0.2005  0.000314  -0.020342  0.037806  0.000104  4.060044  0.0
C  C164  1  0.47619283  0.08305275  0.96083193  1  -0.02087  0.000134  -0.099565  -0.132367  -1e-05  3.986449  0.0
C  C165  1  0.51984544  0.41694108  0.53916614  1  -0.051706  0.000139  -0.101146  -0.133652  -7e-06  3.989011  0.0
C  C166  1  0.52379710  0.91695343  0.03917120  1  -0.021365  0.000135  -0.099601  -0.132386  -9e-06  3.986467  0.0
C  C167  1  0.48015712  0.58305911  0.46084768  1  -0.051669  0.000139  -0.101241  -0.133949  -7e-06  3.989248  0.0
C  C168  1  0.61212777  0.05450321  0.99575669  1  -0.01072  0.000167  -0.101643  -0.127419  8.4e-05  3.993995  0.0
C  C169  1  0.66223923  0.44543822  0.50426480  1  -0.031176  0.000164  -0.100084  -0.125691  8.2e-05  3.995354  0.0
C  C170  1  0.38785599  0.94550565  0.00424843  1  -0.010862  0.000166  -0.101623  -0.127402  8.4e-05  3.993666  0.0
C  C171  1  0.33775896  0.55456063  0.49574812  1  -0.030675  0.000164  -0.100059  -0.125551  8.3e-05  3.995288  0.0
C  C172  1  0.17695794  0.16997428  0.88763511  1  -0.185732  0.009793  -0.15822  -0.348162  0.005117  3.911518  0.007
C  C173  1  0.23424104  0.33022094  0.61242401  1  -0.194901  0.009819  -0.157788  -0.347762  0.00512  3.911387  0.007
C  C174  1  0.82304101  0.83003390  0.11236566  1  -0.185483  0.009791  -0.158143  -0.347972  0.005116  3.911562  0.007
C  C175  1  0.76574975  0.66978057  0.38758346  1  -0.194814  0.009818  -0.157724  -0.347785  0.00512  3.91153  0.007
C  C176  1  0.32115251  0.19413053  0.83586055  1  1.603311  0.001279  0.214325  0.650872  0.000655  4.137354  0.001
C  C177  1  0.35095521  0.30595590  0.66416644  1  1.601571  0.001328  0.214176  0.65082  0.00073  4.139727  0.001
C  C178  1  0.67884806  0.80588234  0.16414277  1  1.602803  0.001305  0.214382  0.651054  0.000676  4.137067  0.001
C  C179  1  0.64902389  0.69405230  0.33584383  1  1.601791  0.001307  0.214218  0.650796  0.000712  4.14008  0.001
S  S180  1  0.19249435  0.05411458  0.91967403  1  0.076819  0.001288  0.015329  0.020161  0.000292  2.779425  0.0
S  S181  1  0.16613455  0.44608335  0.58038718  1  0.065528  0.001315  0.015575  0.019449  0.000311  2.780691  0.0
S  S182  1  0.80749437  0.94589428  0.08032883  1  0.07638  0.001291  0.015321  0.02003  0.000294  2.779638  0.0
S  S183  1  0.83385962  0.55391615  0.41962030  1  0.065353  0.001312  0.01559  0.019548  0.000309  2.78058  0.0
N  N184  1  0.44990894  0.53945669  0.28176993  1  -1.222112  0.060462  -0.332975  -0.266782  0.032293  3.607059  0.053
N  N185  1  0.27155720  0.96049948  0.21820938  1  -1.210808  0.060602  -0.333392  -0.265198  0.032393  3.609234  0.053
N  N186  1  0.55009613  0.46054615  0.71823581  1  -1.221475  0.060461  -0.332921  -0.266683  0.03229  3.607092  0.053
N  N187  1  0.72842866  0.03950470  0.78179716  1  -1.210538  0.060608  -0.333629  -0.265479  0.032396  3.609328  0.053
N  N188  1  0.48153237  0.94948336  0.31940168  1  -1.217436  0.063039  -0.324986  -0.245314  0.033632  3.569395  0.054
N  N189  1  0.75062143  0.55068609  0.18054114  1  -1.202587  0.062839  -0.324209  -0.244418  0.033518  3.567933  0.054
N  N190  1  0.51848316  0.05053482  0.68058801  1  -1.217774  0.063046  -0.324842  -0.245043  0.033631  3.568917  0.054
N  N191  1  0.24936813  0.44931535  0.81944617  1  -1.205435  0.062857  -0.324245  -0.244442  0.03352  3.567965  0.054
O  O192  1  0.88189754  0.26576832  0.64079660  1  -1.168475  0.016985  -0.315021  -0.528792  0.0079  2.143896  0.014
O  O193  1  0.78859086  0.23415767  0.85922455  1  -1.175866  0.016944  -0.313874  -0.52765  0.00788  2.14449  0.014
O  O194  1  0.11809431  0.73424186  0.35920349  1  -1.168131  0.016988  -0.314983  -0.528845  0.007901  2.143637  0.014
O  O195  1  0.21141459  0.76584981  0.14076923  1  -1.175849  0.01694  -0.313886  -0.52768  0.007878  2.144423  0.014
O  O196  1  0.81328546  0.13270647  0.64935006  1  -1.176005  0.06853  -0.323689  -0.5847  0.034815  2.349734  0.054
O  O197  1  0.59600277  0.36734997  0.85059170  1  -1.171676  0.068465  -0.325181  -0.58649  0.034887  2.351907  0.054
O  O198  1  0.18670793  0.86730303  0.35064906  1  -1.176047  0.068587  -0.323769  -0.584731  0.034847  2.349845  0.054
O  O199  1  0.40397772  0.63264681  0.14940540  1  -1.171421  0.068397  -0.325035  -0.586364  0.034852  2.351939  0.054
O  O200  1  0.15919638  0.29992217  0.39818028  1  -1.077378  -0.000447  -0.183676  -0.20306  -0.000503  2.533406  0.0
O  O201  1  0.85703425  0.19976884  0.10192570  1  -1.073511  -0.000447  -0.183997  -0.203562  -0.000504  2.534075  0.0
O  O202  1  0.84082590  0.70006995  0.60181950  1  -1.077394  -0.000445  -0.183711  -0.203085  -0.000501  2.533312  0.0
O  O203  1  0.14296856  0.80022794  0.89807067  1  -1.073559  -0.000449  -0.184071  -0.203514  -0.000506  2.534316  0.0
O  O204  1  0.76917040  0.12559819  0.41269269  1  -1.055204  -0.000686  -0.183898  -0.202216  -0.00072  2.525625  -0.001
O  O205  1  0.30801321  0.37456738  0.08728064  1  -1.069115  -0.00068  -0.183867  -0.202243  -0.000716  2.524326  -0.001
O  O206  1  0.23082506  0.87440397  0.58730869  1  -1.055249  -0.000688  -0.18388  -0.202256  -0.000723  2.525552  -0.001
O  O207  1  0.69199021  0.62542806  0.91271303  1  -1.069332  -0.000678  -0.183876  -0.202223  -0.000714  2.524369  -0.001
O  O208  1  0.37872987  0.14780759  0.78966334  1  -1.179775  0.069461  -0.308538  -0.57371  0.03633  2.378204  0.057
O  O209  1  0.31629886  0.35223441  0.71036141  1  -1.174949  0.0693  -0.308422  -0.57385  0.036278  2.379379  0.057
O  O210  1  0.62127337  0.85219658  0.21033812  1  -1.179641  0.069424  -0.308504  -0.573672  0.036314  2.378286  0.057
O  O211  1  0.68368694  0.64776443  0.28964867  1  -1.174771  0.06932  -0.308445  -0.573834  0.036287  2.37939  0.057
O  O212  1  0.36698536  0.26219542  0.84423064  1  -1.16562  0.058483  -0.317842  -0.562907  0.030478  2.373559  0.05
O  O213  1  0.47302939  0.23783134  0.65575196  1  -1.168644  0.058344  -0.318182  -0.563012  0.030406  2.372872  0.05
O  O214  1  0.63301232  0.73781007  0.15576682  1  -1.16524  0.058461  -0.317985  -0.563207  0.030467  2.372953  0.05
O  O215  1  0.52695956  0.76217149  0.34425123  1  -1.169015  0.058354  -0.31819  -0.562893  0.030411  2.373254  0.05
O  O216  1  0.67945152  0.24998584  0.74997535  1  -1.275216  0.096568  -0.557268  -0.802323  0.052553  2.385791  0.081
O  O217  1  0.32056429  0.74998751  0.25001849  1  -1.275108  0.096563  -0.557321  -0.802525  0.052551  2.385605  0.081
