# generated using pymatgen
data_SmH8C6O7
_symmetry_space_group_name_H-M   'P 1'
_cell_length_a   7.70691217
_cell_length_b   8.07827022
_cell_length_c   14.20133289
_cell_angle_alpha   96.88168898
_cell_angle_beta   96.03261813
_cell_angle_gamma   103.82235079
_symmetry_Int_Tables_number   1
_chemical_formula_structural   SmH8C6O7
_chemical_formula_sum   'Sm4 H32 C24 O28'
_cell_volume   844.12506069
_cell_formula_units_Z   4
loop_
 _symmetry_equiv_pos_site_id
 _symmetry_equiv_pos_as_xyz
  1  'x, y, z'
loop_
 _atom_site_type_symbol
 _atom_site_label
 _atom_site_symmetry_multiplicity
 _atom_site_fract_x
 _atom_site_fract_y
 _atom_site_fract_z
 _atom_site_occupancy
 _atom_site_hle17_bader_spin_density
 _atom_site_hle17_ddec_charge
 _atom_site_hle17_ddec_spin_density
 _atom_site_hle17_ddec_sum_bond_order
 _atom_site_hle17_magmom
 _atom_site_hse06_10hf_bader_spin_density
 _atom_site_hse06_10hf_ddec_charge
 _atom_site_hse06_10hf_ddec_spin_density
 _atom_site_hse06_10hf_ddec_sum_bond_order
 _atom_site_hse06_10hf_magmom
 _atom_site_hse06_bader_spin_density
 _atom_site_hse06_ddec_charge
 _atom_site_hse06_ddec_spin_density
 _atom_site_hse06_ddec_sum_bond_order
 _atom_site_hse06_magmom
 _atom_site_pbe_bader_spin_density
 _atom_site_pbe_cm5_charge
 _atom_site_pbe_ddec_charge
 _atom_site_pbe_ddec_spin_density
 _atom_site_pbe_ddec_sum_bond_order
 _atom_site_pbe_magmom
Sm  Sm0  1  0.41145196  0.51103181  0.29897178  1  0  2.305896  0  1.616966  0  0  2.21529  0  1.956683  0  0  2.259643  0  1.915754  0  0  1.514523  2.113986  0  2.111402  0
Sm  Sm1  1  0.58854767  0.48896852  0.70102883  1  0  2.305865  0  1.617  0  0  2.215256  0  1.956719  0  0  2.259612  0  1.915789  0  0  1.514515  2.113972  0  2.111415  0
Sm  Sm2  1  0.87120313  0.42409506  0.20792973  1  0  2.302088  0  1.607388  0  0  2.211654  0  1.946199  0  0  2.256058  0  1.90552  0  0  1.507266  2.110756  0  2.099898  0
Sm  Sm3  1  0.12879781  0.57590527  0.79207096  1  0  2.302085  0  1.607372  0  0  2.211661  0  1.946194  0  0  2.256066  0  1.905512  0  0  1.507272  2.110796  0  2.099847  0
H  H4  1  0.07727045  0.87772321  0.14297825  1  0  0.112838  0  0.93484  0  0  0.127554  0  0.990532  0  0  0.129859  0  0.989998  0  0  0.106266  0.125661  0  0.991598  0
H  H5  1  0.92272889  0.12227585  0.85701944  1  0  0.112799  0  0.934881  0  0  0.127561  0  0.990552  0  0  0.129864  0  0.990016  0  0  0.106266  0.125671  0  0.991621  0
H  H6  1  0.28717614  0.02778280  0.19279882  1  0  0.11358  0  0.931421  0  0  0.129756  0  0.985335  0  0  0.131688  0  0.985372  0  0  0.110937  0.128288  0  0.985596  0
H  H7  1  0.71282190  0.97221625  0.80719879  1  0  0.11354  0  0.931453  0  0  0.129728  0  0.985387  0  0  0.131661  0  0.985423  0  0  0.110933  0.128262  0  0.985648  0
H  H8  1  0.97580357  0.89751661  0.30609488  1  0  0.114226  0  0.932282  0  0  0.126856  0  0.992235  0  0  0.12951  0  0.991537  0  0  0.108679  0.12495  0  0.992894  0
H  H9  1  0.02419543  0.10248115  0.69390340  1  0  0.114252  0  0.93223  0  0  0.126891  0  0.992174  0  0  0.129542  0  0.991477  0  0  0.108685  0.124984  0  0.992835  0
H  H10  1  0.18946380  0.04593823  0.35370216  1  0  0.118714  0  0.932775  0  0  0.132781  0  0.98983  0  0  0.13533  0  0.989382  0  0  0.107417  0.130701  0  0.990847  0
H  H11  1  0.81053355  0.95405823  0.64629593  1  0  0.118837  0  0.932739  0  0  0.132886  0  0.989802  0  0  0.135436  0  0.989354  0  0  0.107464  0.130806  0  0.990814  0
H  H12  1  0.67474159  0.03780662  0.37360172  1  0  0.140634  0  0.91709  0  0  0.153842  0  0.975123  0  0  0.156988  0  0.973266  0  0  0.117354  0.151355  0  0.977192  0
H  H13  1  0.32525806  0.96219371  0.62639819  1  0  0.140627  0  0.917089  0  0  0.153831  0  0.975126  0  0  0.156977  0  0.973269  0  0  0.117351  0.151349  0  0.977188  0
H  H14  1  0.59722110  0.09279235  0.48327959  1  0  0.110075  0  0.937189  0  0  0.125803  0  0.99223  0  0  0.127914  0  0.991627  0  0  0.107986  0.124101  0  0.993321  0
H  H15  1  0.40278081  0.90720670  0.51672108  1  0  0.110071  0  0.937184  0  0  0.125799  0  0.992225  0  0  0.127909  0  0.991622  0  0  0.107987  0.124098  0  0.993317  0
H  H16  1  0.93857857  0.12458780  0.49494733  1  0  0.100678  0  0.925301  0  0  0.119393  0  0.98019  0  0  0.121293  0  0.979575  0  0  0.103752  0.117707  0  0.981459  0
H  H17  1  0.06142203  0.87541124  0.50505326  1  0  0.100737  0  0.925279  0  0  0.119451  0  0.980164  0  0  0.121352  0  0.979544  0  0  0.103769  0.117755  0  0.981447  0
H  H18  1  0.95505649  0.29570975  0.42808081  1  0  0.117056  0  0.94528  0  0  0.128864  0  1.00928  0  0  0.131557  0  1.00852  0  0  0.114175  0.127347  0  1.009188  0
H  H19  1  0.04494412  0.70428929  0.57191907  1  0  0.117055  0  0.945258  0  0  0.128879  0  1.009233  0  0  0.131572  0  1.008473  0  0  0.114182  0.127365  0  1.009135  0
H  H20  1  0.61901808  0.90409967  0.15308586  1  0  0.144919  0  0.929246  0  0  0.158345  0  0.985875  0  0  0.161769  0  0.984245  0  0  0.118566  0.155627  0  0.987787  0
H  H21  1  0.38098090  0.09589809  0.84691313  1  0  0.144921  0  0.929229  0  0  0.158356  0  0.985852  0  0  0.161779  0  0.984222  0  0  0.11857  0.155639  0  0.987765  0
H  H22  1  0.45542276  0.73205445  0.08132562  1  0  0.119019  0  0.912006  0  0  0.134391  0  0.967803  0  0  0.137079  0  0.966593  0  0  0.114558  0.132474  0  0.968789  0
H  H23  1  0.54457753  0.26794331  0.91867344  1  0  0.119013  0  0.912021  0  0  0.134389  0  0.967812  0  0  0.137076  0  0.966602  0  0  0.114558  0.132475  0  0.968798  0
H  H24  1  0.63810443  0.99125671  0.00261478  1  0  0.119766  0  0.933475  0  0  0.134003  0  0.992492  0  0  0.136343  0  0.991898  0  0  0.109752  0.132181  0  0.993377  0
H  H25  1  0.36189685  0.00874491  0.99738602  1  0  0.119778  0  0.933458  0  0  0.134015  0  0.99247  0  0  0.136355  0  0.991873  0  0  0.109756  0.132173  0  0.993375  0
H  H26  1  0.80973796  0.88059857  0.00643433  1  0  0.106882  0  0.940373  0  0  0.121054  0  0.999663  0  0  0.123716  0  0.998071  0  0  0.103131  0.118746  0  1.001795  0
H  H27  1  0.19026498  0.11940435  0.99356596  1  0  0.106887  0  0.940391  0  0  0.121071  0  0.999668  0  0  0.123732  0  0.998075  0  0  0.103145  0.11876  0  1.001798  0
H  H28  1  0.77518959  0.66215036  0.41260160  1  0  0.435428  0  0.86275  0  0  0.405705  0  0.9249  0  0  0.416731  0  0.908828  0  0  0.299256  0.397648  0  0.936403  0
H  H29  1  0.22481135  0.33784997  0.58739909  1  0  0.43542  0  0.862764  0  0  0.405701  0  0.924899  0  0  0.416725  0  0.908831  0  0  0.299274  0.397643  0  0.936403  0
H  H30  1  0.63171891  0.69781130  0.48528548  1  0  0.448769  0  0.845335  0  0  0.418347  0  0.907747  0  0  0.429416  0  0.891539  0  0  0.304153  0.4104  0  0.919066  0
H  H31  1  0.36827906  0.30218773  0.51471564  1  0  0.44872  0  0.845371  0  0  0.418307  0  0.907778  0  0  0.429374  0  0.891571  0  0  0.304127  0.410363  0  0.919093  0
H  H32  1  0.01887706  0.34563202  0.00974531  1  0  0.450129  0  0.82483  0  0  0.428967  0  0.872485  0  0  0.43843  0  0.858436  0  0  0.319722  0.421797  0  0.882967  0
H  H33  1  0.98112387  0.65436831  0.99025609  1  0  0.450141  0  0.824797  0  0  0.428979  0  0.872465  0  0  0.438442  0  0.858414  0  0  0.319728  0.421812  0  0.882942  0
H  H34  1  0.13747424  0.31645223  0.09805309  1  0  0.427476  0  0.883243  0  0  0.396129  0  0.949017  0  0  0.407444  0  0.932571  0  0  0.296769  0.388206  0  0.960218  0
H  H35  1  0.86252636  0.68354681  0.90194750  1  0  0.427487  0  0.883233  0  0  0.396139  0  0.94901  0  0  0.407453  0  0.932565  0  0  0.296773  0.388215  0  0.960211  0
C  C36  1  0.25497256  0.78184755  0.23677200  1  0  0.725097  0  3.84123  0  0  0.682442  0  4.148109  0  0  0.715731  0  4.138527  0  0  0.21189  0.660347  0  4.145614  0
C  C37  1  0.74502678  0.21815150  0.76322569  1  0  0.725171  0  3.841125  0  0  0.682473  0  4.148111  0  0  0.715762  0  4.138533  0  0  0.211834  0.660377  0  4.145621  0
C  C38  1  0.17629612  0.92523382  0.20761598  1  0  -0.228795  0  3.610428  0  0  -0.264887  0  3.853534  0  0  -0.269913  0  3.86038  0  0  -0.151473  -0.261984  0  3.850342  0
C  C39  1  0.82370189  0.07476522  0.79238304  1  0  -0.228687  0  3.610385  0  0  -0.264853  0  3.853591  0  0  -0.269878  0  3.860435  0  0  -0.151464  -0.261954  0  3.850407  0
C  C40  1  0.08755210  0.99812538  0.29013748  1  0  -0.235825  0  3.618295  0  0  -0.275984  0  3.867885  0  0  -0.281782  0  3.87493  0  0  -0.152993  -0.272595  0  3.864705  0
C  C41  1  0.91244428  0.00187237  0.70986064  1  0  -0.236029  0  3.618335  0  0  -0.276172  0  3.867978  0  0  -0.281968  0  3.875019  0  0  -0.153057  -0.272781  0  3.864797  0
C  C42  1  0.01383209  0.14474530  0.26207331  1  0  0.735642  0  3.810832  0  0  0.695737  0  4.109731  0  0  0.728937  0  4.100873  0  0  0.215662  0.673484  0  4.107876  0
C  C43  1  0.98616557  0.85525245  0.73792630  1  0  0.735672  0  3.810852  0  0  0.69578  0  4.109727  0  0  0.728977  0  4.100871  0  0  0.215686  0.673534  0  4.107864  0
C  C44  1  0.58694054  0.26550027  0.38289589  1  0  0.773523  0  3.754467  0  0  0.72969  0  4.053381  0  0  0.764949  0  4.04066  0  0  0.23522  0.705878  0  4.054358  0
C  C45  1  0.41305908  0.73450006  0.61710543  1  0  0.77348  0  3.754512  0  0  0.729646  0  4.053415  0  0  0.764895  0  4.040711  0  0  0.235212  0.705823  0  4.054412  0
C  C46  1  0.67853600  0.14525278  0.42984920  1  0  -0.247249  0  3.645811  0  0  -0.288746  0  3.8933  0  0  -0.293874  0  3.899317  0  0  -0.157822  -0.28591  0  3.891171  0
C  C47  1  0.32146528  0.85474884  0.57015160  1  0  -0.247221  0  3.645781  0  0  -0.288707  0  3.893252  0  0  -0.293833  0  3.89927  0  0  -0.157814  -0.28587  0  3.891118  0
C  C48  1  0.87335987  0.22608884  0.47693969  1  0  -0.239519  0  3.635509  0  0  -0.278758  0  3.880911  0  0  -0.28403  0  3.888849  0  0  -0.154675  -0.275767  0  3.877523  0
C  C49  1  0.12664142  0.77391278  0.52306040  1  0  -0.239603  0  3.635515  0  0  -0.278808  0  3.88093  0  0  -0.284079  0  3.888866  0  0  -0.154684  -0.275818  0  3.87755  0
C  C50  1  0.88689796  0.35210299  0.56760230  1  0  0.748857  0  3.793934  0  0  0.707381  0  4.091882  0  0  0.740523  0  4.083087  0  0  0.23544  0.68429  0  4.093709  0
C  C51  1  0.11310333  0.64789864  0.43239780  1  0  0.748961  0  3.793849  0  0  0.707339  0  4.092007  0  0  0.740481  0  4.083216  0  0  0.235419  0.684249  0  4.093831  0
C  C52  1  0.69926052  0.67419255  0.13320198  1  0  0.747693  0  3.786857  0  0  0.701528  0  4.093709  0  0  0.735483  0  4.08373  0  0  0.221279  0.678957  0  4.091798  0
C  C53  1  0.30074106  0.32580521  0.86679787  1  0  0.747761  0  3.786781  0  0  0.701586  0  4.093653  0  0  0.735547  0  4.083669  0  0  0.221337  0.679009  0  4.091751  0
C  C54  1  0.60064734  0.79692636  0.09459872  1  0  -0.248502  0  3.632036  0  0  -0.286882  0  3.879451  0  0  -0.292676  0  3.886158  0  0  -0.153711  -0.283308  0  3.876244  0
C  C55  1  0.39935622  0.20307398  0.90540143  1  0  -0.248531  0  3.63203  0  0  -0.286914  0  3.879457  0  0  -0.292711  0  3.886162  0  0  -0.153725  -0.283343  0  3.87625  0
C  C56  1  0.66403964  0.86359074  0.00434819  1  0  -0.248413  0  3.647954  0  0  -0.288318  0  3.892253  0  0  -0.29376  0  3.899983  0  0  -0.162847  -0.285345  0  3.889557  0
C  C57  1  0.33596069  0.13641217  0.99565123  1  0  -0.248407  0  3.648009  0  0  -0.288326  0  3.892316  0  0  -0.293753  0  3.900047  0  0  -0.162863  -0.285343  0  3.88962  0
C  C58  1  0.56132114  0.74575538  0.91441046  1  0  0.757643  0  3.78118  0  0  0.71693  0  4.079166  0  0  0.75051  0  4.0691  0  0  0.238568  0.69338  0  4.082035  0
C  C59  1  0.43868050  0.25424754  0.08558905  1  0  0.757606  0  3.781272  0  0  0.716913  0  4.079244  0  0  0.750462  0  4.069224  0  0  0.238595  0.693372  0  4.082094  0
O  O60  1  0.40497001  0.81747557  0.28959028  1  0  -0.65631  0  1.945209  0  0  -0.615763  0  2.180652  0  0  -0.639768  0  2.173376  0  0  -0.350771  -0.592764  0  2.186065  0
O  O61  1  0.59502933  0.18252348  0.71040741  1  0  -0.656342  0  1.94516  0  0  -0.615782  0  2.180632  0  0  -0.639787  0  2.173357  0  0  -0.350723  -0.59278  0  2.186043  0
O  O62  1  0.16794980  0.62218336  0.20817147  1  0  -0.854767  0  2.0992  0  0  -0.811581  0  2.359072  0  0  -0.83598  0  2.346391  0  0  -0.443664  -0.77859  0  2.367246  0
O  O63  1  0.83204656  0.37781438  0.79182806  1  0  -0.854784  0  2.099159  0  0  -0.811567  0  2.359046  0  0  -0.835966  0  2.346366  0  0  -0.443643  -0.778579  0  2.36722  0
O  O64  1  0.11727450  0.29970769  0.27575427  1  0  -0.846462  0  2.144153  0  0  -0.804725  0  2.409824  0  0  -0.829142  0  2.397533  0  0  -0.449794  -0.771886  0  2.417402  0
O  O65  1  0.88272512  0.70029263  0.72424704  1  0  -0.846493  0  2.144211  0  0  -0.80476  0  2.409889  0  0  -0.829178  0  2.397604  0  0  -0.4498  -0.771927  0  2.417462  0
O  O66  1  0.85163179  0.11775229  0.22464101  1  0  -0.654714  0  1.950631  0  0  -0.607703  0  2.176164  0  0  -0.631903  0  2.169177  0  0  -0.353057  -0.584514  0  2.181432  0
O  O67  1  0.14836656  0.88224804  0.77535812  1  0  -0.654686  0  1.950588  0  0  -0.607688  0  2.176125  0  0  -0.631885  0  2.169138  0  0  -0.353046  -0.584504  0  2.18139  0
O  O68  1  0.43867659  0.29072126  0.40605742  1  0  -0.706371  0  2.010548  0  0  -0.656716  0  2.245463  0  0  -0.681276  0  2.233123  0  0  -0.35219  -0.632757  0  2.253804  0
O  O69  1  0.56132138  0.70927776  0.59394371  1  0  -0.706335  0  2.010637  0  0  -0.656663  0  2.245539  0  0  -0.681221  0  2.233207  0  0  -0.352154  -0.632697  0  2.253882  0
O  O70  1  0.65311392  0.34103400  0.31523665  1  0  -0.834064  0  2.135538  0  0  -0.792608  0  2.400658  0  0  -0.818177  0  2.388908  0  0  -0.436719  -0.758842  0  2.408389  0
O  O71  1  0.34688833  0.65897148  0.68476659  1  0  -0.834073  0  2.135491  0  0  -0.792641  0  2.400657  0  0  -0.818209  0  2.388914  0  0  -0.436752  -0.758876  0  2.408394  0
O  O72  1  0.75202634  0.41251911  0.57868960  1  0  -0.718914  0  2.036653  0  0  -0.673999  0  2.290093  0  0  -0.698604  0  2.280221  0  0  -0.39443  -0.64725  0  2.297766  0
O  O73  1  0.24797495  0.58748251  0.42131050  1  0  -0.718943  0  2.036592  0  0  -0.673991  0  2.290116  0  0  -0.698582  0  2.28022  0  0  -0.39444  -0.647238  0  2.297792  0
O  O74  1  0.03283857  0.39101997  0.62701250  1  0  -0.740244  0  2.024049  0  0  -0.692657  0  2.269388  0  0  -0.718295  0  2.259688  0  0  -0.352172  -0.666563  0  2.276019  0
O  O75  1  0.96716175  0.60898294  0.37298762  1  0  -0.74031  0  2.024082  0  0  -0.692632  0  2.269436  0  0  -0.718275  0  2.259744  0  0  -0.352145  -0.66653  0  2.276059  0
O  O76  1  0.66163094  0.62059149  0.21261786  1  0  -0.833558  0  2.103069  0  0  -0.793082  0  2.372086  0  0  -0.817848  0  2.359712  0  0  -0.447333  -0.759532  0  2.37972  0
O  O77  1  0.33837230  0.37940757  0.78738148  1  0  -0.833529  0  2.10298  0  0  -0.793072  0  2.372054  0  0  -0.817831  0  2.359657  0  0  -0.447342  -0.759528  0  2.3797  0
O  O78  1  0.82028857  0.62424507  0.09197954  1  0  -0.696036  0  1.974703  0  0  -0.647148  0  2.205838  0  0  -0.671603  0  2.196101  0  0  -0.355683  -0.623685  0  2.212975  0
O  O79  1  0.17971334  0.37575398  0.90802042  1  0  -0.696076  0  1.974671  0  0  -0.64719  0  2.205834  0  0  -0.671649  0  2.196094  0  0  -0.355711  -0.623722  0  2.212969  0
O  O80  1  0.39302213  0.72974945  0.89903362  1  0  -0.720695  0  2.015348  0  0  -0.681673  0  2.266705  0  0  -0.70629  0  2.256256  0  0  -0.38863  -0.654914  0  2.275408  0
O  O81  1  0.60698117  0.27025476  0.10096537  1  0  -0.720658  0  2.015348  0  0  -0.681649  0  2.266695  0  0  -0.706254  0  2.256263  0  0  -0.388633  -0.654894  0  2.275402  0
O  O82  1  0.64851525  0.66848695  0.85902488  1  0  -0.75016  0  2.066984  0  0  -0.699775  0  2.311003  0  0  -0.725555  0  2.299858  0  0  -0.372975  -0.672795  0  2.318865  0
O  O83  1  0.35148696  0.33151337  0.14097730  1  0  -0.750177  0  2.066995  0  0  -0.699819  0  2.311029  0  0  -0.725589  0  2.299897  0  0  -0.373009  -0.672839  0  2.318886  0
O  O84  1  0.65458548  0.68403963  0.41740873  1  0  -0.912608  0  1.828813  0  0  -0.872225  0  2.016508  0  0  -0.890535  0  1.983396  0  0  -0.650201  -0.850514  0  2.044677  0
O  O85  1  0.34541284  0.31596069  0.58259180  1  0  -0.912557  0  1.828867  0  0  -0.87214  0  2.016505  0  0  -0.890448  0  1.983395  0  0  -0.65019  -0.850431  0  2.044667  0
O  O86  1  0.00914045  0.31356083  0.07366836  1  0  -0.903422  0  1.830429  0  0  -0.869227  0  2.00918  0  0  -0.885913  0  1.976833  0  0  -0.641208  -0.848787  0  2.03691  0
O  O87  1  0.99086016  0.68643821  0.92633152  1  0  -0.903443  0  1.83038  0  0  -0.869248  0  2.009147  0  0  -0.885935  0  1.9768  0  0  -0.641218  -0.848814  0  2.036871  0
