# generated using pymatgen
data_Cd5H52C60N12(ClO6)2
_symmetry_space_group_name_H-M   'P 1'
_cell_length_a   9.44098477
_cell_length_b   15.82826845
_cell_length_c   27.99994384
_cell_angle_alpha   96.43000350
_cell_angle_beta   99.73191504
_cell_angle_gamma   107.37469457
_symmetry_Int_Tables_number   1
_chemical_formula_structural   Cd5H52C60N12(ClO6)2
_chemical_formula_sum   'Cd10 H104 C120 N24 Cl4 O24'
_cell_volume   3876.62647161
_cell_formula_units_Z   2
loop_
 _symmetry_equiv_pos_site_id
 _symmetry_equiv_pos_as_xyz
  1  'x, y, z'
loop_
 _atom_site_type_symbol
 _atom_site_label
 _atom_site_symmetry_multiplicity
 _atom_site_fract_x
 _atom_site_fract_y
 _atom_site_fract_z
 _atom_site_occupancy
 _atom_site_pbe_bader_charge
 _atom_site_pbe_bader_spin_density
 _atom_site_pbe_cm5_charge
 _atom_site_pbe_ddec_charge
 _atom_site_pbe_ddec_spin_density
 _atom_site_pbe_ddec_sum_bond_order
 _atom_site_pbe_magmom
Cd  Cd0  1  0.99999722  0.00000042  0.00000026  1  1.238822  0  0.708708  0.888847  0  2.320469  0
Cd  Cd1  1  0.49999755  0.50000027  0.50000043  1  1.242055  0  0.709283  0.889977  0  2.32004  0
Cd  Cd2  1  0.77527820  0.83520285  0.07134340  1  1.238556  0  0.717882  0.895655  0  2.254173  0
Cd  Cd3  1  0.36881470  0.66496231  0.42864523  1  1.239733  0  0.718107  0.895752  0  2.254472  0
Cd  Cd4  1  0.22472083  0.16479501  0.92865610  1  1.238516  0  0.717903  0.895689  0  2.254114  0
Cd  Cd5  1  0.63117548  0.33504496  0.57135648  1  1.239959  0  0.718135  0.895783  0  2.254494  0
Cd  Cd6  1  0.90389141  0.74677103  0.17105425  1  1.241808  0  0.793257  0.905234  0  2.194453  0
Cd  Cd7  1  0.48636279  0.75335298  0.32895452  1  1.242657  0  0.793354  0.905049  0  2.194226  0
Cd  Cd8  1  0.09610761  0.25322683  0.82894596  1  1.241822  0  0.793257  0.905278  0  2.194434  0
Cd  Cd9  1  0.51363844  0.24664891  0.67104571  1  1.242638  0  0.7934  0.905154  0  2.194185  0
H  H10  1  0.50140432  0.10765372  0.14444125  1  0.483467  0  0.346181  0.308189  0  0.883705  0
H  H11  1  0.74926077  0.39229820  0.35578486  1  0.472423  0  0.346683  0.309271  0  0.884513  0
H  H12  1  0.49858893  0.89234145  0.85555881  1  0.483453  0  0.346164  0.308176  0  0.883758  0
H  H13  1  0.25074398  0.60770034  0.64421680  1  0.472611  0  0.346689  0.309295  0  0.884604  0
H  H14  1  0.47607392  0.98477577  0.07401979  1  0.063506  0  0.101747  0.119303  0  0.984386  0
H  H15  1  0.91710538  0.51517457  0.42627950  1  0.076251  0  0.100909  0.117924  0  0.985668  0
H  H16  1  0.52391974  0.01522209  0.92597868  1  0.063426  0  0.101763  0.119309  0  0.98441  0
H  H17  1  0.08289225  0.48482665  0.57372120  1  0.076165  0  0.100893  0.117926  0  0.985683  0
H  H18  1  0.31803105  0.95949659  0.02381636  1  0.062047  0  0.097705  0.119232  0  1.023241  0
H  H19  1  0.83434505  0.54037747  0.47639230  1  0.106631  0  0.097239  0.118491  0  1.024169  0
H  H20  1  0.68196157  0.04050329  0.97618253  1  0.062373  0  0.097749  0.119272  0  1.023263  0
H  H21  1  0.16565506  0.45962241  0.52360918  1  0.10671  0  0.09726  0.118507  0  1.02415  0
H  H22  1  0.48291536  0.27116274  0.19958213  1  0.037163  0  0.100415  0.107852  0  1.02418  0
H  H23  1  0.51201075  0.22887189  0.30050252  1  0.042241  0  0.099924  0.107434  0  1.022989  0
H  H24  1  0.51708039  0.72883311  0.80041919  1  0.037212  0  0.10044  0.107898  0  1.024211  0
H  H25  1  0.48799087  0.77113068  0.69949671  1  0.042287  0  0.099928  0.107412  0  1.022979  0
H  H26  1  0.30471378  0.83299077  0.07148462  1  0.110732  0  0.109771  0.142525  0  0.964665  0
H  H27  1  0.90033452  0.66692101  0.42879322  1  0.112383  0  0.109928  0.142683  0  0.963869  0
H  H28  1  0.69527737  0.16700440  0.92851104  1  0.110756  0  0.10977  0.142585  0  0.964602  0
H  H29  1  0.09965518  0.33307551  0.57120494  1  0.112243  0  0.109871  0.142615  0  0.963841  0
H  H30  1  0.30294652  0.90133585  0.12523324  1  0.048138  0  0.09844  0.118265  0  0.993298  0
H  H31  1  0.77655813  0.59866065  0.37498025  1  0.051776  0  0.098169  0.117888  0  0.994121  0
H  H32  1  0.69705032  0.09865798  0.87476445  1  0.048086  0  0.098445  0.118329  0  0.993244  0
H  H33  1  0.22342364  0.40133519  0.62502097  1  0.051891  0  0.098117  0.117851  0  0.994097  0
H  H34  1  0.54050174  0.57107935  0.91651917  1  0.482837  0  0.346505  0.310261  0  0.883579  0
H  H35  1  0.55346132  0.92932025  0.58341459  1  0.483059  0  0.346762  0.309906  0  0.884211  0
H  H36  1  0.45949581  0.42891582  0.08348043  1  0.483052  0  0.346547  0.310262  0  0.883601  0
H  H37  1  0.44655691  0.07069106  0.41658544  1  0.483318  0  0.346647  0.30989  0  0.884074  0
H  H38  1  0.77496406  0.53241863  0.17997643  1  0.076214  0  0.095998  0.107125  0  1.043463  0
H  H39  1  0.56303975  0.96763547  0.31999225  1  0.089797  0  0.095166  0.106019  0  1.042939  0
H  H40  1  0.22502380  0.46757654  0.82002368  1  0.075967  0  0.095978  0.107118  0  1.043418  0
H  H41  1  0.43695852  0.03235904  0.68000628  1  0.089589  0  0.095199  0.106041  0  1.042932  0
H  H42  1  0.66981116  0.39347011  0.21447370  1  0.005858  0  0.08556  0.078006  0  1.04447  0
H  H43  1  0.56218909  0.10668794  0.28564757  1  0.047701  0  0.085773  0.077892  0  1.044923  0
H  H44  1  0.33017278  0.60652573  0.78552551  1  0.00585  0  0.085528  0.077934  0  1.044498  0
H  H45  1  0.43781816  0.89330723  0.71435116  1  0.047718  0  0.085755  0.077853  0  1.044872  0
H  H46  1  0.02558952  0.19914504  0.06061626  1  0.098616  0  0.104949  0.125985  0  1.021112  0
H  H47  1  0.26516100  0.30064609  0.43924420  1  0.121511  0  0.104464  0.125518  0  1.01971  0
H  H48  1  0.97440265  0.80085215  0.93938601  1  0.098532  0  0.104937  0.126021  0  1.02107  0
H  H49  1  0.73483339  0.69935110  0.56075284  1  0.121518  0  0.104448  0.125512  0  1.019638  0
H  H50  1  0.32386741  0.37152676  0.19352373  1  0.092047  0  0.097297  0.10119  0  1.023941  0
H  H51  1  0.25848160  0.12836802  0.30640579  1  0.091883  0  0.097508  0.101854  0  1.022405  0
H  H52  1  0.67612978  0.62846976  0.80647808  1  0.091964  0  0.097273  0.101176  0  1.023984  0
H  H53  1  0.74151580  0.87163657  0.69358939  1  0.091945  0  0.097501  0.101875  0  1.022467  0
H  H54  1  0.10098397  0.33729139  0.12520575  1  0.038906  0  0.096071  0.092961  0  1.020269  0
H  H55  1  0.13790581  0.16250515  0.37462711  1  0.061573  0  0.09692  0.094663  0  1.01905  0
H  H56  1  0.89901428  0.66270513  0.87479683  1  0.039059  0  0.096077  0.092959  0  1.02034  0
H  H57  1  0.86208868  0.83749608  0.62536734  1  0.061605  0  0.09694  0.0947  0  1.019047  0
H  H58  1  0.47730675  0.53476386  0.31400506  1  0.091173  0  0.105382  0.129611  0  0.998842  0
H  H59  1  0.12854693  0.96534676  0.18604185  1  0.103677  0  0.10509  0.12825  0  0.998223  0
H  H60  1  0.52268190  0.46523467  0.68599387  1  0.091235  0  0.105363  0.129575  0  0.998827  0
H  H61  1  0.87146476  0.03465446  0.81395360  1  0.103678  0  0.10508  0.128265  0  0.998218  0
H  H62  1  0.51901592  0.39401728  0.27917512  1  0.059843  0  0.087356  0.08353  0  1.048073  0
H  H63  1  0.34588737  0.10613696  0.22096798  1  0.055542  0  0.08748  0.083773  0  1.048168  0
H  H64  1  0.48096839  0.60597923  0.72082450  1  0.059567  0  0.087302  0.083392  0  1.048299  0
H  H65  1  0.65412604  0.89386157  0.77902955  1  0.055998  0  0.087429  0.083694  0  1.048327  0
H  H66  1  0.68368068  0.87314014  0.28360135  1  0.073204  0  0.097321  0.103629  0  1.019237  0
H  H67  1  0.02694502  0.62685906  0.21632875  1  0.039805  0  0.097673  0.103882  0  1.017902  0
H  H68  1  0.31632050  0.12685772  0.71639863  1  0.072874  0  0.097295  0.103631  0  1.019199  0
H  H69  1  0.97305046  0.37314014  0.78366991  1  0.039545  0  0.097665  0.103894  0  1.018016  0
H  H70  1  0.82932018  0.88063267  0.25050828  1  0.082895  0  0.104235  0.120134  0  0.97125  0
H  H71  1  0.19815994  0.61945257  0.24958289  1  0.055785  0  0.104419  0.120683  0  0.970864  0
H  H72  1  0.17067885  0.11936520  0.74949086  1  0.082858  0  0.104242  0.120127  0  0.971263  0
H  H73  1  0.80183732  0.38054596  0.75041584  1  0.055771  0  0.104429  0.120739  0  0.970821  0
H  H74  1  0.89654454  0.69816682  0.00734472  1  0.10865  0  0.11068  0.132852  0  0.978623  0
H  H75  1  0.69142342  0.80218409  0.49261436  1  0.103848  0  0.111831  0.134917  0  0.977789  0
H  H76  1  0.10345157  0.30182970  0.99265667  1  0.108516  0  0.110694  0.132916  0  0.978692  0
H  H77  1  0.30859124  0.19782856  0.50738626  1  0.104141  0  0.111786  0.13483  0  0.977825  0
H  H78  1  0.81315478  0.60390876  0.96000741  1  0.085047  0  0.107055  0.113674  0  0.9685  0
H  H79  1  0.74994867  0.89640762  0.53998791  1  0.054276  0  0.107142  0.113706  0  0.969255  0
H  H80  1  0.18684315  0.39608708  0.03999189  1  0.085492  0  0.107052  0.113696  0  0.968554  0
H  H81  1  0.25006529  0.10360368  0.46000973  1  0.054353  0  0.107118  0.11366  0  0.969177  0
H  H82  1  0.66395661  0.52594460  0.02358301  1  0.046916  0  0.096172  0.107184  0  0.992409  0
H  H83  1  0.61486552  0.97435838  0.47637918  1  0.037906  0  0.096074  0.106212  0  0.993605  0
H  H84  1  0.33604023  0.47405326  0.97641993  1  0.046628  0  0.096194  0.107232  0  0.992386  0
H  H85  1  0.38514119  0.02564956  0.52362033  1  0.037851  0  0.096047  0.106224  0  0.99359  0
H  H86  1  0.85795311  0.53574560  0.02909290  1  0.067835  0  0.103952  0.122253  0  0.964942  0
H  H87  1  0.79368962  0.96476300  0.47094403  1  0.078969  0  0.103061  0.12131  0  0.966176  0
H  H88  1  0.14203867  0.46424486  0.97090428  1  0.067959  0  0.103913  0.122172  0  0.965019  0
H  H89  1  0.20631611  0.03524696  0.52905162  1  0.079074  0  0.10309  0.121338  0  0.966095  0
H  H90  1  0.48825754  0.87340417  0.00776634  1  0.081375  0  0.103883  0.118053  0  1.023298  0
H  H91  1  0.10788503  0.62653692  0.49234681  1  0.085452  0  0.103879  0.117531  0  1.023479  0
H  H92  1  0.51173459  0.12658898  0.99223424  1  0.081252  0  0.103921  0.118127  0  1.023138  0
H  H93  1  0.89213323  0.37347842  0.50765598  1  0.085288  0  0.103879  0.117568  0  1.023321  0
H  H94  1  0.24496750  0.85233735  0.94802604  1  0.106511  0  0.087519  0.103562  0  1.057004  0
H  H95  1  0.94564674  0.64739103  0.55211178  1  0.099558  0  0.086474  0.102185  0  1.05838  0
H  H96  1  0.75503155  0.14766051  0.05197203  1  0.106491  0  0.087571  0.103599  0  1.05706  0
H  H97  1  0.05437892  0.35261826  0.44789284  1  0.100109  0  0.086467  0.102218  0  1.058496  0
H  H98  1  0.13418960  0.71958432  0.88224264  1  0.04907  0  0.09593  0.094036  0  1.034411  0
H  H99  1  0.03313089  0.78032689  0.61777821  1  0.063144  0  0.096671  0.095495  0  1.033349  0
H  H100  1  0.86581342  0.28041489  0.11775467  1  0.049045  0  0.095904  0.094001  0  1.034401  0
H  H101  1  0.96689328  0.21967971  0.38222795  1  0.062965  0  0.096652  0.095336  0  1.033611  0
H  H102  1  0.25697497  0.60051577  0.87338326  1  0.066509  0  0.10563  0.121838  0  1.01118  0
H  H103  1  0.28367434  0.89965225  0.62651774  1  0.061568  0  0.105041  0.121812  0  1.011908  0
H  H104  1  0.74302478  0.39948142  0.12661480  1  0.066595  0  0.105645  0.121873  0  1.011188  0
H  H105  1  0.71634312  0.10035771  0.37348502  1  0.061821  0  0.105089  0.121907  0  1.011799  0
H  H106  1  0.61129502  0.93346729  0.21216933  1  0.078808  0  0.102295  0.121889  0  0.975118  0
H  H107  1  0.96535000  0.56664462  0.28779348  1  0.049124  0  0.102186  0.122023  0  0.976238  0
H  H108  1  0.38870219  0.06652922  0.78783070  1  0.078766  0  0.10226  0.121794  0  0.975179  0
H  H109  1  0.03464833  0.43335391  0.71220566  1  0.049172  0  0.102184  0.12203  0  0.976319  0
H  H110  1  0.49146382  0.82118679  0.19876199  1  0.073894  0  0.103311  0.125617  0  0.972189  0
H  H111  1  0.97120196  0.67890547  0.30107110  1  0.054759  0  0.103079  0.126221  0  0.973025  0
H  H112  1  0.50853555  0.17880972  0.80123780  1  0.073926  0  0.103331  0.125638  0  0.972172  0
H  H113  1  0.02878993  0.32109306  0.69892695  1  0.054812  0  0.103065  0.126221  0  0.972922  0
C  C114  1  0.21326639  0.15870062  0.09426520  1  0.340808  0  0.086124  0.15231  0  4.034855  0
C  C115  1  0.45985988  0.34118267  0.40573015  1  0.360035  0  0.085524  0.151964  0  4.035686  0
C  C116  1  0.78673085  0.84129791  0.90573530  1  0.34067  0  0.086177  0.152388  0  4.034735  0
C  C117  1  0.54014128  0.65881519  0.59427090  1  0.35966  0  0.085584  0.15198  0  4.035716  0
C  C118  1  0.34270787  0.18028981  0.13303178  1  0.308096  0  0.092029  0.146333  0  4.049263  0
C  C119  1  0.52902605  0.31965853  0.36701531  1  0.281666  0  0.092448  0.145764  0  4.049054  0
C  C120  1  0.65729189  0.81970940  0.86696820  1  0.308607  0  0.092035  0.146349  0  4.049202  0
C  C121  1  0.47097732  0.68034336  0.63298612  1  0.281778  0  0.092443  0.145811  0  4.048901  0
C  C122  1  0.31918334  0.05451855  0.08269695  1  0.990897  0  0.23945  0.386839  0  3.942938  0
C  C123  1  0.68169676  0.44536645  0.41743860  1  0.998701  0  0.24025  0.38752  0  3.943059  0
C  C124  1  0.68081102  0.94547864  0.91730259  1  0.9915  0  0.239519  0.386932  0  3.943047  0
C  C125  1  0.31830332  0.55463141  0.58256239  1  0.998672  0  0.240247  0.387432  0  3.943093  0
C  C126  1  0.35288009  0.97242223  0.06408988  1  0.037439  0  -0.154641  -0.246019  0  3.950168  0
C  C127  1  0.81609603  0.52748262  0.43612628  1  -0.029269  0  -0.15325  -0.243874  0  3.950865  0
C  C128  1  0.64711250  0.02757563  0.93590888  1  0.037289  0  -0.154679  -0.245994  0  3.950329  0
C  C129  1  0.18390193  0.47251725  0.56387542  1  -0.029227  0  -0.15323  -0.243834  0  3.950893  0
C  C130  1  0.38411295  0.25571943  0.16966409  1  0.046438  0  -0.10342  -0.187811  0  4.042942  0
C  C131  1  0.45839004  0.24425798  0.33035323  1  0.057819  0  -0.102813  -0.186503  0  4.038905  0
C  C132  1  0.61588391  0.74427843  0.83033671  1  0.045945  0  -0.10346  -0.18788  0  4.043035  0
C  C133  1  0.54161410  0.75574525  0.66964584  1  0.057711  0  -0.102725  -0.186329  0  4.038931  0
C  C134  1  0.26982395  0.89006236  0.08496081  1  -0.05195  0  -0.160731  -0.278819  0  3.883549  0
C  C135  1  0.79475886  0.60989017  0.41523889  1  -0.031832  0  -0.16138  -0.279513  0  3.885435  0
C  C136  1  0.73016970  0.10993349  0.91503717  1  -0.051952  0  -0.16072  -0.279003  0  3.883633  0
C  C137  1  0.20523011  0.39010702  0.58476176  1  -0.031283  0  -0.161383  -0.279504  0  3.885245  0
C  C138  1  0.66538726  0.85264133  0.15721991  1  1.552604  0  0.196032  0.62566  0  4.139802  0
C  C139  1  0.15531055  0.64758191  0.34277211  1  1.542812  0  0.196767  0.626637  0  4.136832  0
C  C140  1  0.33461210  0.14735519  0.84278059  1  1.552637  0  0.196034  0.625678  0  4.139698  0
C  C141  1  0.84468821  0.35242133  0.65722735  1  1.543038  0  0.196788  0.626704  0  4.136815  0
C  C142  1  0.66321768  0.67040210  0.97915613  1  1.027428  0  0.237893  0.379083  0  3.95598  0
C  C143  1  0.51424244  0.82995936  0.52080327  1  1.015646  0  0.239071  0.380213  0  3.951195  0
C  C144  1  0.33677664  0.32959307  0.02084435  1  1.027599  0  0.237834  0.378929  0  3.956102  0
C  C145  1  0.48577257  0.17005396  0.47919884  1  1.017466  0  0.239215  0.380338  0  3.951331  0
C  C146  1  0.50761593  0.74915971  0.97330994  1  0.363192  0  0.086462  0.146624  0  4.051214  0
C  C147  1  0.28579033  0.75104814  0.52667083  1  0.361691  0  0.084894  0.141927  0  4.05552  0
C  C148  1  0.49238164  0.25083748  0.02669086  1  0.362482  0  0.08651  0.146704  0  4.051173  0
C  C149  1  0.71422503  0.24896384  0.47333087  1  0.361449  0  0.084755  0.141614  0  4.055507  0
C  C150  1  0.44324200  0.67323422  0.93532720  1  0.330718  0  0.091378  0.147803  0  4.046168  0
C  C151  1  0.33529282  0.82700695  0.56460507  1  0.341629  0  0.090569  0.147498  0  4.046395  0
C  C152  1  0.55675664  0.32676296  0.06467330  1  0.33081  0  0.091354  0.147863  0  4.046037  0
C  C153  1  0.66472435  0.17300637  0.43539610  1  0.341682  0  0.090732  0.147791  0  4.045896  0
C  C154  1  0.68723164  0.61102173  0.22863587  1  0.378037  0  0.075672  0.150865  0  4.086398  0
C  C155  1  0.34809038  0.88899220  0.27123291  1  0.386116  0  0.075104  0.149417  0  4.087613  0
C  C156  1  0.31275559  0.38897815  0.77136378  1  0.377979  0  0.075658  0.150825  0  4.086489  0
C  C157  1  0.65191046  0.11100499  0.72876487  1  0.38571  0  0.075127  0.149486  0  4.087499  0
C  C158  1  0.71091150  0.53235501  0.20900808  1  -0.040492  0  -0.11167  -0.190585  0  4.03875  0
C  C159  1  0.47003949  0.96771373  0.29092277  1  -0.045984  0  -0.109946  -0.187158  0  4.036464  0
C  C160  1  0.28908255  0.46764554  0.79099201  1  -0.040131  0  -0.111613  -0.190536  0  4.038987  0
C  C161  1  0.52996344  0.03228145  0.70907643  1  -0.045661  0  -0.109993  -0.18723  0  4.036495  0
C  C162  1  0.65188479  0.45557038  0.22868528  1  -0.041312  0  -0.118669  -0.122143  0  4.118787  0
C  C163  1  0.46804875  0.04453539  0.27131284  1  -0.070861  0  -0.119776  -0.123929  0  4.118622  0
C  C164  1  0.34809954  0.54442613  0.77131292  1  -0.040553  0  -0.118681  -0.122147  0  4.118892  0
C  C165  1  0.53196250  0.95546315  0.72868563  1  -0.070404  0  -0.11974  -0.123824  0  4.118533  0
C  C166  1  0.09829075  0.86402846  0.06972611  1  1.573855  0  0.203054  0.63587  0  4.13481  0
C  C167  1  0.66447090  0.63593511  0.43036687  1  1.542284  0  0.204298  0.637117  0  4.136435  0
C  C168  1  0.90170109  0.13596806  0.93027324  1  1.573845  0  0.202954  0.63591  0  4.134607  0
C  C169  1  0.33552666  0.36406410  0.56963727  1  1.541798  0  0.204358  0.637288  0  4.136293  0
C  C170  1  0.12346339  0.21476889  0.09089702  1  0.043866  0  -0.092293  -0.146959  0  3.959107  0
C  C171  1  0.31723265  0.28505218  0.40900957  1  0.010962  0  -0.091765  -0.144818  0  3.958095  0
C  C172  1  0.87653128  0.78522695  0.90910460  1  0.043916  0  -0.092292  -0.147019  0  3.958926  0
C  C173  1  0.68276394  0.71494904  0.59098857  1  0.011022  0  -0.091783  -0.144754  0  3.958128  0
C  C174  1  0.29402933  0.31122860  0.16593773  1  -0.022858  0  -0.10296  -0.090871  0  4.049461  0
C  C175  1  0.31640286  0.18869673  0.33398961  1  -0.062232  0  -0.103486  -0.09159  0  4.048131  0
C  C176  1  0.70596678  0.68876791  0.83406401  1  -0.022827  0  -0.10293  -0.090834  0  4.04952  0
C  C177  1  0.68359738  0.81130718  0.66600712  1  -0.062191  0  -0.103588  -0.091758  0  4.048364  0
C  C178  1  0.16669806  0.29115860  0.12703672  1  -0.099556  0  -0.107862  -0.114596  0  4.063733  0
C  C179  1  0.24796009  0.20869138  0.37284320  1  -0.098305  0  -0.108459  -0.11742  0  4.066886  0
C  C180  1  0.83329985  0.70883926  0.87296557  1  -0.099769  0  -0.107906  -0.114619  0  4.063878  0
C  C181  1  0.75203760  0.79130984  0.62715322  1  -0.098357  0  -0.10845  -0.117473  0  4.067036  0
C  C182  1  0.54243664  0.53416626  0.28536217  1  -0.021009  0  -0.100597  -0.168421  0  3.994209  0
C  C183  1  0.22315638  0.96590328  0.21460940  1  -0.024962  0  -0.099716  -0.163564  0  3.988834  0
C  C184  1  0.45755015  0.46582891  0.71463787  1  -0.021163  0  -0.10054  -0.168324  0  3.994067  0
C  C185  1  0.77684984  0.03409391  0.78538797  1  -0.024812  0  -0.099739  -0.163599  0  3.988842  0
C  C186  1  0.56790927  0.45621351  0.26585459  1  -0.068319  0  -0.119134  -0.124396  0  4.097336  0
C  C187  1  0.34606642  0.04388788  0.23418439  1  -0.078579  0  -0.119586  -0.125716  0  4.096191  0
C  C188  1  0.43207684  0.54378233  0.73414295  1  -0.068588  0  -0.119045  -0.124191  0  4.097341  0
C  C189  1  0.65394517  0.95610931  0.76581366  1  -0.079668  0  -0.119509  -0.125665  0  4.096226  0
C  C190  1  0.70910387  0.84516525  0.24960111  1  -0.047387  0  -0.156516  -0.232442  0  3.952789  0
C  C191  1  0.11425997  0.65487897  0.25037131  1  0.045378  0  -0.156107  -0.231626  0  3.950574  0
C  C192  1  0.29089442  0.15483127  0.75039862  1  -0.047066  0  -0.156493  -0.232421  0  3.952814  0
C  C193  1  0.88573622  0.34511956  0.74962700  1  0.045665  0  -0.156088  -0.231688  0  3.95082  0
C  C194  1  0.68546658  0.74745718  0.24926175  1  1.022258  0  0.212699  0.374801  0  3.997503  0
C  C195  1  0.18885328  0.75258822  0.25070328  1  0.959328  0  0.212412  0.374401  0  3.994078  0
C  C196  1  0.31453065  0.25254135  0.75073911  1  1.022396  0  0.212691  0.374805  0  3.99762  0
C  C197  1  0.81114257  0.24741166  0.74929508  1  0.958879  0  0.212392  0.374443  0  3.994079  0
C  C198  1  0.79520473  0.63859324  0.99361616  1  -0.033582  0  -0.144675  -0.231618  0  3.926783  0
C  C199  1  0.66359511  0.86177956  0.50636742  1  -2e-05  0  -0.146634  -0.235955  0  3.930819  0
C  C200  1  0.20479174  0.36140193  0.00638444  1  -0.034007  0  -0.144714  -0.231758  0  3.927062  0
C  C201  1  0.33641416  0.13823107  0.49363169  1  -0.001545  0  -0.146639  -0.235791  0  3.930578  0
C  C202  1  0.77986399  0.57441710  0.03176805  1  -0.043257  0  -0.157736  -0.261437  0  3.880832  0
C  C203  1  0.67421415  0.92596949  0.46822420  1  -0.050084  0  -0.156855  -0.258406  0  3.883177  0
C  C204  1  0.22013605  0.42557673  0.96823161  1  -0.04283  0  -0.157778  -0.261478  0  3.880799  0
C  C205  1  0.32579155  0.07404047  0.53177323  1  -0.050064  0  -0.15676  -0.25837  0  3.882946  0
C  C206  1  0.81555297  0.62399132  0.08443158  1  1.541021  0  0.188275  0.618166  0  4.168894  0
C  C207  1  0.60765846  0.87636630  0.41555591  1  1.582254  0  0.188155  0.617268  0  4.171178  0
C  C208  1  0.18445993  0.37600050  0.91556871  1  1.541147  0  0.188495  0.618483  0  4.168704  0
C  C209  1  0.39233531  0.12363962  0.58444378  1  1.582681  0  0.188138  0.617161  0  4.171113  0
C  C210  1  0.43687959  0.81453604  0.97886937  1  -0.027584  0  -0.091552  -0.148425  0  3.962037  0
C  C211  1  0.14426440  0.68545945  0.52120600  1  -0.026495  0  -0.09164  -0.146829  0  3.965154  0
C  C212  1  0.56311510  0.18545981  0.02113082  1  -0.026898  0  -0.091587  -0.14852  0  3.961977  0
C  C213  1  0.85575348  0.31455320  0.47879552  1  -0.026477  0  -0.091637  -0.146737  0  3.964903  0
C  C214  1  0.30209738  0.80199656  0.94548750  1  -0.032385  0  -0.104429  -0.099224  0  4.016967  0
C  C215  1  0.05556806  0.69787155  0.55461950  1  -0.044006  0  -0.103834  -0.098089  0  4.021597  0
C  C216  1  0.69790274  0.19800131  0.05451099  1  -0.032172  0  -0.104509  -0.099301  0  4.017015  0
C  C217  1  0.94445696  0.30214043  0.44538347  1  -0.044493  0  -0.103884  -0.09827  0  4.021845  0
C  C218  1  0.23912001  0.72611961  0.90776838  1  -0.026342  0  -0.103559  -0.094962  0  4.045074  0
C  C219  1  0.10596820  0.77386148  0.59225245  1  -0.013139  0  -0.104747  -0.098011  0  4.046982  0
C  C220  1  0.76088048  0.27387892  0.09223017  1  -0.026538  0  -0.103538  -0.094931  0  4.044941  0
C  C221  1  0.89405569  0.22614848  0.40775176  1  -0.013271  0  -0.104596  -0.097472  0  4.047417  0
C  C222  1  0.30741128  0.65975167  0.90207074  1  0.02336  0  -0.101795  -0.184613  0  4.020235  0
C  C223  1  0.24620153  0.84039818  0.59785709  1  0.006024  0  -0.100715  -0.183396  0  4.019469  0
C  C224  1  0.69258955  0.34024552  0.09792775  1  0.023363  0  -0.101783  -0.184661  0  4.020229  0
C  C225  1  0.75382063  0.15961446  0.40214612  1  0.005949  0  -0.100915  -0.183894  0  4.019869  0
C  C226  1  0.60481664  0.61221933  0.26669541  1  0.34683  0  0.078581  0.153359  0  4.066725  0
C  C227  1  0.22628637  0.88779519  0.23319621  1  0.317695  0  0.078136  0.149936  0  4.067022  0
C  C228  1  0.39517160  0.38777651  0.73330440  1  0.347051  0  0.078522  0.153358  0  4.066891  0
C  C229  1  0.77371949  0.11220334  0.76680265  1  0.317966  0  0.078114  0.14993  0  4.067037  0
C  C230  1  0.61073233  0.86345869  0.20477130  1  -0.058535  0  -0.158728  -0.271257  0  3.896455  0
C  C231  1  0.04224647  0.63665860  0.29516779  1  -0.009613  0  -0.159512  -0.273708  0  3.898391  0
C  C232  1  0.38926811  0.13653783  0.79522855  1  -0.058558  0  -0.158689  -0.271136  0  3.896519  0
C  C233  1  0.95774937  0.36334128  0.70483093  1  -0.009663  0  -0.15952  -0.273764  0  3.898409  0
N  N234  1  0.20201627  0.07998591  0.06394162  1  -1.175167  0  -0.349016  -0.402576  0  3.390837  0
N  N235  1  0.55769654  0.41986509  0.43611144  1  -1.155743  0  -0.349414  -0.403314  0  3.391753  0
N  N236  1  0.79797700  0.92001128  0.93605857  1  -1.175639  0  -0.349051  -0.40272  0  3.391179  0
N  N237  1  0.44230465  0.58013479  0.56389009  1  -1.155704  0  -0.349426  -0.40329  0  3.391861  0
N  N238  1  0.40587617  0.11322084  0.12423249  1  -1.244412  0  -0.375106  -0.321764  0  3.596972  0
N  N239  1  0.66819995  0.38675481  0.37589626  1  -1.247909  0  -0.375794  -0.32308  0  3.597578  0
N  N240  1  0.59412034  0.88677635  0.87576682  1  -1.24446  0  -0.375128  -0.321781  0  3.597052  0
N  N241  1  0.33180156  0.61324372  0.62410628  1  -1.247922  0  -0.375826  -0.323183  0  3.597538  0
N  N242  1  0.64295092  0.74470019  0.99964838  1  -1.206285  0  -0.35089  -0.392158  0  3.438626  0
N  N243  1  0.39917942  0.75558720  0.50033134  1  -1.199098  0  -0.349143  -0.388158  0  3.435258  0
N  N244  1  0.35704301  0.25529431  0.00035311  1  -1.206303  0  -0.350853  -0.392076  0  3.438434  0
N  N245  1  0.60083306  0.24442544  0.49967129  1  -1.199796  0  -0.349132  -0.38816  0  3.435261  0
N  N246  1  0.60554891  0.69964022  0.27882351  1  -1.236713  0  -0.377757  -0.432178  0  3.460804  0
N  N247  1  0.12721723  0.80040072  0.22112337  1  -1.222355  0  -0.377669  -0.431771  0  3.458559  0
N  N248  1  0.39444329  0.30035697  0.72117627  1  -1.236679  0  -0.377738  -0.432233  0  3.461062  0
N  N249  1  0.87278112  0.19959782  0.77887435  1  -1.222255  0  -0.377655  -0.43182  0  3.45863  0
N  N250  1  0.73692975  0.69717504  0.21859057  1  -1.240608  0  -0.379155  -0.442973  0  3.432388  0
N  N251  1  0.32150294  0.80286598  0.28132865  1  -1.217079  0  -0.379626  -0.442104  0  3.432791  0
N  N252  1  0.26306460  0.30282215  0.78140932  1  -1.24112  0  -0.37918  -0.443044  0  3.432455  0
N  N253  1  0.67849326  0.19713256  0.71866894  1  -1.216724  0  -0.379601  -0.442126  0  3.432654  0
N  N254  1  0.54414551  0.62500328  0.94055192  1  -1.267243  0  -0.376179  -0.331292  0  3.581741  0
N  N255  1  0.47916837  0.87535647  0.55937966  1  -1.269266  0  -0.37536  -0.329466  0  3.580806  0
N  N256  1  0.45584992  0.37499391  0.05944804  1  -1.267635  0  -0.376234  -0.331283  0  3.581696  0
N  N257  1  0.52084628  0.12465819  0.44062359  1  -1.269374  0  -0.375317  -0.329517  0  3.580441  0
Cl  Cl258  1  0.80761457  0.99719928  0.06024054  1  -0.638292  0  -0.300738  -0.515531  0  1.245138  0
Cl  Cl259  1  0.25011514  0.50292697  0.43968969  1  -0.640411  0  -0.300905  -0.516123  0  1.244852  0
Cl  Cl260  1  0.19237871  0.00279790  0.93975929  1  -0.638322  0  -0.300736  -0.515577  0  1.245174  0
Cl  Cl261  1  0.74988652  0.49707963  0.56031086  1  -0.640394  0  -0.300928  -0.516123  0  1.244808  0
O  O262  1  0.80866377  0.86498010  0.16011409  1  -1.183154  0  -0.353063  -0.590181  0  2.303198  0
O  O263  1  0.28348744  0.63538802  0.33993564  1  -1.179057  0  -0.352284  -0.588976  0  2.302535  0
O  O264  1  0.19133635  0.13501978  0.83988702  1  -1.183153  0  -0.353053  -0.590198  0  2.303224  0
O  O265  1  0.71651026  0.36461723  0.66006496  1  -1.179056  0  -0.35231  -0.589065  0  2.30265  0
O  O266  1  0.03711097  0.86844695  0.02621458  1  -1.212677  0  -0.345353  -0.603887  0  2.279282  0
O  O267  1  0.64246419  0.63165694  0.47388409  1  -1.208677  0  -0.345263  -0.603351  0  2.280046  0
O  O268  1  0.96287618  0.13154889  0.97378624  1  -1.212705  0  -0.345313  -0.603941  0  2.279262  0
O  O269  1  0.35754161  0.36834361  0.52612133  1  -1.208562  0  -0.345174  -0.603352  0  2.280175  0
O  O270  1  0.57338977  0.83515454  0.11632892  1  -1.167263  0  -0.326642  -0.543677  0  2.134731  0
O  O271  1  0.12155921  0.66492354  0.38363381  1  -1.162349  0  -0.327668  -0.544951  0  2.132781  0
O  O272  1  0.42661066  0.16484197  0.88367129  1  -1.167302  0  -0.326633  -0.543664  0  2.134657  0
O  O273  1  0.87843558  0.33507835  0.61636534  1  -1.162626  0  -0.327669  -0.544936  0  2.132745  0
O  O274  1  0.74847940  0.68208718  0.09340435  1  -1.169794  0  -0.349376  -0.584317  0  2.284083  0
O  O275  1  0.47369944  0.81793888  0.40658580  1  -1.183494  0  -0.348749  -0.583178  0  2.28473  0
O  O276  1  0.25154686  0.31791136  0.90659750  1  -1.170221  0  -0.349486  -0.58447  0  2.283991  0
O  O277  1  0.52629432  0.18206704  0.59341532  1  -1.183661  0  -0.34884  -0.583188  0  2.284792  0
O  O278  1  0.90986006  0.60867986  0.11718802  1  -1.165576  0  -0.341409  -0.572208  0  2.093866  0
O  O279  1  0.68435848  0.89196703  0.38279683  1  -1.181345  0  -0.341652  -0.57277  0  2.096225  0
O  O280  1  0.09014560  0.39130658  0.88281222  1  -1.165346  0  -0.341461  -0.57229  0  2.094055  0
O  O281  1  0.31563307  0.10803284  0.61720128  1  -1.181561  0  -0.341657  -0.572814  0  2.096273  0
O  O282  1  0.02038530  0.83807692  0.10157211  1  -1.176018  0  -0.328479  -0.564245  0  2.299683  0
O  O283  1  0.58068586  0.66181455  0.39846789  1  -1.162032  0  -0.329889  -0.565812  0  2.299643  0
O  O284  1  0.97961554  0.16192430  0.89842985  1  -1.175915  0  -0.328465  -0.564248  0  2.29948  0
O  O285  1  0.41931427  0.33819137  0.60153967  1  -1.162263  0  -0.329959  -0.56595  0  2.299654  0
