# generated using pymatgen
data_Cd3H14C18(NO3)4
_symmetry_space_group_name_H-M   'P 1'
_cell_length_a   8.85434887
_cell_length_b   8.85431543
_cell_length_c   16.23510999
_cell_angle_alpha   72.70100170
_cell_angle_beta   72.70109774
_cell_angle_gamma   75.99620677
_symmetry_Int_Tables_number   1
_chemical_formula_structural   Cd3H14C18(NO3)4
_chemical_formula_sum   'Cd6 H28 C36 N8 O24'
_cell_volume   1143.69297033
_cell_formula_units_Z   2
loop_
 _symmetry_equiv_pos_site_id
 _symmetry_equiv_pos_as_xyz
  1  'x, y, z'
loop_
 _atom_site_type_symbol
 _atom_site_label
 _atom_site_symmetry_multiplicity
 _atom_site_fract_x
 _atom_site_fract_y
 _atom_site_fract_z
 _atom_site_occupancy
 _atom_site_hle17_bader_spin_density
 _atom_site_hle17_ddec_charge
 _atom_site_hle17_ddec_spin_density
 _atom_site_hle17_ddec_sum_bond_order
 _atom_site_hle17_magmom
 _atom_site_hse06_10hf_bader_charge
 _atom_site_hse06_10hf_bader_spin_density
 _atom_site_hse06_10hf_ddec_charge
 _atom_site_hse06_10hf_ddec_spin_density
 _atom_site_hse06_10hf_ddec_sum_bond_order
 _atom_site_hse06_10hf_magmom
 _atom_site_hse06_bader_spin_density
 _atom_site_hse06_ddec_charge
 _atom_site_hse06_ddec_spin_density
 _atom_site_hse06_ddec_sum_bond_order
 _atom_site_hse06_magmom
 _atom_site_pbe_bader_spin_density
 _atom_site_pbe_cm5_charge
 _atom_site_pbe_ddec_charge
 _atom_site_pbe_ddec_spin_density
 _atom_site_pbe_ddec_sum_bond_order
 _atom_site_pbe_magmom
Cd  Cd0  1  0.33698749  0.23965481  0.84462032  1  0  1.225359  0  1.566352  0  1.338226  0  1.049936  0  2.002475  0  0  1.104417  0  1.948913  0  0  0.785668  1.011055  0  2.039213  0
Cd  Cd1  1  0.76034644  0.66301866  0.65537760  1  0  1.225412  0  1.566404  0  1.338191  0  1.050003  0  2.002553  0  0  1.10448  0  1.948988  0  0  0.785675  1.011122  0  2.0393  0
Cd  Cd2  1  0.66301895  0.76034930  0.15537634  1  0  1.225366  0  1.566433  0  1.338196  0  1.049962  0  2.002588  0  0  1.104437  0  1.949024  0  0  0.785666  1.011086  0  2.039318  0
Cd  Cd3  1  0.23965622  0.33698651  0.34462073  1  0  1.225368  0  1.566371  0  1.338217  0  1.049943  0  2.002498  0  0  1.104422  0  1.948937  0  0  0.785663  1.011062  0  2.039238  0
Cd  Cd4  1  0.02445230  0.97554706  0.75000051  1  0  1.14886  0  1.601473  0  1.280242  0  0.949707  0  2.029984  0  0  1.007977  0  1.979912  0  0  0.797162  0.908428  0  2.064141  0
Cd  Cd5  1  0.97554715  0.02445072  0.25000075  1  0  1.148856  0  1.601475  0  1.280211  0  0.949716  0  2.029989  0  0  1.00798  0  1.979916  0  0  0.797176  0.908438  0  2.064146  0
H  H6  1  0.30367684  0.35449655  0.03546458  1  0  0.116565  0  0.934917  0  0.106839  0  0.12842  0  0.993445  0  0  0.132041  0  0.990421  0  0  0.108112  0.125787  0  0.995738  0
H  H7  1  0.64550496  0.69632663  0.46453716  1  0  0.116524  0  0.935001  0  0.106809  0  0.128375  0  0.993536  0  0  0.131996  0  0.99051  0  0  0.108092  0.125743  0  0.995832  0
H  H8  1  0.69632983  0.64550635  0.96453532  1  0  0.116516  0  0.935023  0  0.106796  0  0.128373  0  0.993553  0  0  0.131995  0  0.990526  0  0  0.1081  0.125739  0  0.995849  0
H  H9  1  0.35449819  0.30367613  0.53546332  1  0  0.116576  0  0.934951  0  0.10683  0  0.128425  0  0.993483  0  0  0.132046  0  0.990458  0  0  0.108117  0.125794  0  0.995776  0
H  H10  1  0.15763501  0.58873845  0.74113762  1  0  0.096949  0  0.912789  0  0.14361  0  0.109967  0  0.969455  0  0  0.112222  0  0.965861  0  0  0.134876  0.108275  0  0.972041  0
H  H11  1  0.41125734  0.84236474  0.75886213  1  0  0.096955  0  0.912786  0  0.14362  0  0.10995  0  0.969493  0  0  0.112201  0  0.965894  0  0  0.134878  0.108259  0  0.972075  0
H  H12  1  0.84236351  0.41125808  0.25886399  1  0  0.096945  0  0.912745  0  0.1436  0  0.109939  0  0.969455  0  0  0.112186  0  0.965861  0  0  0.134886  0.108249  0  0.972037  0
H  H13  1  0.58874001  0.15763175  0.24113845  1  0  0.096987  0  0.912739  0  0.143602  0  0.109941  0  0.96949  0  0  0.112193  0  0.965891  0  0  0.134883  0.108249  0  0.972071  0
H  H14  1  0.96982407  0.90356393  0.97412222  1  0  0.092942  0  0.997661  0  0.060941  0  0.105086  0  1.061309  0  0  0.107139  0  1.061181  0  0  0.098628  0.103601  0  1.061462  0
H  H15  1  0.09643972  0.03017619  0.52587071  1  0  0.092944  0  0.997737  0  0.061203  0  0.105079  0  1.061384  0  0  0.107134  0  1.061259  0  0  0.09864  0.103597  0  1.061535  0
H  H16  1  0.03017818  0.09643761  0.02587368  1  0  0.092917  0  0.99772  0  0.061157  0  0.10507  0  1.061355  0  0  0.107123  0  1.061232  0  0  0.098635  0.103586  0  1.061506  0
H  H17  1  0.90356413  0.96982905  0.47412372  1  0  0.092929  0  0.9977  0  0.060956  0  0.105106  0  1.061294  0  0  0.10716  0  1.061166  0  0  0.098651  0.103622  0  1.061447  0
H  H18  1  0.26238371  0.98126829  0.02833901  1  0  0.424437  0  0.863608  0  0.639934  0  0.392639  0  0.93394  0  0  0.40238  0  0.91976  0  0  0.298415  0.385701  0  0.944046  0
H  H19  1  0.01879128  0.73761957  0.47169525  1  0  0.424559  0  0.863575  0  0.640063  0  0.392787  0  0.933741  0  0  0.402534  0  0.91955  0  0  0.298526  0.385859  0  0.943833  0
H  H20  1  0.73761724  0.01880064  0.97169803  1  0  0.424627  0  0.863451  0  0.640384  0  0.392857  0  0.933633  0  0  0.402605  0  0.919441  0  0  0.298534  0.385928  0  0.943725  0
H  H21  1  0.98126238  0.26238380  0.52833831  1  0  0.424428  0  0.863585  0  0.639977  0  0.392626  0  0.933949  0  0  0.402369  0  0.919768  0  0  0.298407  0.385688  0  0.944056  0
H  H22  1  0.43604831  0.93187933  0.97629623  1  0  0.442208  0  0.809723  0  0.635995  0  0.421864  0  0.867117  0  0  0.431188  0  0.856018  0  0  0.320278  0.415068  0  0.875327  0
H  H23  1  0.06798916  0.56384284  0.52367546  1  0  0.442383  0  0.809382  0  0.637399  0  0.422029  0  0.866805  0  0  0.431352  0  0.855698  0  0  0.320267  0.415229  0  0.875026  0
H  H24  1  0.56383507  0.06798958  0.02367658  1  0  0.442334  0  0.809404  0  0.637378  0  0.421981  0  0.866825  0  0  0.431304  0  0.855719  0  0  0.320234  0.415181  0  0.875046  0
H  H25  1  0.93188614  0.43605355  0.47629670  1  0  0.442209  0  0.809743  0  0.635978  0  0.42186  0  0.867143  0  0  0.431183  0  0.856045  0  0  0.320276  0.41506  0  0.875364  0
H  H26  1  0.66257440  0.23268258  0.86719816  1  0  0.421947  0  0.87969  0  0.650074  0  0.390237  0  0.943984  0  0  0.401292  0  0.927918  0  0  0.290042  0.382417  0  0.955334  0
H  H27  1  0.76731627  0.33743393  0.63279737  1  0  0.421938  0  0.879696  0  0.650166  0  0.390179  0  0.944047  0  0  0.401219  0  0.928001  0  0  0.290072  0.382361  0  0.955391  0
H  H28  1  0.33743515  0.76731805  0.13279548  1  0  0.421949  0  0.879684  0  0.650202  0  0.390191  0  0.944027  0  0  0.401228  0  0.927985  0  0  0.290077  0.382374  0  0.955369  0
H  H29  1  0.23268121  0.66257347  0.36719774  1  0  0.421947  0  0.879687  0  0.650067  0  0.39024  0  0.943977  0  0  0.401294  0  0.927912  0  0  0.290044  0.38242  0  0.955325  0
H  H30  1  0.55438903  0.40033537  0.87411978  1  0  0.428381  0  0.856257  0  0.6279  0  0.398968  0  0.925967  0  0  0.408579  0  0.912103  0  0  0.297035  0.392158  0  0.935774  0
H  H31  1  0.59966356  0.44561607  0.62587622  1  0  0.428431  0  0.856284  0  0.627738  0  0.399017  0  0.925918  0  0  0.408628  0  0.912054  0  0  0.297084  0.392208  0  0.935724  0
H  H32  1  0.44561607  0.59966387  0.12587541  1  0  0.428408  0  0.856218  0  0.627745  0  0.398993  0  0.925929  0  0  0.408603  0  0.912066  0  0  0.297065  0.392183  0  0.935737  0
H  H33  1  0.40033325  0.55438888  0.37412062  1  0  0.428438  0  0.856201  0  0.627894  0  0.39902  0  0.925903  0  0  0.408632  0  0.912039  0  0  0.297056  0.392211  0  0.93571  0
C  C34  1  0.21224950  0.48660113  0.17447795  1  0  0.623284  0  3.953107  0  1.576495  0  0.576003  0  4.243678  0  0  0.609829  0  4.238543  0  0  0.187748  0.553057  0  4.246328  0
C  C35  1  0.51340358  0.78774588  0.32552332  1  0  0.623333  0  3.953154  0  1.576528  0  0.576061  0  4.243715  0  0  0.609882  0  4.238575  0  0  0.187672  0.553113  0  4.246373  0
C  C36  1  0.78775433  0.51340408  0.82552142  1  0  0.623253  0  3.953248  0  1.576341  0  0.575989  0  4.243815  0  0  0.609807  0  4.238674  0  0  0.187664  0.553043  0  4.246465  0
C  C37  1  0.48659989  0.21224965  0.67447766  1  0  0.623418  0  3.953068  0  1.576492  0  0.57614  0  4.243618  0  0  0.609972  0  4.238479  0  0  0.187791  0.553192  0  4.246275  0
C  C38  1  0.17501762  0.56137824  0.08584538  1  0  -0.07754  0  3.758482  0  -0.012572  0  -0.065246  0  3.998345  0  0  -0.072377  0  4.021198  0  0  -0.025424  -0.060695  0  3.983098  0
C  C39  1  0.43863014  0.82498214  0.41415335  1  0  -0.077565  0  3.758514  0  -0.012688  0  -0.065282  0  3.998393  0  0  -0.072393  0  4.021219  0  0  -0.025453  -0.060727  0  3.983148  0
C  C40  1  0.82498361  0.43862807  0.91415423  1  0  -0.07759  0  3.758423  0  -0.012582  0  -0.065358  0  3.998401  0  0  -0.072458  0  4.021213  0  0  -0.025482  -0.06081  0  3.983155  0
C  C41  1  0.56137561  0.17501953  0.58584566  1  0  -0.077598  0  3.758514  0  -0.012729  0  -0.06527  0  3.99832  0  0  -0.072416  0  4.021194  0  0  -0.025425  -0.060716  0  3.983078  0
C  C42  1  0.23096266  0.47306121  0.02111166  1  0  -0.12013  0  3.68051  0  0.012077  0  -0.149037  0  3.930125  0  0  -0.148443  0  3.946993  0  0  -0.081087  -0.149297  0  3.918752  0
C  C43  1  0.52694068  0.76903825  0.47888917  1  0  -0.120115  0  3.680571  0  0.012214  0  -0.149011  0  3.93017  0  0  -0.148421  0  3.947028  0  0  -0.081072  -0.149273  0  3.918806  0
C  C44  1  0.76904049  0.52694155  0.97888883  1  0  -0.12006  0  3.68055  0  0.012213  0  -0.148956  0  3.93014  0  0  -0.14837  0  3.946998  0  0  -0.081046  -0.149217  0  3.91877  0
C  C45  1  0.47306130  0.23096447  0.52111089  1  0  -0.120178  0  3.680553  0  0.012066  0  -0.149092  0  3.930156  0  0  -0.148492  0  3.947025  0  0  -0.081114  -0.149352  0  3.918787  0
C  C46  1  0.18821235  0.53968622  0.94021315  1  0  0.15746  0  3.82264  0  0.381276  0  0.154289  0  4.065414  0  0  0.158098  0  4.089597  0  0  0.084311  0.151586  0  4.049058  0
C  C47  1  0.46031231  0.81178644  0.55978694  1  0  0.157461  0  3.822616  0  0.381238  0  0.154307  0  4.065384  0  0  0.158118  0  4.089571  0  0  0.084313  0.151605  0  4.049035  0
C  C48  1  0.81179131  0.46031415  0.05978640  1  0  0.157521  0  3.822577  0  0.381269  0  0.154405  0  4.065275  0  0  0.158216  0  4.08946  0  0  0.084336  0.151702  0  4.048921  0
C  C49  1  0.53968875  0.18821503  0.44021286  1  0  0.157475  0  3.822602  0  0.381442  0  0.154323  0  4.065391  0  0  0.158131  0  4.089575  0  0  0.084322  0.151622  0  4.049041  0
C  C50  1  0.15194522  0.59969360  0.80686771  1  0  0.285471  0  3.714971  0  1.067409  0  0.219858  0  4.001704  0  0  0.239585  0  4.013264  0  0  0.145628  0.20682  0  3.993307  0
C  C51  1  0.40030762  0.84805008  0.69313188  1  0  0.285561  0  3.714749  0  1.06729  0  0.219956  0  4.001491  0  0  0.239694  0  4.013037  0  0  0.145694  0.206923  0  3.993091  0
C  C52  1  0.84805541  0.40030423  0.19313274  1  0  0.285473  0  3.714905  0  1.067415  0  0.219871  0  4.001664  0  0  0.239609  0  4.01321  0  0  0.145597  0.206832  0  3.99327  0
C  C53  1  0.59969134  0.15195010  0.30686784  1  0  0.285565  0  3.714792  0  1.067518  0  0.220004  0  4.00153  0  0  0.239737  0  4.013085  0  0  0.145732  0.206971  0  3.993131  0
C  C54  1  0.09486600  0.69540741  0.92283701  1  0  0.165111  0  3.849237  0  0.444853  0  0.16106  0  4.092548  0  0  0.166473  0  4.116205  0  0  0.081483  0.15739  0  4.076497  0
C  C55  1  0.30458986  0.90513280  0.57716201  1  0  0.165175  0  3.849188  0  0.444683  0  0.161059  0  4.092584  0  0  0.166462  0  4.11626  0  0  0.081484  0.15739  0  4.076536  0
C  C56  1  0.90513488  0.30458923  0.07716235  1  0  0.165107  0  3.849203  0  0.444511  0  0.161007  0  4.092543  0  0  0.166418  0  4.116205  0  0  0.08149  0.157339  0  4.076491  0
C  C57  1  0.69541096  0.09486988  0.42283639  1  0  0.165156  0  3.849278  0  0.444782  0  0.161032  0  4.0927  0  0  0.166448  0  4.116353  0  0  0.081467  0.157364  0  4.076651  0
C  C58  1  0.03947690  0.78366767  0.98736992  1  0  -0.173431  0  3.759134  0  0.011334  0  -0.200583  0  4.011638  0  0  -0.203845  0  4.031966  0  0  -0.103089  -0.198311  0  3.997899  0
C  C59  1  0.21633500  0.96052451  0.51262781  1  0  -0.173494  0  3.759318  0  0.011171  0  -0.200616  0  4.011863  0  0  -0.203879  0  4.032201  0  0  -0.103126  -0.198345  0  3.998127  0
C  C60  1  0.96052533  0.21633384  0.01263030  1  0  -0.17342  0  3.759294  0  0.011361  0  -0.20055  0  4.011811  0  0  -0.203814  0  4.032145  0  0  -0.103109  -0.198281  0  3.998072  0
C  C61  1  0.78366883  0.03948071  0.48737033  1  0  -0.173431  0  3.759175  0  0.011295  0  -0.200577  0  4.011707  0  0  -0.203843  0  4.03204  0  0  -0.103122  -0.198305  0  3.99797  0
C  C62  1  0.07877441  0.71532472  0.06903089  1  0  -0.099853  0  3.808257  0  -0.079145  0  -0.087443  0  4.052637  0  0  -0.092438  0  4.074712  0  0  -0.028511  -0.084085  0  4.037775  0
C  C63  1  0.28468479  0.92122730  0.43096609  1  0  -0.099814  0  3.808285  0  -0.079177  0  -0.08746  0  4.05265  0  0  -0.092456  0  4.074702  0  0  -0.028461  -0.084099  0  4.03779  0
C  C64  1  0.92122918  0.28468169  0.93096771  1  0  -0.099785  0  3.808122  0  -0.079211  0  -0.087447  0  4.052548  0  0  -0.092447  0  4.0746  0  0  -0.02846  -0.084084  0  4.037682  0
C  C65  1  0.71532375  0.07877810  0.56903065  1  0  -0.099906  0  3.808226  0  -0.079127  0  -0.087524  0  4.052599  0  0  -0.092517  0  4.074681  0  0  -0.028528  -0.084164  0  4.037742  0
C  C66  1  0.02678719  0.81682502  0.13467140  1  0  0.672736  0  3.876106  0  1.567999  0  0.613957  0  4.175802  0  0  0.649682  0  4.167552  0  0  0.211841  0.589622  0  4.180645  0
C  C67  1  0.18318672  0.97322247  0.36532330  1  0  0.672652  0  3.876181  0  1.568459  0  0.613984  0  4.175708  0  0  0.649742  0  4.167434  0  0  0.211781  0.589648  0  4.180553  0
C  C68  1  0.97322061  0.18318399  0.86532364  1  0  0.672666  0  3.876157  0  1.568452  0  0.61399  0  4.175712  0  0  0.649749  0  4.167436  0  0  0.211768  0.589653  0  4.180556  0
C  C69  1  0.81682317  0.02678783  0.63467305  1  0  0.672844  0  3.876022  0  1.568082  0  0.614103  0  4.175664  0  0  0.649834  0  4.167406  0  0  0.211892  0.589766  0  4.180511  0
N  N70  1  0.22068003  0.48150894  0.86535166  1  0  -0.496364  0  3.219471  0  -1.274438  0  -0.414093  0  3.502287  0  0  -0.442008  0  3.519909  0  0  -0.373498  -0.394908  0  3.489693  0
N  N71  1  0.51849167  0.77931821  0.63464696  1  0  -0.496435  0  3.219497  0  -1.274458  0  -0.414171  0  3.502315  0  0  -0.442083  0  3.519928  0  0  -0.373542  -0.394989  0  3.489726  0
N  N72  1  0.77932152  0.51849014  0.13464844  1  0  -0.496397  0  3.219432  0  -1.274384  0  -0.414144  0  3.502238  0  0  -0.442057  0  3.519852  0  0  -0.373484  -0.394961  0  3.489648  0
N  N73  1  0.48150847  0.22068202  0.36535257  1  0  -0.496447  0  3.219511  0  -1.274466  0  -0.414175  0  3.502305  0  0  -0.442089  0  3.519924  0  0  -0.373543  -0.394992  0  3.489713  0
N  N74  1  0.07385456  0.73050086  0.83787404  1  0  -0.497155  0  3.202199  0  -1.265813  0  -0.417337  0  3.488163  0  0  -0.445085  0  3.503939  0  0  -0.379894  -0.398253  0  3.476718  0
N  N75  1  0.26949418  0.92614158  0.66212576  1  0  -0.497218  0  3.201991  0  -1.265632  0  -0.417374  0  3.48797  0  0  -0.445118  0  3.503744  0  0  -0.379927  -0.398289  0  3.476525  0
N  N76  1  0.92614372  0.26949688  0.16212618  1  0  -0.497192  0  3.202172  0  -1.265832  0  -0.417359  0  3.488135  0  0  -0.445105  0  3.503908  0  0  -0.379927  -0.398274  0  3.476689  0
N  N77  1  0.73050243  0.07385851  0.33787435  1  0  -0.497207  0  3.202175  0  -1.265837  0  -0.417368  0  3.488131  0  0  -0.445116  0  3.503905  0  0  -0.379946  -0.398283  0  3.476686  0
O  O78  1  0.35132053  0.40516295  0.17776785  1  0  -0.6525  0  1.905796  0  -1.20625  0  -0.594745  0  2.124883  0  0  -0.620404  0  2.113985  0  0  -0.335927  -0.5767  0  2.131745  0
O  O79  1  0.59484595  0.64867517  0.32223581  1  0  -0.65243  0  1.905822  0  -1.206404  0  -0.594677  0  2.124906  0  0  -0.620334  0  2.114006  0  0  -0.335776  -0.576631  0  2.13177  0
O  O80  1  0.64868347  0.59484709  0.82223318  1  0  -0.652511  0  1.905829  0  -1.206262  0  -0.594751  0  2.124908  0  0  -0.62041  0  2.11401  0  0  -0.335858  -0.576704  0  2.131772  0
O  O81  1  0.40515960  0.35132163  0.67776772  1  0  -0.652537  0  1.905766  0  -1.206276  0  -0.59479  0  2.124852  0  0  -0.620445  0  2.113947  0  0  -0.335911  -0.576743  0  2.131717  0
O  O82  1  0.10230074  0.50776405  0.24430039  1  0  -0.633272  0  1.933525  0  -1.176186  0  -0.567141  0  2.163975  0  0  -0.597143  0  2.154629  0  0  -0.331389  -0.546047  0  2.169589  0
O  O83  1  0.49224265  0.89769238  0.25569967  1  0  -0.633362  0  1.933465  0  -1.176037  0  -0.567245  0  2.163945  0  0  -0.597243  0  2.154591  0  0  -0.331469  -0.546152  0  2.169564  0
O  O84  1  0.89769914  0.49223737  0.75570021  1  0  -0.633232  0  1.93355  0  -1.176045  0  -0.567096  0  2.163979  0  0  -0.597103  0  2.154648  0  0  -0.331368  -0.546005  0  2.169596  0
O  O85  1  0.50776133  0.10230076  0.74429977  1  0  -0.633314  0  1.933496  0  -1.176167  0  -0.567191  0  2.163953  0  0  -0.597198  0  2.154616  0  0  -0.331431  -0.546094  0  2.169567  0
O  O86  1  0.87979688  0.85947095  0.16922068  1  0  -0.630621  0  2.00277  0  -1.182789  0  -0.559537  0  2.260138  0  0  -0.590022  0  2.247407  0  0  -0.304501  -0.538172  0  2.268179  0
O  O87  1  0.14053148  0.12021724  0.33078045  1  0  -0.630676  0  2.002716  0  -1.18307  0  -0.559639  0  2.260028  0  0  -0.590116  0  2.247267  0  0  -0.304552  -0.538267  0  2.268066  0
O  O88  1  0.12021645  0.14052252  0.83078521  1  0  -0.630679  0  2.002809  0  -1.183038  0  -0.55963  0  2.260117  0  0  -0.590107  0  2.247355  0  0  -0.304521  -0.538259  0  2.268154  0
O  O89  1  0.85946732  0.87979501  0.66922168  1  0  -0.630707  0  2.002776  0  -1.1828  0  -0.559628  0  2.260115  0  0  -0.590109  0  2.247376  0  0  -0.304516  -0.538258  0  2.268156  0
O  O90  1  0.13634397  0.87274874  0.14915592  1  0  -0.663114  0  2.003947  0  -1.194173  0  -0.577222  0  2.231706  0  0  -0.608024  0  2.218592  0  0  -0.313887  -0.555677  0  2.240067  0
O  O91  1  0.12727511  0.86366673  0.35083176  1  0  -0.663037  0  2.004003  0  -1.194306  0  -0.577094  0  2.231589  0  0  -0.608015  0  2.218573  0  0  -0.313788  -0.555572  0  2.239982  0
O  O92  1  0.86366439  0.12727483  0.85083239  1  0  -0.663082  0  2.003977  0  -1.194366  0  -0.577128  0  2.231558  0  0  -0.608048  0  2.218542  0  0  -0.313804  -0.5556  0  2.239937  0
O  O93  1  0.87274420  0.13634398  0.64915747  1  0  -0.663115  0  2.003943  0  -1.194229  0  -0.577212  0  2.231656  0  0  -0.60804  0  2.218572  0  0  -0.313881  -0.555668  0  2.240022  0
O  O94  1  0.55092128  0.28431602  0.88977326  1  0  -0.854129  0  1.884087  0  -1.262012  0  -0.794284  0  2.081783  0  0  -0.816557  0  2.048034  0  0  -0.587111  -0.778379  0  2.105144  0
O  O95  1  0.71568407  0.44908310  0.61021775  1  0  -0.854196  0  1.884129  0  -1.261918  0  -0.794274  0  2.081848  0  0  -0.816553  0  2.048134  0  0  -0.587181  -0.778368  0  2.105209  0
O  O96  1  0.44908453  0.71568570  0.11021526  1  0  -0.854187  0  1.884046  0  -1.261975  0  -0.794257  0  2.081844  0  0  -0.81654  0  2.048142  0  0  -0.587177  -0.778355  0  2.105205  0
O  O97  1  0.28431276  0.55092188  0.38977415  1  0  -0.854183  0  1.884032  0  -1.262008  0  -0.794336  0  2.081718  0  0  -0.816609  0  2.047968  0  0  -0.587122  -0.778429  0  2.105078  0
O  O98  1  0.34657047  0.02170196  0.97678209  1  0  -0.829101  0  1.839905  0  -1.251573  0  -0.770419  0  2.031991  0  0  -0.790476  0  2.001624  0  0  -0.578261  -0.756202  0  2.053478  0
O  O99  1  0.97830059  0.65346173  0.52324780  1  0  -0.829453  0  1.839545  0  -1.253267  0  -0.770857  0  2.031681  0  0  -0.790901  0  2.001289  0  0  -0.578507  -0.756604  0  2.053118  0
O  O100  1  0.65346032  0.97830896  0.02325207  1  0  -0.829453  0  1.839488  0  -1.253566  0  -0.770851  0  2.031654  0  0  -0.790897  0  2.001263  0  0  -0.578473  -0.756598  0  2.053096  0
O  O101  1  0.02170160  0.34656742  0.47678125  1  0  -0.8291  0  1.839878  0  -1.2516  0  -0.770405  0  2.031979  0  0  -0.790461  0  2.001612  0  0  -0.578253  -0.756181  0  2.053475  0
