# generated using pymatgen
data_CdH29C32N5O6
_symmetry_space_group_name_H-M   'P 1'
_cell_length_a   9.12985460
_cell_length_b   14.01567789
_cell_length_c   23.92151244
_cell_angle_alpha   89.99997362
_cell_angle_beta   89.99998489
_cell_angle_gamma   90.00002399
_symmetry_Int_Tables_number   1
_chemical_formula_structural   CdH29C32N5O6
_chemical_formula_sum   'Cd4 H116 C128 N20 O24'
_cell_volume   3061.02307452
_cell_formula_units_Z   4
loop_
 _symmetry_equiv_pos_site_id
 _symmetry_equiv_pos_as_xyz
  1  'x, y, z'
loop_
 _atom_site_type_symbol
 _atom_site_label
 _atom_site_symmetry_multiplicity
 _atom_site_fract_x
 _atom_site_fract_y
 _atom_site_fract_z
 _atom_site_occupancy
 _atom_site_pbe_bader_charge
 _atom_site_pbe_bader_spin_density
 _atom_site_pbe_cm5_charge
 _atom_site_pbe_ddec_charge
 _atom_site_pbe_ddec_spin_density
 _atom_site_pbe_ddec_sum_bond_order
 _atom_site_pbe_magmom
Cd  Cd0  1  0.77585138  0.61461450  0.46748662  1  1.265044  0  0.762347  0.871492  0  2.113165  0
Cd  Cd1  1  0.72414932  0.38538600  0.96748807  1  1.265047  0  0.76234  0.871492  0  2.113198  0
Cd  Cd2  1  0.27585225  0.88538405  0.53251218  1  1.265101  0  0.762351  0.871517  0  2.113153  0
Cd  Cd3  1  0.22414817  0.11461524  0.03251255  1  1.26503  0  0.762366  0.871522  0  2.113112  0
H  H4  1  0.24977837  0.36567471  0.27280919  1  0.040847  0  0.099161  0.090966  0  1.046811  0
H  H5  1  0.25022188  0.63432367  0.77280932  1  0.040817  0  0.099167  0.090966  0  1.046825  0
H  H6  1  0.74977953  0.13432439  0.72719017  1  0.040827  0  0.099158  0.090968  0  1.046801  0
H  H7  1  0.75022026  0.86567630  0.22719158  1  0.04089  0  0.099205  0.091  0  1.046777  0
H  H8  1  0.23811336  0.30773035  0.17585003  1  0.08462  0  0.09847  0.097437  0  1.045406  0
H  H9  1  0.26188806  0.69227025  0.67585055  1  0.084575  0  0.098465  0.097417  0  1.045417  0
H  H10  1  0.73811010  0.19227018  0.82414975  1  0.084569  0  0.098461  0.097407  0  1.045419  0
H  H11  1  0.76189071  0.80773044  0.32415076  1  0.085004  0  0.098485  0.097474  0  1.04542  0
H  H12  1  0.36293249  0.39406300  0.09973568  1  0.08233  0  0.104244  0.105748  0  1.026291  0
H  H13  1  0.13706789  0.60593765  0.59973666  1  0.082359  0  0.10425  0.105788  0  1.026271  0
H  H14  1  0.86293022  0.10593613  0.90026367  1  0.082364  0  0.104255  0.105777  0  1.026265  0
H  H15  1  0.63707163  0.89406514  0.40026509  1  0.082371  0  0.10424  0.105733  0  1.026276  0
H  H16  1  0.49982299  0.54481277  0.12044923  1  0.058237  0  0.102377  0.101875  0  0.99143  0
H  H17  1  0.00017737  0.45518787  0.62045026  1  0.058256  0  0.10239  0.101882  0  0.99139  0
H  H18  1  0.99982206  0.95518655  0.87954998  1  0.058235  0  0.102383  0.101864  0  0.991429  0
H  H19  1  0.50017871  0.04481402  0.37955122  1  0.058222  0  0.102373  0.101859  0  0.991446  0
H  H20  1  0.49507701  0.61102144  0.21738832  1  0.06794  0  0.102727  0.101287  0  1.02399  0
H  H21  1  0.00492219  0.38897912  0.71738937  1  0.067946  0  0.102706  0.101302  0  1.023941  0
H  H22  1  0.99507501  0.88897859  0.78261046  1  0.067957  0  0.102695  0.101273  0  1.02399  0
H  H23  1  0.50492145  0.11102134  0.28261169  1  0.067932  0  0.102735  0.101283  0  1.024031  0
H  H24  1  0.26814342  0.58204022  0.40684960  1  0.058428  0  0.115509  0.081902  0  0.980138  0
H  H25  1  0.23185564  0.41796019  0.90685020  1  0.058431  0  0.115512  0.08186  0  0.980143  0
H  H26  1  0.76814595  0.91796046  0.59315046  1  0.058448  0  0.115517  0.0819  0  0.980116  0
H  H27  1  0.73185502  0.08203962  0.09315042  1  0.058448  0  0.115519  0.081908  0  0.98011  0
H  H28  1  0.35591691  0.38891434  0.45688576  1  0.032068  0  0.090868  0.085751  0  0.997187  0
H  H29  1  0.14408321  0.61108461  0.95688548  1  0.032074  0  0.090864  0.085749  0  0.997221  0
H  H30  1  0.85591380  0.11108408  0.54311443  1  0.032104  0  0.090871  0.085777  0  0.997244  0
H  H31  1  0.64408282  0.88891533  0.04311460  1  0.032077  0  0.090865  0.085751  0  0.997224  0
H  H32  1  0.18345635  0.40589032  0.42385315  1  0.039854  0  0.095561  0.093295  0  1.003189  0
H  H33  1  0.31654270  0.59410937  0.92385328  1  0.039867  0  0.095572  0.093309  0  1.003177  0
H  H34  1  0.68345649  0.09410805  0.57614663  1  0.039871  0  0.095568  0.09333  0  1.003159  0
H  H35  1  0.81654230  0.90589062  0.07614678  1  0.039872  0  0.095556  0.093298  0  1.003216  0
H  H36  1  0.18078925  0.42170971  0.52965039  1  0.047087  0  0.096965  0.11029  0  0.9927  0
H  H37  1  0.31920899  0.57828815  0.02965021  1  0.04713  0  0.09697  0.110287  0  0.992611  0
H  H38  1  0.68078945  0.07828795  0.47034940  1  0.047121  0  0.096992  0.110356  0  0.992624  0
H  H39  1  0.81920906  0.92171184  0.97034943  1  0.047132  0  0.096957  0.110296  0  0.992574  0
H  H40  1  0.28409213  0.52870205  0.52321349  1  0.054773  0  0.097309  0.108914  0  1.014447  0
H  H41  1  0.21590720  0.47129724  0.02321334  1  0.054757  0  0.097329  0.108941  0  1.014425  0
H  H42  1  0.78409369  0.97129650  0.47678657  1  0.054741  0  0.097335  0.108956  0  1.014467  0
H  H43  1  0.71590592  0.02870328  0.97678686  1  0.054742  0  0.097319  0.108903  0  1.014461  0
H  H44  1  0.04993735  0.68071470  0.39659690  1  0.117875  0  0.116397  0.091833  0  1.008989  0
H  H45  1  0.45006610  0.31928716  0.89659876  1  0.117844  0  0.116404  0.091843  0  1.008957  0
H  H46  1  0.54993981  0.81928522  0.60340276  1  0.117843  0  0.116423  0.091865  0  1.008987  0
H  H47  1  0.95006554  0.18071200  0.10340142  1  0.117841  0  0.116407  0.091842  0  1.008958  0
H  H48  1  0.13759158  0.69635223  0.29863904  1  0.096425  0  0.105919  0.115273  0  1.050169  0
H  H49  1  0.36240865  0.30364755  0.79864133  1  0.096458  0  0.105895  0.11523  0  1.050223  0
H  H50  1  0.63759067  0.80364842  0.70136145  1  0.096443  0  0.105905  0.115251  0  1.050144  0
H  H51  1  0.86240913  0.19635087  0.20135927  1  0.096392  0  0.105881  0.115211  0  1.050163  0
H  H52  1  0.70260495  0.62194566  0.24396313  1  0.086002  0  0.104714  0.106957  0  1.049789  0
H  H53  1  0.79739591  0.37805574  0.74396332  1  0.085999  0  0.104737  0.106986  0  1.049766  0
H  H54  1  0.20260127  0.87805501  0.75603568  1  0.086007  0  0.104732  0.106989  0  1.04969  0
H  H55  1  0.29740009  0.12194624  0.25603520  1  0.085995  0  0.104751  0.107022  0  1.049689  0
H  H56  1  0.63475827  0.60186381  0.34455879  1  0.104055  0  0.113848  0.086585  0  1.038602  0
H  H57  1  0.86524362  0.39813679  0.84455896  1  0.104026  0  0.11386  0.08657  0  1.038591  0
H  H58  1  0.13475686  0.89813185  0.65543920  1  0.104052  0  0.113864  0.086636  0  1.03853  0
H  H59  1  0.36524676  0.10186734  0.15543914  1  0.103999  0  0.113877  0.086664  0  1.038491  0
H  H60  1  0.19633294  0.63831727  0.21658236  1  0.102491  0  0.105726  0.113218  0  1.036899  0
H  H61  1  0.30366516  0.36168259  0.71658339  1  0.102435  0  0.105712  0.11317  0  1.036932  0
H  H62  1  0.69633092  0.86168340  0.78341687  1  0.102491  0  0.105733  0.113212  0  1.0369  0
H  H63  1  0.80366554  0.13831653  0.28341680  1  0.102437  0  0.10571  0.113161  0  1.036932  0
H  H64  1  0.25722552  0.64730511  0.11553816  1  0.074073  0  0.103453  0.092932  0  1.019422  0
H  H65  1  0.24277485  0.35269483  0.61553836  1  0.074084  0  0.103455  0.092922  0  1.019421  0
H  H66  1  0.75722999  0.85269487  0.88446148  1  0.074033  0  0.103457  0.092925  0  1.019333  0
H  H67  1  0.74277297  0.14730642  0.38446142  1  0.074073  0  0.103454  0.09293  0  1.019369  0
H  H68  1  0.05478969  0.68418167  0.04663492  1  0.06786  0  0.107804  0.111862  0  0.994525  0
H  H69  1  0.44521182  0.31581689  0.54663510  1  0.067874  0  0.107808  0.111873  0  0.994556  0
H  H70  1  0.55478971  0.81581754  0.95336433  1  0.067889  0  0.107785  0.111828  0  0.994574  0
H  H71  1  0.94520991  0.18418298  0.45336382  1  0.06791  0  0.10781  0.11187  0  0.994536  0
H  H72  1  0.80254529  0.71037528  0.08358906  1  0.071233  0  0.110522  0.076365  0  0.977011  0
H  H73  1  0.69745568  0.28962410  0.58359012  1  0.071245  0  0.110534  0.07638  0  0.977011  0
H  H74  1  0.30254363  0.78962613  0.91640974  1  0.071256  0  0.110563  0.076383  0  0.976996  0
H  H75  1  0.19745542  0.21037285  0.41640883  1  0.071272  0  0.110582  0.076395  0  0.977026  0
H  H76  1  0.89776679  0.71093590  0.57528456  1  0.137403  0  0.117038  0.092553  0  1.029618  0
H  H77  1  0.60223638  0.28906349  0.07528572  1  0.137502  0  0.117023  0.09253  0  1.029613  0
H  H78  1  0.39776438  0.78906482  0.42471382  1  0.137516  0  0.117041  0.092516  0  1.029643  0
H  H79  1  0.10223576  0.21093558  0.92471533  1  0.137423  0  0.117044  0.09253  0  1.029671  0
H  H80  1  0.87285179  0.71307417  0.67756028  1  0.125368  0  0.109918  0.12739  0  1.028844  0
H  H81  1  0.62714803  0.28692584  0.17756103  1  0.125344  0  0.109911  0.127371  0  1.028858  0
H  H82  1  0.37285055  0.78692726  0.32243852  1  0.125363  0  0.109927  0.127394  0  1.028852  0
H  H83  1  0.12714967  0.21307251  0.82244002  1  0.1254  0  0.109932  0.127369  0  1.028867  0
H  H84  1  0.51079777  0.51689240  0.66144470  1  0.123656  0  0.103195  0.108743  0  1.051383  0
H  H85  1  0.98920205  0.48310977  0.16144620  1  0.1236  0  0.103228  0.108816  0  1.051314  0
H  H86  1  0.01079884  0.98310822  0.33855580  1  0.123638  0  0.103226  0.108809  0  1.051358  0
H  H87  1  0.48920137  0.01689011  0.83855690  1  0.123646  0  0.103221  0.108795  0  1.051402  0
H  H88  1  0.55297263  0.52043205  0.55763145  1  0.082908  0  0.111226  0.078173  0  1.013822  0
H  H89  1  0.94702946  0.47956735  0.05763211  1  0.082976  0  0.111205  0.078117  0  1.013877  0
H  H90  1  0.05297143  0.97956715  0.44236863  1  0.082979  0  0.111224  0.07816  0  1.013849  0
H  H91  1  0.44702979  0.02043252  0.94237099  1  0.082849  0  0.111259  0.078138  0  1.013899  0
H  H92  1  0.89524640  0.65676720  0.75893307  1  0.060761  0  0.101296  0.108277  0  1.029154  0
H  H93  1  0.60475007  0.34323347  0.25893297  1  0.060715  0  0.101272  0.10826  0  1.029145  0
H  H94  1  0.39524635  0.84323281  0.24106656  1  0.060769  0  0.101298  0.108304  0  1.029143  0
H  H95  1  0.10475502  0.15676488  0.74106850  1  0.060775  0  0.101315  0.108326  0  1.029083  0
H  H96  1  0.85837721  0.64179464  0.86270995  1  0.067396  0  0.101786  0.100979  0  0.998679  0
H  H97  1  0.64161700  0.35820595  0.36271026  1  0.067321  0  0.101774  0.100927  0  0.998693  0
H  H98  1  0.35837943  0.85820322  0.13728968  1  0.067354  0  0.101796  0.100936  0  0.998673  0
H  H99  1  0.14162311  0.14179669  0.63729162  1  0.06744  0  0.101766  0.100912  0  0.998678  0
H  H100  1  0.61549927  0.58586508  0.89842469  1  0.106028  0  0.104844  0.123776  0  1.032753  0
H  H101  1  0.88449382  0.41413477  0.39842621  1  0.106263  0  0.10483  0.123787  0  1.032753  0
H  H102  1  0.11550375  0.91413628  0.10157413  1  0.106153  0  0.104826  0.123765  0  1.032764  0
H  H103  1  0.38449882  0.08586366  0.60157648  1  0.106086  0  0.104869  0.123816  0  1.03268  0
H  H104  1  0.42011063  0.54616026  0.82908544  1  0.041843  0  0.099794  0.059063  0  1.03921  0
H  H105  1  0.07988411  0.45384093  0.32908740  1  0.041877  0  0.099803  0.059108  0  1.039182  0
H  H106  1  0.92011677  0.95384546  0.17091335  1  0.041983  0  0.0998  0.059148  0  1.039173  0
H  H107  1  0.57988524  0.04615384  0.67091574  1  0.04201  0  0.099807  0.059138  0  1.039135  0
H  H108  1  0.36375717  0.40929371  0.34874293  1  0.427213  0  0.320567  0.274432  0  0.940016  0
H  H109  1  0.13624193  0.59070604  0.84874349  1  0.427217  0  0.320515  0.274322  0  0.940046  0
H  H110  1  0.86375726  0.09070614  0.65125643  1  0.427213  0  0.320576  0.27441  0  0.940035  0
H  H111  1  0.63624258  0.90929318  0.15125742  1  0.427203  0  0.320531  0.274407  0  0.940043  0
H  H112  1  0.70616249  0.81388276  0.48580902  1  0.64333  0  0.277669  0.373259  0  0.976337  0
H  H113  1  0.79383930  0.18611701  0.98580926  1  0.643329  0  0.277644  0.373225  0  0.976381  0
H  H114  1  0.20615995  0.68611577  0.51419021  1  0.643309  0  0.277649  0.373217  0  0.976387  0
H  H115  1  0.29383829  0.31388425  0.01419052  1  0.643289  0  0.277655  0.373226  0  0.976377  0
H  H116  1  0.87553320  0.80619996  0.49867944  1  0.642212  0  0.283212  0.381283  0  0.958898  0
H  H117  1  0.62446749  0.19379981  0.99867969  1  0.642211  0  0.283204  0.381286  0  0.958893  0
H  H118  1  0.37553286  0.69380005  0.50131978  1  0.642205  0  0.283198  0.381269  0  0.958916  0
H  H119  1  0.12446758  0.30620140  0.00132010  1  0.642201  0  0.283207  0.381272  0  0.958913  0
C  C120  1  0.30551970  0.40586330  0.24010348  1  0.001448  0  -0.085134  -0.107025  0  3.985713  0
C  C121  1  0.19447729  0.59413796  0.74010362  1  0.001469  0  -0.085096  -0.106992  0  3.985607  0
C  C122  1  0.80552299  0.09413796  0.75989630  1  0.001441  0  -0.085112  -0.106998  0  3.985669  0
C  C123  1  0.69448552  0.90586556  0.25989813  1  0.001464  0  -0.085178  -0.107014  0  3.985833  0
C  C124  1  0.29868061  0.37247214  0.18521816  1  0.002007  0  -0.086356  -0.064563  0  3.973356  0
C  C125  1  0.20131971  0.62752845  0.68521787  1  0.002027  0  -0.086376  -0.064553  0  3.973358  0
C  C126  1  0.79867950  0.12752840  0.81478162  1  0.00205  0  -0.08637  -0.064539  0  3.973343  0
C  C127  1  0.70132131  0.87247293  0.31478346  1  0.001595  0  -0.086394  -0.064721  0  3.973521  0
C  C128  1  0.36729181  0.42219363  0.14212096  1  -0.086716  0  -0.083038  -0.066499  0  3.965216  0
C  C129  1  0.13270854  0.57780628  0.64212152  1  -0.08666  0  -0.083045  -0.066583  0  3.965307  0
C  C130  1  0.86729064  0.07780551  0.85787840  1  -0.086656  0  -0.083027  -0.066539  0  3.965247  0
C  C131  1  0.63271124  0.92219580  0.35788023  1  -0.086814  0  -0.083046  -0.06642  0  3.965184  0
C  C132  1  0.44245185  0.50686382  0.15373893  1  -0.069454  0  -0.091321  -0.087898  0  4.021291  0
C  C133  1  0.05754849  0.49313680  0.65374037  1  -0.069585  0  -0.091318  -0.087832  0  4.021204  0
C  C134  1  0.94245096  0.99313620  0.84626027  1  -0.069581  0  -0.09134  -0.08784  0  4.021264  0
C  C135  1  0.55754983  0.00686511  0.34626152  1  -0.069439  0  -0.091315  -0.087907  0  4.021217  0
C  C136  1  0.44378483  0.54273791  0.20795582  1  -0.003078  0  -0.08556  -0.103359  0  3.984794  0
C  C137  1  0.05621657  0.45726266  0.70795726  1  -0.002961  0  -0.085577  -0.103461  0  3.984688  0
C  C138  1  0.94378396  0.95726354  0.79204255  1  -0.002941  0  -0.085567  -0.103438  0  3.984716  0
C  C139  1  0.55621249  0.04273710  0.29204379  1  -0.003083  0  -0.085542  -0.10333  0  3.98479  0
C  C140  1  0.37639380  0.49228795  0.25173483  1  -0.074835  0  -0.021969  -0.04892  0  4.01514  0
C  C141  1  0.12360756  0.50771259  0.75173542  1  -0.074901  0  -0.021939  -0.048819  0  4.015021  0
C  C142  1  0.87639266  0.00771262  0.74826410  1  -0.074914  0  -0.021917  -0.048873  0  4.015094  0
C  C143  1  0.62360710  0.99228806  0.24826591  1  -0.074663  0  -0.021955  -0.048874  0  4.015084  0
C  C144  1  0.37475850  0.53829284  0.30808160  1  1.383251  0  0.235715  0.46578  0  4.1552  0
C  C145  1  0.12524063  0.46170623  0.80808220  1  1.383062  0  0.235723  0.465723  0  4.155091  0
C  C146  1  0.87475880  0.96170716  0.69191762  1  1.38304  0  0.235735  0.465819  0  4.155203  0
C  C147  1  0.62523991  0.03829213  0.19191885  1  1.382835  0  0.235718  0.465767  0  4.155045  0
C  C148  1  0.33990029  0.51932189  0.40990752  1  0.373634  0  0.011356  0.033248  0  3.832752  0
C  C149  1  0.16010096  0.48067852  0.90990728  1  0.37362  0  0.01134  0.033418  0  3.832707  0
C  C150  1  0.83989958  0.98067953  0.59009253  1  0.373561  0  0.011317  0.033322  0  3.832676  0
C  C151  1  0.66009811  0.01932127  0.09009335  1  0.373662  0  0.011349  0.033345  0  3.832673  0
C  C152  1  0.48825424  0.55342443  0.43466305  1  1.556255  0  0.193403  0.547296  0  4.190909  0
C  C153  1  0.01174589  0.44657525  0.93466367  1  1.557259  0  0.193389  0.547129  0  4.191004  0
C  C154  1  0.98825572  0.94657560  0.56533615  1  1.555617  0  0.193453  0.54725  0  4.190909  0
C  C155  1  0.51174527  0.05342450  0.06533656  1  1.555588  0  0.193425  0.547263  0  4.190892  0
C  C156  1  0.27094187  0.44230740  0.44728686  1  -0.010449  0  -0.15703  -0.166992  0  3.914064  0
C  C157  1  0.22905716  0.55769227  0.94728701  1  -0.010479  0  -0.15708  -0.167116  0  3.914163  0
C  C158  1  0.77094200  0.05769100  0.55271292  1  -0.010431  0  -0.15713  -0.167196  0  3.9142  0
C  C159  1  0.72905681  0.94230841  0.05271348  1  -0.010481  0  -0.157059  -0.167067  0  3.914201  0
C  C160  1  0.20571191  0.48181099  0.50174830  1  -0.050289  0  -0.166311  -0.291389  0  3.910775  0
C  C161  1  0.29428744  0.51818760  0.00174771  1  -0.050335  0  -0.166317  -0.291383  0  3.910677  0
C  C162  1  0.70571205  0.01818739  0.49825149  1  -0.050352  0  -0.166313  -0.291476  0  3.910687  0
C  C163  1  0.79428753  0.98181309  0.99825193  1  -0.05035  0  -0.166292  -0.291383  0  3.910639  0
C  C164  1  0.06201851  0.53498215  0.49105667  1  1.515423  0  0.193883  0.609633  0  4.170763  0
C  C165  1  0.43798049  0.46501678  0.99105682  1  1.515491  0  0.19388  0.609625  0  4.17074  0
C  C166  1  0.56201894  0.96501492  0.50894258  1  1.515384  0  0.193908  0.609683  0  4.170665  0
C  C167  1  0.93797990  0.03498452  0.00894253  1  1.515494  0  0.193896  0.609606  0  4.170718  0
C  C168  1  0.97705179  0.66669339  0.36138587  1  0.437879  0  0.046336  0.0935  0  3.939839  0
C  C169  1  0.52295227  0.33330719  0.86138777  1  0.438084  0  0.046307  0.093509  0  3.939945  0
C  C170  1  0.47705036  0.83330378  0.63861333  1  0.437869  0  0.046371  0.093535  0  3.93995  0
C  C171  1  0.02295327  0.16669399  0.13861203  1  0.438114  0  0.046285  0.093457  0  3.939883  0
C  C172  1  0.02428527  0.67669566  0.30646130  1  0.030956  0  -0.081186  -0.167435  0  3.931255  0
C  C173  1  0.47571495  0.32330484  0.80646357  1  0.031121  0  -0.081196  -0.167376  0  3.931349  0
C  C174  1  0.52428439  0.82330496  0.69353795  1  0.030994  0  -0.081199  -0.16747  0  3.931333  0
C  C175  1  0.97571651  0.17669504  0.19353619  1  0.031224  0  -0.081154  -0.167344  0  3.931326  0
C  C176  1  0.92503895  0.66159342  0.26264463  1  -0.096048  0  0.016367  0.088882  0  3.954524  0
C  C177  1  0.57496080  0.33840724  0.76264527  1  -0.096369  0  0.016375  0.088835  0  3.954483  0
C  C178  1  0.42503745  0.83840731  0.73735542  1  -0.096057  0  0.01636  0.08892  0  3.954463  0
C  C179  1  0.07496392  0.16159253  0.23735411  1  -0.096713  0  0.016342  0.088847  0  3.954517  0
C  C180  1  0.78215933  0.63497678  0.27681975  1  0.055281  0  -0.077822  -0.15202  0  3.931309  0
C  C181  1  0.71784041  0.36502388  0.77681994  1  0.05531  0  -0.077864  -0.152041  0  3.931258  0
C  C182  1  0.28215786  0.86502249  0.72317906  1  0.055323  0  -0.077833  -0.152054  0  3.93123  0
C  C183  1  0.21784352  0.13497665  0.22317859  1  0.055666  0  -0.077811  -0.152027  0  3.931256  0
C  C184  1  0.74472279  0.62342254  0.33263186  1  0.495852  0  0.046814  0.093723  0  3.951426  0
C  C185  1  0.75527911  0.37657878  0.83263121  1  0.496399  0  0.046744  0.09372  0  3.951389  0
C  C186  1  0.24472246  0.87657528  0.66736695  1  0.495848  0  0.046798  0.093709  0  3.951363  0
C  C187  1  0.25528115  0.12342461  0.16736648  1  0.495817  0  0.046687  0.093554  0  3.951463  0
C  C188  1  0.96698488  0.67090945  0.20317974  1  0.559946  0  0.120462  0.197112  0  3.990808  0
C  C189  1  0.53301492  0.32908912  0.70318080  1  0.560158  0  0.120443  0.197186  0  3.990708  0
C  C190  1  0.46698442  0.82908987  0.79681947  1  0.560148  0  0.120465  0.197086  0  3.990749  0
C  C191  1  0.03301581  0.17090992  0.29681816  1  0.560243  0  0.120472  0.197202  0  3.990579  0
C  C192  1  0.11182887  0.65543809  0.18610185  1  -0.082093  0  -0.076718  -0.149304  0  3.914205  0
C  C193  1  0.38817144  0.34456178  0.68610329  1  -0.082112  0  -0.076681  -0.149316  0  3.914119  0
C  C194  1  0.61182682  0.84456255  0.81389781  1  -0.082061  0  -0.076737  -0.149349  0  3.91406  0
C  C195  1  0.88817181  0.15543807  0.31389648  1  -0.082088  0  -0.076647  -0.14928  0  3.914006  0
C  C196  1  0.14530588  0.65994950  0.12942483  1  -0.010621  0  -0.070219  -0.030565  0  3.993163  0
C  C197  1  0.35469447  0.34004971  0.62942628  1  -0.010557  0  -0.070217  -0.030497  0  3.993028  0
C  C198  1  0.64530707  0.84004973  0.87057483  1  -0.010557  0  -0.070177  -0.030471  0  3.992911  0
C  C199  1  0.85469480  0.15995014  0.37057391  1  -0.010547  0  -0.070253  -0.030562  0  3.992979  0
C  C200  1  0.03393501  0.67995994  0.09142180  1  -0.022717  0  -0.08388  -0.131428  0  3.981176  0
C  C201  1  0.46606427  0.32003929  0.59142240  1  -0.02296  0  -0.083892  -0.131468  0  3.981189  0
C  C202  1  0.53393506  0.82003783  0.90857745  1  -0.022952  0  -0.083883  -0.131436  0  3.981206  0
C  C203  1  0.96606459  0.17996058  0.40857694  1  -0.022967  0  -0.083888  -0.131462  0  3.981187  0
C  C204  1  0.89277563  0.69492401  0.11224151  1  0.482407  0  0.041246  0.087993  0  4.035795  0
C  C205  1  0.60722423  0.30507463  0.61224215  1  0.482669  0  0.041241  0.087999  0  4.035741  0
C  C206  1  0.39277510  0.80507743  0.88775728  1  0.482649  0  0.041169  0.087929  0  4.035655  0
C  C207  1  0.10722398  0.19492372  0.38775639  1  0.482696  0  0.041182  0.087968  0  4.035744  0
C  C208  1  0.81468001  0.66720770  0.59563821  1  0.410644  0  0.04477  0.093565  0  3.948171  0
C  C209  1  0.68531877  0.33279380  0.09563936  1  0.410652  0  0.044846  0.093693  0  3.948105  0
C  C210  1  0.31467984  0.83279371  0.40436059  1  0.410645  0  0.044826  0.093687  0  3.948118  0
C  C211  1  0.18532251  0.16720742  0.90436252  1  0.410611  0  0.044786  0.093593  0  3.94815  0
C  C212  1  0.80088678  0.66716558  0.65337704  1  0.037021  0  -0.082115  -0.167662  0  3.946862  0
C  C213  1  0.69911195  0.33283445  0.15337818  1  0.036945  0  -0.082091  -0.167658  0  3.946868  0
C  C214  1  0.30088665  0.83283440  0.34662219  1  0.036938  0  -0.082108  -0.167704  0  3.94689  0
C  C215  1  0.19911245  0.16716393  0.84662328  1  0.037035  0  -0.082068  -0.167582  0  3.946733  0
C  C216  1  0.69236915  0.61129455  0.67863883  1  -0.053808  0  0.012083  0.078722  0  3.970234  0
C  C217  1  0.80762738  0.38870689  0.17863911  1  -0.053759  0  0.012062  0.078693  0  3.9703  0
C  C218  1  0.19237126  0.88870611  0.32136040  1  -0.053782  0  0.012047  0.078711  0  3.970254  0
C  C219  1  0.30762896  0.11129223  0.82136233  1  -0.053768  0  0.012022  0.078714  0  3.970407  0
C  C220  1  0.59913217  0.55896601  0.64348722  1  -0.041522  0  -0.081532  -0.154901  0  3.930516  0
C  C221  1  0.90086877  0.44103546  0.14348832  1  -0.041546  0  -0.081559  -0.15498  0  3.930554  0
C  C222  1  0.09913319  0.94103463  0.35651202  1  -0.041547  0  -0.081556  -0.15501  0  3.930542  0
C  C223  1  0.40086700  0.05896297  0.85651396  1  -0.041483  0  -0.081546  -0.155077  0  3.930839  0
C  C224  1  0.62159586  0.56158239  0.58611166  1  0.485986  0  0.042819  0.092605  0  3.964123  0
C  C225  1  0.87840403  0.43841841  0.08611276  1  0.485942  0  0.042849  0.092676  0  3.964218  0
C  C226  1  0.12159465  0.93841754  0.41388758  1  0.485919  0  0.042835  0.092634  0  3.964113  0
C  C227  1  0.37840441  0.06157930  0.91388868  1  0.48595  0  0.042756  0.092732  0  3.964232  0
C  C228  1  0.67533928  0.60768215  0.74011488  1  0.52343  0  0.113316  0.185073  0  4.014359  0
C  C229  1  0.82465721  0.39231996  0.24011516  1  0.523767  0  0.113279  0.185078  0  4.014409  0
C  C230  1  0.17533925  0.89232137  0.25988478  1  0.523525  0  0.113357  0.185215  0  4.014187  0
C  C231  1  0.32465992  0.10767702  0.75988754  1  0.52333  0  0.113402  0.18525  0  4.014188  0
C  C232  1  0.79072227  0.63327349  0.77599638  1  -0.041592  0  -0.088488  -0.172953  0  3.949071  0
C  C233  1  0.70927528  0.36672502  0.27599710  1  -0.041916  0  -0.088408  -0.172958  0  3.949092  0
C  C234  1  0.29072334  0.86672792  0.22400368  1  -0.041637  0  -0.088495  -0.173076  0  3.948953  0
C  C235  1  0.20927804  0.13327050  0.72400603  1  -0.041661  0  -0.088531  -0.173137  0  3.948992  0
C  C236  1  0.77032653  0.62566270  0.83346683  1  -0.028204  0  -0.075967  -0.02946  0  3.992294  0
C  C237  1  0.72966770  0.37433934  0.33346754  1  -0.028234  0  -0.075902  -0.029268  0  3.992228  0
C  C238  1  0.27033093  0.87433799  0.16653323  1  -0.028277  0  -0.075971  -0.029342  0  3.992216  0
C  C239  1  0.22967049  0.12566048  0.66653600  1  -0.028169  0  -0.075956  -0.029364  0  3.992338  0
C  C240  1  0.63550399  0.59440197  0.85378997  1  -0.015502  0  -0.085912  -0.124559  0  3.952449  0
C  C241  1  0.86449023  0.40560005  0.35379108  1  -0.015793  0  -0.08589  -0.124583  0  3.952331  0
C  C242  1  0.13550952  0.90560082  0.14620885  1  -0.015672  0  -0.08587  -0.124495  0  3.952302  0
C  C243  1  0.36449301  0.09440122  0.64621162  1  -0.01546  0  -0.085944  -0.124566  0  3.952377  0
C  C244  1  0.52702362  0.57164674  0.81497596  1  0.495549  0  0.034517  0.085767  0  4.010943  0
C  C245  1  0.97297281  0.42835317  0.31497747  1  0.495558  0  0.034464  0.08557  0  4.010843  0
C  C246  1  0.02702696  0.92835531  0.18502246  1  0.495429  0  0.034454  0.085511  0  4.010925  0
C  C247  1  0.47297445  0.07164456  0.68502522  1  0.495227  0  0.034553  0.085671  0  4.010918  0
N  N248  1  0.84003536  0.63928050  0.37449459  1  -1.238691  0  -0.328307  -0.233819  0  3.508839  0
N  N249  1  0.65997089  0.36072151  0.87449521  1  -1.239327  0  -0.3282  -0.233836  0  3.508775  0
N  N250  1  0.34003395  0.86071736  0.62550380  1  -1.238756  0  -0.328355  -0.233923  0  3.508824  0
N  N251  1  0.15997079  0.13928043  0.12550333  1  -1.238835  0  -0.328225  -0.233763  0  3.50877  0
N  N252  1  0.85843005  0.69083428  0.16655497  1  -1.210765  0  -0.322795  -0.320478  0  3.312039  0
N  N253  1  0.64156978  0.30916504  0.66655561  1  -1.211006  0  -0.322772  -0.320515  0  3.311965  0
N  N254  1  0.35842846  0.80916786  0.83344341  1  -1.21104  0  -0.322757  -0.320402  0  3.311899  0
N  N255  1  0.14157065  0.19083190  0.33344293  1  -1.211127  0  -0.322788  -0.320498  0  3.311902  0
N  N256  1  0.72829528  0.61408148  0.56233723  1  -1.22586  0  -0.333711  -0.244672  0  3.528204  0
N  N257  1  0.77170571  0.38591791  0.06233836  1  -1.225865  0  -0.333775  -0.244777  0  3.528302  0
N  N258  1  0.22829293  0.88591776  0.43766200  1  -1.225879  0  -0.333761  -0.244705  0  3.528222  0
N  N259  1  0.27170721  0.11408191  0.93766351  1  -1.225816  0  -0.333717  -0.244723  0  3.528185  0
N  N260  1  0.54506994  0.57701289  0.75956976  1  -1.1773  0  -0.31628  -0.299511  0  3.326865  0
N  N261  1  0.95492544  0.42299063  0.25957128  1  -1.177164  0  -0.31633  -0.299482  0  3.326927  0
N  N262  1  0.04507213  0.92299201  0.24042865  1  -1.177233  0  -0.316299  -0.299521  0  3.32697  0
N  N263  1  0.45492596  0.07700568  0.74043141  1  -1.177196  0  -0.31637  -0.299599  0  3.326995  0
N  N264  1  0.35756104  0.48108331  0.35354612  1  -1.20009  0  -0.41858  -0.383166  0  3.572813  0
N  N265  1  0.14243916  0.51891643  0.85354671  1  -1.200102  0  -0.418544  -0.383074  0  3.572722  0
N  N266  1  0.85756217  0.01891654  0.64645323  1  -1.200119  0  -0.418601  -0.383157  0  3.572909  0
N  N267  1  0.64243766  0.98108279  0.14645420  1  -1.200102  0  -0.41856  -0.383197  0  3.572789  0
O  O268  1  0.05872167  0.62610225  0.49398456  1  -1.152216  0  -0.322509  -0.568957  0  2.188309  0
O  O269  1  0.44127843  0.37389739  0.99398516  1  -1.152234  0  -0.322542  -0.568975  0  2.188285  0
O  O270  1  0.55872204  0.87389553  0.50601426  1  -1.152212  0  -0.322558  -0.568988  0  2.188187  0
O  O271  1  0.94127790  0.12610391  0.00601461  1  -1.152202  0  -0.322529  -0.568937  0  2.188197  0
O  O272  1  0.95010493  0.48555904  0.47849388  1  -1.177454  0  -0.339403  -0.568277  0  2.166373  0
O  O273  1  0.54989357  0.51444074  0.97849280  1  -1.177463  0  -0.339376  -0.568238  0  2.166335  0
O  O274  1  0.45010556  0.01443797  0.52150588  1  -1.177424  0  -0.339374  -0.568236  0  2.166403  0
O  O275  1  0.04989268  0.98556060  0.02150603  1  -1.177469  0  -0.339392  -0.568234  0  2.166388  0
O  O276  1  0.38532606  0.62657469  0.31300268  1  -1.165004  0  -0.299489  -0.498887  0  2.153415  0
O  O277  1  0.11467307  0.37342437  0.81300330  1  -1.16479  0  -0.299476  -0.498856  0  2.153357  0
O  O278  1  0.88532739  0.87342532  0.68699653  1  -1.164759  0  -0.299493  -0.498913  0  2.153423  0
O  O279  1  0.61467241  0.12657469  0.18699733  1  -1.164739  0  -0.299487  -0.498891  0  2.153359  0
O  O280  1  0.49779987  0.63791124  0.45411290  1  -1.185708  0  -0.322405  -0.561801  0  2.205106  0
O  O281  1  0.00219806  0.36208843  0.95411354  1  -1.185735  0  -0.322374  -0.561723  0  2.205097  0
O  O282  1  0.99780021  0.86208880  0.54588672  1  -1.18572  0  -0.322409  -0.561788  0  2.205156  0
O  O283  1  0.50219970  0.13791132  0.04588711  1  -1.185718  0  -0.32241  -0.561802  0  2.205125  0
O  O284  1  0.59409819  0.49490854  0.43428683  1  -1.160534  0  -0.332292  -0.556403  0  2.164745  0
O  O285  1  0.90590145  0.50509056  0.93428739  1  -1.161511  0  -0.332303  -0.556371  0  2.164796  0
O  O286  1  0.09409878  0.00509266  0.56571297  1  -1.15989  0  -0.332311  -0.556391  0  2.164757  0
O  O287  1  0.40590162  0.99490802  0.06571350  1  -1.159878  0  -0.332306  -0.556402  0  2.164708  0
O  O288  1  0.79905443  0.78256856  0.47269070  1  -1.27578  0  -0.601221  -0.77188  0  2.068278  0
O  O289  1  0.70094627  0.21743051  0.97269094  1  -1.275777  0  -0.601192  -0.771854  0  2.068293  0
O  O290  1  0.29905300  0.71742999  0.52730852  1  -1.275751  0  -0.601192  -0.77183  0  2.06835  0
O  O291  1  0.20094633  0.28257001  0.02730884  1  -1.275735  0  -0.601201  -0.771852  0  2.06833  0
