# generated using pymatgen
data_CoH7C8S2N3O2
_symmetry_space_group_name_H-M   'P 1'
_cell_length_a   7.68726951
_cell_length_b   8.15859557
_cell_length_c   9.74533430
_cell_angle_alpha   75.14010735
_cell_angle_beta   73.15860055
_cell_angle_gamma   74.40944987
_symmetry_Int_Tables_number   1
_chemical_formula_structural   CoH7C8S2N3O2
_chemical_formula_sum   'Co2 H14 C16 S4 N6 O4'
_cell_volume   552.78980713
_cell_formula_units_Z   2
loop_
 _symmetry_equiv_pos_site_id
 _symmetry_equiv_pos_as_xyz
  1  'x, y, z'
loop_
 _atom_site_type_symbol
 _atom_site_label
 _atom_site_symmetry_multiplicity
 _atom_site_fract_x
 _atom_site_fract_y
 _atom_site_fract_z
 _atom_site_occupancy
 _atom_site_hle17_ddec_charge
 _atom_site_hle17_ddec_spin_density
 _atom_site_hle17_ddec_sum_bond_order
 _atom_site_hle17_magmom
 _atom_site_hse06_10hf_ddec_charge
 _atom_site_hse06_10hf_ddec_spin_density
 _atom_site_hse06_10hf_ddec_sum_bond_order
 _atom_site_hse06_10hf_magmom
 _atom_site_hse06_ddec_charge
 _atom_site_hse06_ddec_spin_density
 _atom_site_hse06_ddec_sum_bond_order
 _atom_site_hse06_magmom
 _atom_site_pbe_cm5_charge
 _atom_site_pbe_ddec_charge
 _atom_site_pbe_ddec_spin_density
 _atom_site_pbe_ddec_sum_bond_order
 _atom_site_pbe_magmom
Co  Co0  1  0.36724076  0.35738747  0.49649802  1  0.867116  2.700826  2.345769  2.452  0.878625  2.714714  2.753313  2.526  0.975115  2.821421  2.657411  2.649  0.595944  0.784285  2.533277  2.841514  2.342
Co  Co1  1  0.63275585  0.64261345  0.50350223  1  0.867159  -2.700826  2.345749  -2.452  0.878648  -2.714711  2.753297  -2.526  0.975114  -2.821417  2.657398  -2.649  0.595948  0.784294  -2.533229  2.841505  -2.342
H  H2  1  0.20150625  0.82873783  0.43996148  1  0.114421  0.00013  0.947558  0.0  0.121691  0.000102  1.009703  0.0  0.124198  8.1e-05  1.007916  0.0  0.12808  0.120155  0.000109  1.010139  0.0
H  H3  1  0.79847898  0.17124858  0.56004132  1  0.114377  -0.00013  0.947669  0.0  0.12173  -0.000101  1.009722  0.0  0.124249  -8.1e-05  1.007923  0.0  0.128123  0.12019  -0.000109  1.010159  0.0
H  H4  1  0.05906847  0.06569525  0.25628333  1  0.127093  0.000482  0.97518  0.0  0.132266  0.000642  1.041747  0.0  0.135826  0.000508  1.041019  0.0  0.107162  0.129121  0.000573  1.043021  0.0
H  H5  1  0.94092392  0.93429518  0.74371907  1  0.127076  -0.000482  0.97514  0.0  0.132233  -0.000642  1.041716  0.0  0.135792  -0.000508  1.040992  0.0  0.10717  0.129096  -0.000573  1.042975  0.0
H  H6  1  0.45906894  0.81404320  0.91643963  1  0.130517  3.6e-05  0.965825  0.0  0.135605  0.0001  1.033877  0.0  0.139589  0.000117  1.032225  0.0  0.106128  0.133634  2.6e-05  1.033536  0.0
H  H7  1  0.54094776  0.18596979  0.08356075  1  0.130544  -3.8e-05  0.965875  0.0  0.135625  -0.0001  1.033922  0.0  0.13961  -0.000117  1.032269  0.0  0.106147  0.133657  -2.6e-05  1.033574  0.0
H  H8  1  0.58233869  0.58761788  0.11768941  1  0.117934  -2.9e-05  0.913889  0.0  0.129752  -7.5e-05  0.96953  0.0  0.133045  -6e-05  0.965757  0.0  0.133203  0.126627  -0.000106  0.973308  0.0
H  H9  1  0.41767358  0.41239113  0.88230973  1  0.11786  3e-05  0.913993  0.0  0.129706  7.5e-05  0.969599  0.0  0.133002  6e-05  0.965825  0.0  0.133192  0.126574  0.000106  0.973391  0.0
H  H10  1  0.92644269  0.19846168  0.05895967  1  0.079523  0.000562  0.995364  0.0  0.09002  0.000616  1.072602  0.0  0.090946  0.000473  1.072358  0.0  0.087221  0.089352  0.000648  1.072193  0.0
H  H11  1  0.07356088  0.80153285  0.94104552  1  0.079516  -0.00056  0.995315  0.0  0.090037  -0.000616  1.072538  0.0  0.090964  -0.000474  1.072292  0.0  0.087268  0.089373  -0.000648  1.072129  0.0
H  H12  1  0.04215314  0.31213332  0.88659182  1  0.108553  -0.000164  0.941699  0.0  0.124874  -0.000185  1.003063  0.0  0.124962  -0.00016  1.003623  0.0  0.104556  0.124842  -0.000207  1.002778  0.0
H  H13  1  0.95784278  0.68787020  0.11341419  1  0.108563  0.000165  0.941648  0.0  0.124865  0.000185  1.003049  0.0  0.124954  0.00016  1.003608  0.0  0.104555  0.124833  0.000207  1.002767  0.0
H  H14  1  0.10764796  0.30190483  0.05254630  1  0.081106  0.000706  0.952206  0.0  0.096857  0.000817  1.021554  0.0  0.097291  0.000617  1.021355  0.0  0.090995  0.096314  0.000899  1.022076  0.0
H  H15  1  0.89234796  0.69809869  0.94745971  1  0.081052  -0.000705  0.952251  0.0  0.096831  -0.000816  1.021561  0.0  0.097265  -0.000618  1.021359  0.0  0.091016  0.09629  -0.000899  1.022084  0.0
C  C16  1  0.34282947  0.97885273  0.64058674  1  0.310443  -0.00031  3.950396  0.006  0.306902  0.00439  4.26011  0.013  0.335553  0.00474  4.273831  0.012  0.153757  0.281959  0.002218  4.248612  0.01
C  C17  1  0.65717338  0.02115092  0.35940025  1  0.31042  0.000304  3.950611  -0.006  0.306877  -0.004392  4.260331  -0.013  0.33553  -0.004745  4.274055  -0.012  0.153639  0.281939  -0.002217  4.248833  -0.01
C  C18  1  0.25222755  0.96046838  0.07025355  1  0.317275  -0.000794  3.789746  -0.001  0.299809  -0.000829  4.049239  -0.001  0.317792  -0.00071  4.061894  -0.001  0.106272  0.287785  -0.000347  4.040869  0.0
C  C19  1  0.74777716  0.03953269  0.92974691  1  0.31736  0.000775  3.789541  0.001  0.299864  0.00083  4.049046  0.001  0.317851  0.000709  4.061691  0.001  0.106318  0.287837  0.000346  4.040684  0.0
C  C20  1  0.97953501  0.55421523  0.64783113  1  0.295953  -0.000931  3.953944  0.007  0.298151  0.002098  4.258788  0.012  0.326467  0.002531  4.272591  0.011  0.14977  0.274403  0.000943  4.250119  0.01
C  C21  1  0.02044782  0.44579197  0.35217292  1  0.296001  0.000926  3.95391  -0.007  0.298212  -0.002094  4.258745  -0.012  0.326526  -0.002529  4.272544  -0.011  0.149783  0.27447  -0.000939  4.250078  -0.01
C  C22  1  0.24962319  0.83536045  0.32252828  1  0.074573  -0.000516  3.581906  -0.001  0.034384  -0.00059  3.834761  -0.001  0.044181  -0.000538  3.84731  -0.001  0.058082  0.028891  -1.9e-05  3.825152  0.0
C  C23  1  0.75036787  0.16462996  0.67747237  1  0.074569  0.00051  3.582007  0.001  0.034298  0.000588  3.834883  0.001  0.044082  0.000539  3.847431  0.001  0.058006  0.028805  1.6e-05  3.825269  0.0
C  C24  1  0.17535543  0.96412064  0.21923941  1  -0.220795  0.000702  3.713521  0.001  -0.235518  0.000673  3.962819  0.001  -0.246064  0.000621  3.981404  0.001  -0.093639  -0.229213  0.000555  3.951679  0.001
C  C25  1  0.82464038  0.03587246  0.78076269  1  -0.220775  -0.000687  3.713372  -0.001  -0.235468  -0.000673  3.962703  -0.001  -0.246015  -0.000621  3.98129  -0.001  -0.093613  -0.229164  -0.000554  3.951566  -0.001
C  C26  1  0.39949791  0.82208761  0.03101109  1  -0.215409  0.00037  3.739004  0.001  -0.237081  0.000287  4.003419  0.0  -0.246784  0.000317  4.020612  0.0  -0.092379  -0.231046  0.000187  3.991011  0.0
C  C27  1  0.60051196  0.17792006  0.96898989  1  -0.215388  -0.000346  3.738891  -0.001  -0.237013  -0.000287  4.003279  0.0  -0.246717  -0.000317  4.020471  0.0  -0.092368  -0.230978  -0.000186  3.990867  0.0
C  C28  1  0.46828887  0.69760640  0.13812136  1  0.056032  -0.000633  3.625899  -0.001  0.013194  -0.000536  3.888347  -0.001  0.024098  -0.000506  3.897894  -0.001  0.049968  0.005813  -0.000878  3.883502  -0.001
C  C29  1  0.53171927  0.30239734  0.86187880  1  0.056077  0.000615  3.625911  0.001  0.013208  0.000535  3.888366  0.001  0.02411  0.000507  3.897915  0.001  0.049978  0.005826  0.000876  3.883514  0.001
C  C30  1  0.05859735  0.23253850  0.99282136  1  -0.079739  0.000646  3.585513  0.001  -0.174465  0.000857  3.844416  0.001  -0.167149  0.00064  3.847813  0.001  -0.142612  -0.179065  0.000906  3.841935  0.002
C  C31  1  0.94140296  0.76746379  0.00718291  1  -0.079696  -0.000651  3.585473  -0.001  -0.174445  -0.000856  3.844339  -0.001  -0.16713  -0.000636  3.847734  -0.001  -0.142647  -0.179046  -0.000907  3.841864  -0.002
S  S32  1  0.33044684  0.77527980  0.67770720  1  -0.296591  -0.020094  2.26888  -0.025  -0.303475  -0.018502  2.616333  -0.02  -0.330253  -0.016171  2.605101  -0.018  -0.101832  -0.273842  -0.013876  2.619781  -0.013
S  S33  1  0.66955618  0.22471733  0.32228832  1  -0.296516  0.020085  2.269012  0.025  -0.303425  0.018495  2.616505  0.02  -0.330201  0.016169  2.605274  0.018  -0.101783  -0.273797  0.01385  2.619954  0.013
S  S34  1  0.76094315  0.64696205  0.70067379  1  -0.342798  -0.038702  2.342163  -0.05  -0.356869  -0.027337  2.693671  -0.029  -0.390466  -0.021203  2.684288  -0.021  -0.135695  -0.327199  -0.027798  2.702931  -0.029
S  S35  1  0.23905148  0.35304145  0.29932635  1  -0.342907  0.038717  2.341926  0.05  -0.356984  0.027346  2.693429  0.029  -0.390593  0.021207  2.68405  0.021  -0.135726  -0.327307  0.027802  2.702676  0.029
N  N36  1  0.35376389  0.12631507  0.61022594  1  -0.516997  0.028022  3.089442  0.039  -0.505331  0.019196  3.39588  0.02  -0.540473  0.015909  3.398073  0.015  -0.398094  -0.473606  0.023323  3.395897  0.027
N  N37  1  0.64623210  0.87368325  0.38976372  1  -0.51704  -0.028018  3.089445  -0.039  -0.505364  -0.019192  3.395854  -0.02  -0.540513  -0.015906  3.398065  -0.015  -0.398005  -0.473634  -0.023331  3.395878  -0.027
N  N38  1  0.13761584  0.48842579  0.60744373  1  -0.490599  0.018832  3.042487  0.027  -0.477198  0.015385  3.337124  0.016  -0.508828  0.013894  3.337068  0.013  -0.384484  -0.450163  0.017026  3.339416  0.019
N  N39  1  0.86238068  0.51156993  0.39255868  1  -0.490566  -0.018827  3.042716  -0.027  -0.477159  -0.015392  3.337343  -0.016  -0.508779  -0.013898  3.337279  -0.013  -0.384477  -0.450134  -0.017037  3.339656  -0.019
N  N40  1  0.39518522  0.70714399  0.28132916  1  0.241465  0.001003  3.645596  0.002  0.292557  0.000686  3.9164  0.002  0.290285  0.000776  3.939912  0.002  -0.122245  0.292135  0.000369  3.899385  0.001
N  N41  1  0.60481403  0.29285177  0.71866955  1  0.241465  -0.000995  3.645625  -0.002  0.292558  -0.000686  3.916475  -0.002  0.290286  -0.00078  3.939994  -0.002  -0.122235  0.292135  -0.000369  3.899456  -0.001
O  O42  1  0.47133806  0.58637343  0.38241018  1  -0.534771  -0.002358  2.077988  -0.007  -0.519043  -0.003883  2.378779  -0.01  -0.562675  -0.002688  2.377803  -0.007  -0.234685  -0.479843  -0.004022  2.377628  -0.01
O  O43  1  0.52866116  0.41362233  0.61759161  1  -0.534724  0.002357  2.077972  0.007  -0.519038  0.003884  2.378808  0.01  -0.562671  0.002686  2.377832  0.007  -0.234686  -0.479837  0.004015  2.377658  0.01
O  O44  1  0.19630117  0.07986222  0.95942630  1  -0.224342  -0.000212  2.352608  0.0  -0.145732  -0.0003  2.58557  0.0  -0.166666  -0.000259  2.590952  0.0  -0.165496  -0.131357  -0.000197  2.581303  0.0
O  O45  1  0.80370664  0.92014281  0.04057468  1  -0.22439  0.00021  2.352638  0.0  -0.145772  0.0003  2.585627  0.0  -0.166708  0.000257  2.591005  0.0  -0.165581  -0.131406  0.000195  2.581375  0.0
