# generated using pymatgen
data_NdH21C17NO7
_symmetry_space_group_name_H-M   'P 1'
_cell_length_a   8.30028005
_cell_length_b   10.39786522
_cell_length_c   11.78607987
_cell_angle_alpha   108.45413207
_cell_angle_beta   107.02139046
_cell_angle_gamma   97.25445038
_symmetry_Int_Tables_number   1
_chemical_formula_structural   NdH21C17NO7
_chemical_formula_sum   'Nd2 H42 C34 N2 O14'
_cell_volume   895.34472513
_cell_formula_units_Z   2
loop_
 _symmetry_equiv_pos_site_id
 _symmetry_equiv_pos_as_xyz
  1  'x, y, z'
loop_
 _atom_site_type_symbol
 _atom_site_label
 _atom_site_symmetry_multiplicity
 _atom_site_fract_x
 _atom_site_fract_y
 _atom_site_fract_z
 _atom_site_occupancy
 _atom_site_hle17_bader_spin_density
 _atom_site_hle17_ddec_charge
 _atom_site_hle17_ddec_spin_density
 _atom_site_hle17_ddec_sum_bond_order
 _atom_site_hle17_magmom
 _atom_site_hse06_10hf_bader_spin_density
 _atom_site_hse06_10hf_ddec_charge
 _atom_site_hse06_10hf_ddec_spin_density
 _atom_site_hse06_10hf_ddec_sum_bond_order
 _atom_site_hse06_10hf_magmom
 _atom_site_hse06_bader_spin_density
 _atom_site_hse06_ddec_charge
 _atom_site_hse06_ddec_spin_density
 _atom_site_hse06_ddec_sum_bond_order
 _atom_site_hse06_magmom
 _atom_site_pbe_bader_spin_density
 _atom_site_pbe_cm5_charge
 _atom_site_pbe_ddec_charge
 _atom_site_pbe_ddec_spin_density
 _atom_site_pbe_ddec_sum_bond_order
 _atom_site_pbe_magmom
Nd  Nd0  1  0.58445620  0.92435800  0.84555063  1  0  2.203822  0  1.661237  0  0  2.021511  0  2.147594  0  0  2.069114  0  2.09967  0  0  1.477562  1.984454  0  2.185916  0
Nd  Nd1  1  0.41554209  0.07564350  0.15444993  1  0  2.203835  0  1.6612  0  0  2.021567  0  2.147549  0  0  2.069134  0  2.099674  0  0  1.477612  1.984504  0  2.185875  0
H  H2  1  0.96924073  0.60780737  0.91766933  1  0  0.119634  0  0.957904  0  0  0.131351  0  1.015882  0  0  0.135239  0  1.015012  0  0  0.104699  0.128653  0  1.016667  0
H  H3  1  0.03075543  0.39219520  0.08233619  1  0  0.119633  0  0.957782  0  0  0.131333  0  1.015795  0  0  0.135212  0  1.014921  0  0  0.104693  0.128636  0  1.016582  0
H  H4  1  0.62144057  0.43080877  0.70702214  1  0  0.079247  0  0.934985  0  0  0.094376  0  0.990194  0  0  0.096555  0  0.98871  0  0  0.107971  0.092705  0  0.991414  0
H  H5  1  0.37856377  0.56920009  0.29298760  1  0  0.079142  0  0.934959  0  0  0.094363  0  0.990087  0  0  0.096543  0  0.9886  0  0  0.107955  0.092692  0  0.991307  0
H  H6  1  0.95332042  0.34746139  0.83968523  1  0  0.104901  0  0.959062  0  0  0.126657  0  1.01943  0  0  0.127661  0  1.020524  0  0  0.089951  0.125894  0  1.018703  0
H  H7  1  0.04668171  0.65254015  0.16031950  1  0  0.104822  0  0.959001  0  0  0.126644  0  1.019309  0  0  0.127649  0  1.020406  0  0  0.08995  0.125881  0  1.018585  0
H  H8  1  0.81475027  0.26125387  0.67528603  1  0  0.116306  0  0.943461  0  0  0.136194  0  1.007208  0  0  0.137544  0  1.007584  0  0  0.09503  0.134839  0  1.007324  0
H  H9  1  0.18525248  0.73875394  0.32472140  1  0  0.11626  0  0.943532  0  0  0.136178  0  1.00724  0  0  0.13753  0  1.007625  0  0  0.095016  0.134822  0  1.007354  0
H  H10  1  0.73490891  0.25198837  0.79537735  1  0  0.134583  0  0.962289  0  0  0.15225  0  1.026341  0  0  0.15416  0  1.026086  0  0  0.102372  0.150858  0  1.026559  0
H  H11  1  0.26509504  0.74801942  0.20462692  1  0  0.134626  0  0.962345  0  0  0.152287  0  1.026393  0  0  0.154197  0  1.026139  0  0  0.102416  0.150894  0  1.026609  0
H  H12  1  0.04939334  0.67234343  0.46565856  1  0  0.109964  0  0.956715  0  0  0.12196  0  1.014807  0  0  0.12517  0  1.014842  0  0  0.100235  0.119693  0  1.014911  0
H  H13  1  0.95060895  0.32764562  0.53434870  1  0  0.109954  0  0.956708  0  0  0.121941  0  1.014813  0  0  0.125152  0  1.014848  0  0  0.1002  0.119675  0  1.014916  0
H  H14  1  0.96213276  0.68112101  0.70354487  1  0  0.065297  0  0.969887  0  0  0.079891  0  1.030401  0  0  0.081203  0  1.030293  0  0  0.099583  0.078831  0  1.030628  0
H  H15  1  0.03785493  0.31887005  0.29645408  1  0  0.065351  0  0.969832  0  0  0.079935  0  1.030353  0  0  0.081251  0  1.030249  0  0  0.099609  0.078877  0  1.030582  0
H  H16  1  0.73409963  0.56006145  0.41446257  1  0  0.106515  0  0.964791  0  0  0.130413  0  1.02401  0  0  0.131262  0  1.024672  0  0  0.092187  0.129752  0  1.023627  0
H  H17  1  0.26590118  0.43993586  0.58553564  1  0  0.106537  0  0.964822  0  0  0.130443  0  1.024029  0  0  0.131291  0  1.02469  0  0  0.09219  0.12978  0  1.023648  0
H  H18  1  0.66122671  0.64061723  0.54265871  1  0  0.118826  0  0.939256  0  0  0.139692  0  1.000719  0  0  0.140906  0  1.000996  0  0  0.099351  0.138777  0  1.000572  0
H  H19  1  0.33876711  0.35937795  0.45733327  1  0  0.118808  0  0.939288  0  0  0.1397  0  1.000722  0  0  0.140912  0  1.001001  0  0  0.099341  0.13879  0  1.00057  0
H  H20  1  0.71593117  0.47977137  0.52381252  1  0  0.119568  0  0.943265  0  0  0.142411  0  1.002431  0  0  0.14338  0  1.002716  0  0  0.098198  0.141718  0  1.002242  0
H  H21  1  0.28405921  0.52022067  0.47617875  1  0  0.119564  0  0.943232  0  0  0.142408  0  1.002403  0  0  0.143379  0  1.002686  0  0  0.098213  0.141717  0  1.002213  0
H  H22  1  0.36076260  0.35373088  0.99915351  1  0  0.11684  0  0.980736  0  0  0.127167  0  1.040573  0  0  0.129641  0  1.042213  0  0  0.105195  0.125398  0  1.039588  0
H  H23  1  0.63923855  0.64626750  0.00084675  1  0  0.116844  0  0.980731  0  0  0.12718  0  1.040565  0  0  0.129653  0  1.042206  0  0  0.105193  0.125398  0  1.039594  0
H  H24  1  0.36208265  0.31404492  0.72995565  1  0  0.070345  0  0.952736  0  0  0.082772  0  1.015261  0  0  0.084615  0  1.014313  0  0  0.103546  0.081356  0  1.016122  0
H  H25  1  0.63792414  0.68595554  0.27004462  1  0  0.070345  0  0.952714  0  0  0.082788  0  1.015239  0  0  0.084633  0  1.014287  0  0  0.103534  0.08137  0  1.016098  0
H  H26  1  0.25856595  0.53704222  0.92549606  1  0  0.109578  0  0.945527  0  0  0.132445  0  1.002755  0  0  0.133562  0  1.003325  0  0  0.092934  0.131618  0  1.00241  0
H  H27  1  0.74143388  0.46295613  0.07450054  1  0  0.109567  0  0.9455  0  0  0.13244  0  1.002729  0  0  0.133567  0  1.003289  0  0  0.092916  0.131612  0  1.002387  0
H  H28  1  0.14439732  0.46671255  0.75666166  1  0  0.109122  0  0.947528  0  0  0.132213  0  1.008996  0  0  0.132829  0  1.00983  0  0  0.095767  0.13163  0  1.008537  0
H  H29  1  0.85560443  0.53328372  0.24333560  1  0  0.109142  0  0.947491  0  0  0.13223  0  1.00897  0  0  0.132848  0  1.009802  0  0  0.095755  0.131647  0  1.008511  0
H  H30  1  0.35654125  0.57107727  0.81829978  1  0  0.134733  0  0.953657  0  0  0.152438  0  1.018669  0  0  0.15443  0  1.017934  0  0  0.104423  0.150837  0  1.019546  0
H  H31  1  0.64345922  0.42892317  0.18169837  1  0  0.134668  0  0.953692  0  0  0.152377  0  1.01871  0  0  0.154366  0  1.017981  0  0  0.104401  0.150781  0  1.019582  0
H  H32  1  0.00701232  0.03027966  0.84996724  1  0  0.086998  0  0.943337  0  0  0.095938  0  1.005426  0  0  0.098973  0  1.002671  0  0  0.127641  0.093758  0  1.007339  0
H  H33  1  0.99298778  0.96972390  0.15003000  1  0  0.087023  0  0.943294  0  0  0.095936  0  1.005422  0  0  0.098971  0  1.002666  0  0  0.127622  0.093757  0  1.007333  0
H  H34  1  0.17550476  0.05804150  0.71554603  1  0  0.102294  0  1.005238  0  0  0.112118  0  1.066575  0  0  0.11449  0  1.06683  0  0  0.110597  0.110362  0  1.066654  0
H  H35  1  0.82448777  0.94195784  0.28444599  1  0  0.102303  0  1.005208  0  0  0.112137  0  1.066523  0  0  0.114511  0  1.066778  0  0  0.110598  0.110364  0  1.066645  0
H  H36  1  0.68980396  0.92716202  0.39651824  1  0  0.120208  0  0.996838  0  0  0.126344  0  1.06231  0  0  0.130451  0  1.060024  0  0  0.109848  0.123444  0  1.064049  0
H  H37  1  0.31019154  0.07283007  0.60347831  1  0  0.120227  0  0.996812  0  0  0.126362  0  1.062276  0  0  0.130472  0  1.059984  0  0  0.109854  0.12346  0  1.064022  0
H  H38  1  0.54214736  0.89944237  0.54325391  1  0  0.089852  0  0.954665  0  0  0.099446  0  1.016  0  0  0.102447  0  1.013393  0  0  0.12412  0.097273  0  1.017867  0
H  H39  1  0.45785983  0.10055500  0.45674982  1  0  0.089844  0  0.954682  0  0  0.099467  0  1.015971  0  0  0.102468  0  1.013361  0  0  0.124124  0.097294  0  1.017837  0
H  H40  1  0.79272060  0.16328564  0.09462654  1  0  0.444446  0  0.854614  0  0  0.413902  0  0.918169  0  0  0.42531  0  0.90135  0  0  0.300879  0.40582  0  0.93007  0
H  H41  1  0.20728458  0.83671794  0.90537342  1  0  0.444522  0  0.854524  0  0  0.413959  0  0.918099  0  0  0.425369  0  0.901279  0  0  0.300888  0.405877  0  0.930001  0
H  H42  1  0.94221061  0.14402637  0.03546639  1  0  0.436792  0  0.867241  0  0  0.407279  0  0.928722  0  0  0.418503  0  0.912386  0  0  0.292994  0.399319  0  0.940289  0
H  H43  1  0.05779392  0.85598348  0.96453602  1  0  0.436784  0  0.867265  0  0  0.407295  0  0.928699  0  0  0.418518  0  0.912365  0  0  0.293038  0.399339  0  0.940257  0
C  C44  1  0.75512513  0.69741642  0.84318961  1  0  0.670984  0  3.958435  0  0  0.627046  0  4.251026  0  0  0.662016  0  4.242384  0  0  0.186489  0.60356  0  4.25582  0
C  C45  1  0.24488252  0.30259134  0.15681030  1  0  0.67085  0  3.958456  0  0  0.626917  0  4.251037  0  0  0.661885  0  4.242393  0  0  0.18639  0.603428  0  4.255838  0
C  C46  1  0.83689293  0.58072498  0.84959854  1  0  -0.302606  0  3.70966  0  0  -0.316391  0  3.964161  0  0  -0.330939  0  3.981536  0  0  -0.115858  -0.307158  0  3.952868  0
C  C47  1  0.16311815  0.41928591  0.15040122  1  0  -0.302624  0  3.709817  0  0  -0.316425  0  3.964398  0  0  -0.330955  0  3.981758  0  0  -0.115836  -0.307193  0  3.953107  0
C  C48  1  0.75271367  0.44767169  0.77372709  1  0  0.112173  0  3.665264  0  0  0.098459  0  3.92044  0  0  0.106095  0  3.936781  0  0  -0.055431  0.093368  0  3.909535  0
C  C49  1  0.24728281  0.55233193  0.22627878  1  0  0.112243  0  3.665416  0  0  0.098466  0  3.920613  0  0  0.1061  0  3.936957  0  0  -0.05546  0.093375  0  3.909704  0
C  C50  1  0.82016240  0.32207677  0.77234524  1  0  -0.328806  0  3.745164  0  0  -0.401345  0  3.982195  0  0  -0.4054  0  3.991863  0  0  -0.243169  -0.398267  0  3.975699  0
C  C51  1  0.17984412  0.67793105  0.22766294  1  0  -0.32868  0  3.745212  0  0  -0.401289  0  3.98225  0  0  -0.405347  0  3.991904  0  0  -0.243158  -0.398214  0  3.975767  0
C  C52  1  0.24122029  0.77218548  0.65860326  1  0  0.694275  0  3.92139  0  0  0.651293  0  4.209029  0  0  0.686742  0  4.1998  0  0  0.192621  0.627427  0  4.214479  0
C  C53  1  0.75877561  0.22780771  0.34139961  1  0  0.694457  0  3.921192  0  0  0.651553  0  4.20877  0  0  0.687003  0  4.199536  0  0  0.192711  0.627686  0  4.214215  0
C  C54  1  0.06612127  0.69435367  0.56591512  1  0  -0.282659  0  3.711177  0  0  -0.295547  0  3.964851  0  0  -0.309846  0  3.984386  0  0  -0.112048  -0.286201  0  3.951471  0
C  C55  1  0.93388125  0.30564057  0.43408937  1  0  -0.282732  0  3.711456  0  0  -0.295632  0  3.965114  0  0  -0.309933  0  3.984655  0  0  -0.112029  -0.286285  0  3.951736  0
C  C56  1  0.93407921  0.65522616  0.60126350  1  0  0.093984  0  3.687073  0  0  0.078244  0  3.945901  0  0  0.084402  0  3.96502  0  0  -0.066133  0.074571  0  3.932419  0
C  C57  1  0.06591166  0.34476702  0.39873921  1  0  0.093901  0  3.687377  0  0  0.078177  0  3.946207  0  0  0.084322  0  3.965341  0  0  -0.066217  0.074501  0  3.932728  0
C  C58  1  0.75304042  0.58065230  0.51505656  1  0  -0.312513  0  3.740512  0  0  -0.389057  0  3.980133  0  0  -0.392124  0  3.990909  0  0  -0.238239  -0.386678  0  3.972465  0
C  C59  1  0.24695473  0.41934292  0.48493993  1  0  -0.312502  0  3.740535  0  0  -0.389064  0  3.980132  0  0  -0.392129  0  3.990908  0  0  -0.238223  -0.386692  0  3.972464  0
C  C60  1  0.44197274  0.17851540  0.88858540  1  0  0.722641  0  3.88796  0  0  0.681069  0  4.169598  0  0  0.717323  0  4.158197  0  0  0.210315  0.656294  0  4.176753  0
C  C61  1  0.55802466  0.82148298  0.11141581  1  0  0.722664  0  3.887928  0  0  0.681093  0  4.169575  0  0  0.717347  0  4.158171  0  0  0.210327  0.656318  0  4.176724  0
C  C62  1  0.37999291  0.30765606  0.90875708  1  0  -0.283617  0  3.677824  0  0  -0.297615  0  3.927901  0  0  -0.312234  0  3.947375  0  0  -0.105669  -0.287828  0  3.914779  0
C  C63  1  0.62000320  0.69234230  0.09124218  1  0  -0.283642  0  3.677877  0  0  -0.297654  0  3.927958  0  0  -0.312275  0  3.947434  0  0  -0.105666  -0.287856  0  3.91484  0
C  C64  1  0.34171710  0.36494749  0.81960254  1  0  0.09998  0  3.668824  0  0  0.085726  0  3.927658  0  0  0.092405  0  3.944944  0  0  -0.058177  0.081278  0  3.91584  0
C  C65  1  0.65828247  0.63504983  0.18039627  1  0  0.099999  0  3.668783  0  0  0.085731  0  3.927622  0  0  0.092409  0  3.944911  0  0  -0.058159  0.081289  0  3.915794  0
C  C66  1  0.27195350  0.49143292  0.83216124  1  0  -0.325788  0  3.744585  0  0  -0.401114  0  3.98664  0  0  -0.403986  0  3.995431  0  0  -0.240509  -0.39883  0  3.98073  0
C  C67  1  0.72804793  0.50856649  0.16783767  1  0  -0.32574  0  3.744548  0  0  -0.40108  0  3.986637  0  0  -0.403961  0  3.995429  0  0  -0.240461  -0.3988  0  3.980721  0
C  C68  1  0.94047300  0.00768320  0.74869879  1  0  0.144646  0  3.702893  0  0  0.118137  0  3.958426  0  0  0.124577  0  3.975763  0  0  0.056723  0.114166  0  3.946287  0
C  C69  1  0.05952239  0.99231722  0.25129665  1  0  0.144634  0  3.70277  0  0  0.118137  0  3.958334  0  0  0.124578  0  3.975669  0  0  0.056736  0.11417  0  3.946189  0
C  C70  1  0.03520299  0.02452042  0.67268144  1  0  -0.152673  0  3.700283  0  0  -0.170481  0  3.942497  0  0  -0.178378  0  3.965609  0  0  -0.077713  -0.165297  0  3.926819  0
C  C71  1  0.96479054  0.97547791  0.32731390  1  0  -0.152657  0  3.700203  0  0  -0.170454  0  3.942477  0  0  -0.178353  0  3.965593  0  0  -0.077686  -0.165271  0  3.926786  0
C  C72  1  0.95067608  0.99401105  0.54206254  1  0  0.094024  0  3.740129  0  0  0.107123  0  3.966744  0  0  0.110759  0  3.988478  0  0  0.015079  0.105066  0  3.951618  0
C  C73  1  0.04932374  0.00598310  0.45793035  1  0  0.094155  0  3.739971  0  0  0.107128  0  3.966701  0  0  0.110764  0  3.988431  0  0  0.015043  0.105073  0  3.951574  0
C  C74  1  0.76854897  0.95037844  0.49570532  1  0  -0.152362  0  3.667482  0  0  -0.170347  0  3.914353  0  0  -0.177599  0  3.934479  0  0  -0.076943  -0.165671  0  3.900779  0
C  C75  1  0.23145496  0.04962096  0.50429239  1  0  -0.152439  0  3.66749  0  0  -0.170406  0  3.914394  0  0  -0.177656  0  3.934514  0  0  -0.076957  -0.165735  0  3.900831  0
C  C76  1  0.68318760  0.93562607  0.57790057  1  0  0.132102  0  3.711338  0  0  0.105903  0  3.963729  0  0  0.112143  0  3.980908  0  0  0.053493  0.102055  0  3.95171  0
C  C77  1  0.31681756  0.06437332  0.42209569  1  0  0.132116  0  3.711499  0  0  0.105925  0  3.963815  0  0  0.112166  0  3.980996  0  0  0.053538  0.102079  0  3.951793  0
N  N78  1  0.76615919  0.96243635  0.70297783  1  0  -0.426953  0  3.217153  0  0  -0.36902  0  3.48813  0  0  -0.383722  0  3.505954  0  0  -0.384049  -0.358703  0  3.475652  0
N  N79  1  0.23384128  0.03756410  0.29702033  1  0  -0.42693  0  3.217175  0  0  -0.369013  0  3.488168  0  0  -0.383712  0  3.505994  0  0  -0.384059  -0.358691  0  3.475681  0
O  O80  1  0.84525067  0.82460844  0.91217248  1  0  -0.729941  0  2.00969  0  0  -0.667369  0  2.24629  0  0  -0.693363  0  2.235344  0  0  -0.373827  -0.649029  0  2.253284  0
O  O81  1  0.15475271  0.17539729  0.08783450  1  0  -0.729963  0  2.009789  0  0  -0.667338  0  2.246359  0  0  -0.693331  0  2.235415  0  0  -0.373769  -0.648989  0  2.253345  0
O  O82  1  0.59742675  0.67528793  0.77225786  1  0  -0.68834  0  1.958962  0  0  -0.639079  0  2.199281  0  0  -0.663052  0  2.191205  0  0  -0.381229  -0.622125  0  2.204364  0
O  O83  1  0.40257934  0.32471878  0.22774230  1  0  -0.688201  0  1.95885  0  0  -0.638991  0  2.19923  0  0  -0.662961  0  2.191155  0  0  -0.381196  -0.622036  0  2.204319  0
O  O84  1  0.27533589  0.80623713  0.78019062  1  0  -0.74481  0  2.033571  0  0  -0.678346  0  2.26858  0  0  -0.705084  0  2.258988  0  0  -0.389259  -0.659454  0  2.275179  0
O  O85  1  0.72466538  0.19375294  0.21981246  1  0  -0.744836  0  2.033319  0  0  -0.67845  0  2.268287  0  0  -0.705182  0  2.25869  0  0  -0.389335  -0.659557  0  2.274886  0
O  O86  1  0.36042425  0.80776826  0.61849053  1  0  -0.696446  0  1.931332  0  0  -0.649322  0  2.171238  0  0  -0.673253  0  2.161477  0  0  -0.372937  -0.632254  0  2.177391  0
O  O87  1  0.63956844  0.19222699  0.38150972  1  0  -0.69649  0  1.931476  0  0  -0.649376  0  2.17136  0  0  -0.673289  0  2.161567  0  0  -0.372928  -0.632322  0  2.177549  0
O  O88  1  0.48667380  0.12518387  0.79242937  1  0  -0.700189  0  1.988903  0  0  -0.645601  0  2.22494  0  0  -0.669538  0  2.214737  0  0  -0.368662  -0.628548  0  2.231549  0
O  O89  1  0.51332703  0.87481764  0.20757254  1  0  -0.700212  0  1.988898  0  0  -0.645643  0  2.224951  0  0  -0.669575  0  2.214746  0  0  -0.368693  -0.628591  0  2.231569  0
O  O90  1  0.44663932  0.11605144  0.96812164  1  0  -0.806357  0  2.067894  0  0  -0.73991  0  2.326365  0  0  -0.765586  0  2.314066  0  0  -0.434529  -0.721191  0  2.334395  0
O  O91  1  0.55336528  0.88395008  0.03188018  1  0  -0.806374  0  2.067896  0  0  -0.739894  0  2.326309  0  0  -0.765574  0  2.314009  0  0  -0.434514  -0.721175  0  2.334337  0
O  O92  1  0.81301323  0.12926205  0.01204617  1  0  -0.930653  0  1.807682  0  0  -0.88125  0  2.004117  0  0  -0.899834  0  1.97108  0  0  -0.655446  -0.867552  0  2.027194  0
O  O93  1  0.18699032  0.87074883  0.98795463  1  0  -0.930757  0  1.807737  0  0  -0.88136  0  2.004213  0  0  -0.899934  0  1.971169  0  0  -0.655494  -0.867663  0  2.027294  0
