# generated using pymatgen
data_ZnH7C9NO7
_symmetry_space_group_name_H-M   'P 1'
_cell_length_a   5.19006586
_cell_length_b   9.31880675
_cell_length_c   21.32373976
_cell_angle_alpha   90.00003591
_cell_angle_beta   90.00022547
_cell_angle_gamma   103.20230704
_symmetry_Int_Tables_number   1
_chemical_formula_structural   ZnH7C9NO7
_chemical_formula_sum   'Zn4 H28 C36 N4 O28'
_cell_volume   1004.06909707
_cell_formula_units_Z   4
loop_
 _symmetry_equiv_pos_site_id
 _symmetry_equiv_pos_as_xyz
  1  'x, y, z'
loop_
 _atom_site_type_symbol
 _atom_site_label
 _atom_site_symmetry_multiplicity
 _atom_site_fract_x
 _atom_site_fract_y
 _atom_site_fract_z
 _atom_site_occupancy
 _atom_site_hle17_bader_spin_density
 _atom_site_hle17_ddec_charge
 _atom_site_hle17_ddec_spin_density
 _atom_site_hle17_ddec_sum_bond_order
 _atom_site_hle17_magmom
 _atom_site_hse06_10hf_bader_spin_density
 _atom_site_hse06_10hf_ddec_charge
 _atom_site_hse06_10hf_ddec_spin_density
 _atom_site_hse06_10hf_ddec_sum_bond_order
 _atom_site_hse06_10hf_magmom
 _atom_site_hse06_bader_spin_density
 _atom_site_hse06_ddec_charge
 _atom_site_hse06_ddec_spin_density
 _atom_site_hse06_ddec_sum_bond_order
 _atom_site_hse06_magmom
 _atom_site_pbe_bader_spin_density
 _atom_site_pbe_cm5_charge
 _atom_site_pbe_ddec_charge
 _atom_site_pbe_ddec_spin_density
 _atom_site_pbe_ddec_sum_bond_order
 _atom_site_pbe_magmom
Zn  Zn0  1  0.42543514  0.26588926  0.37417620  1  0  1.202065  0  1.675651  0  0  1.028479  0  2.158529  0  0  1.078889  0  2.091968  0  0  0.692283  0.992854  0  2.204413  0
Zn  Zn1  1  0.07457726  0.23410630  0.87417598  1  0  1.202013  0  1.675534  0  0  1.028515  0  2.158353  0  0  1.078921  0  2.091801  0  0  0.692349  0.992884  0  2.204233  0
Zn  Zn2  1  0.57457467  0.73410311  0.62581978  1  0  1.20204  0  1.67556  0  0  1.028486  0  2.158389  0  0  1.078897  0  2.091834  0  0  0.692334  0.992847  0  2.204285  0
Zn  Zn3  1  0.92540470  0.76588403  0.12582282  1  0  1.201919  0  1.675681  0  0  1.028425  0  2.158525  0  0  1.078829  0  2.091975  0  0  0.692307  0.992793  0  2.204407  0
H  H4  1  0.24625775  0.38368563  0.47968291  1  0  0.458668  0  0.828005  0  0  0.427236  0  0.892029  0  0  0.437789  0  0.876535  0  0  0.305614  0.419732  0  0.903033  0
H  H5  1  0.25374915  0.11632147  0.97969136  1  0  0.45864  0  0.828065  0  0  0.42728  0  0.891986  0  0  0.437837  0  0.87649  0  0  0.305683  0.419773  0  0.902996  0
H  H6  1  0.75375437  0.61632108  0.52031214  1  0  0.45864  0  0.828075  0  0  0.42715  0  0.892158  0  0  0.437704  0  0.876665  0  0  0.305644  0.419645  0  0.903164  0
H  H7  1  0.74624913  0.88367096  0.02030838  1  0  0.458687  0  0.828009  0  0  0.427382  0  0.891872  0  0  0.437937  0  0.876377  0  0  0.305708  0.419879  0  0.902873  0
H  H8  1  0.02876877  0.25403054  0.44816859  1  0  0.442232  0  0.862642  0  0  0.409422  0  0.928926  0  0  0.420067  0  0.913629  0  0  0.298476  0.401876  0  0.93977  0
H  H9  1  0.47124146  0.24599851  0.94817076  1  0  0.441925  0  0.863036  0  0  0.40926  0  0.929112  0  0  0.419904  0  0.913817  0  0  0.298409  0.401711  0  0.939962  0
H  H10  1  0.97124427  0.74598280  0.55183020  1  0  0.441994  0  0.862951  0  0  0.409296  0  0.929069  0  0  0.419941  0  0.913772  0  0  0.298438  0.401747  0  0.939914  0
H  H11  1  0.52875198  0.75400059  0.05182569  1  0  0.441932  0  0.863023  0  0  0.409279  0  0.929079  0  0  0.419923  0  0.913785  0  0  0.298403  0.401728  0  0.939933  0
H  H12  1  0.28523117  0.35410463  0.18401528  1  0  0.130719  0  0.948561  0  0  0.134478  0  1.015579  0  0  0.138819  0  1.011008  0  0  0.137022  0.131389  0  1.018613  0
H  H13  1  0.21476644  0.14588356  0.68401524  1  0  0.130812  0  0.948504  0  0  0.134472  0  1.015613  0  0  0.138814  0  1.011042  0  0  0.137037  0.131379  0  1.018645  0
H  H14  1  0.71477098  0.64588336  0.81598351  1  0  0.1307  0  0.948586  0  0  0.134454  0  1.015598  0  0  0.138796  0  1.011027  0  0  0.137006  0.131363  0  1.018621  0
H  H15  1  0.78522360  0.85412108  0.31598918  1  0  0.130772  0  0.948554  0  0  0.134442  0  1.015672  0  0  0.138783  0  1.011099  0  0  0.137032  0.131348  0  1.0187  0
H  H16  1  0.57374730  0.02646523  0.22617974  1  0  0.130372  0  0.916518  0  0  0.136669  0  0.979735  0  0  0.140741  0  0.975159  0  0  0.124297  0.133476  0  0.983341  0
H  H17  1  0.92623617  0.47351758  0.72618139  1  0  0.130356  0  0.916567  0  0  0.136692  0  0.97978  0  0  0.140765  0  0.975197  0  0  0.124264  0.133494  0  0.983391  0
H  H18  1  0.42624474  0.97352614  0.77381671  1  0  0.130429  0  0.916535  0  0  0.13668  0  0.979812  0  0  0.140753  0  0.975235  0  0  0.124322  0.133489  0  0.983425  0
H  H19  1  0.07375245  0.52648376  0.27382116  1  0  0.130309  0  0.916391  0  0  0.13661  0  0.979668  0  0  0.140683  0  0.975086  0  0  0.124257  0.133421  0  0.983286  0
H  H20  1  0.74345367  0.21309758  0.04063125  1  0  0.127669  0  0.951246  0  0  0.132778  0  1.01707  0  0  0.137129  0  1.012066  0  0  0.137113  0.129508  0  1.020791  0
H  H21  1  0.75654329  0.28689870  0.54063315  1  0  0.127787  0  0.95125  0  0  0.132849  0  1.01706  0  0  0.137202  0  1.01205  0  0  0.137155  0.129572  0  1.0208  0
H  H22  1  0.25654837  0.78690810  0.95936660  1  0  0.127718  0  0.951199  0  0  0.132819  0  1.017003  0  0  0.137167  0  1.012006  0  0  0.137145  0.129546  0  1.020729  0
H  H23  1  0.24345733  0.71310367  0.45936846  1  0  0.127677  0  0.951375  0  0  0.132758  0  1.017173  0  0  0.13711  0  1.012164  0  0  0.137101  0.129488  0  1.020888  0
H  H24  1  0.16782272  0.34565302  0.02043696  1  0  0.126109  0  0.943779  0  0  0.134341  0  1.011379  0  0  0.137472  0  1.008956  0  0  0.125166  0.132015  0  1.013221  0
H  H25  1  0.33216561  0.15434446  0.52043613  1  0  0.126192  0  0.943622  0  0  0.134383  0  1.011255  0  0  0.137515  0  1.008831  0  0  0.125167  0.132052  0  1.013103  0
H  H26  1  0.83217790  0.65434935  0.97956137  1  0  0.126122  0  0.9438  0  0  0.134332  0  1.01141  0  0  0.137466  0  1.008986  0  0  0.125155  0.131998  0  1.013259  0
H  H27  1  0.66783216  0.84565129  0.47956829  1  0  0.126222  0  0.943608  0  0  0.134395  0  1.011295  0  0  0.137525  0  1.008873  0  0  0.125191  0.132064  0  1.013138  0
H  H28  1  0.39651117  0.40460874  0.08240654  1  0  0.137478  0  0.905517  0  0  0.147098  0  0.968447  0  0  0.149967  0  0.966502  0  0  0.129407  0.144987  0  0.969863  0
H  H29  1  0.10348424  0.09537681  0.58240307  1  0  0.137474  0  0.90557  0  0  0.147107  0  0.968479  0  0  0.149979  0  0.96653  0  0  0.129403  0.144995  0  0.969892  0
H  H30  1  0.60348466  0.59539145  0.91759226  1  0  0.137497  0  0.905448  0  0  0.147054  0  0.968429  0  0  0.149928  0  0.966481  0  0  0.129391  0.144939  0  0.969844  0
H  H31  1  0.89652127  0.90461005  0.41759713  1  0  0.137525  0  0.905536  0  0  0.14717  0  0.968425  0  0  0.150043  0  0.966476  0  0  0.129393  0.145051  0  0.969844  0
C  C32  1  0.09930829  0.27978721  0.17090911  1  0  0.102472  0  3.529873  0  0  0.046832  0  3.780118  0  0  0.058874  0  3.79205  0  0  0.080226  0.039143  0  3.772064  0
C  C33  1  0.40072140  0.22019077  0.67091306  1  0  0.102212  0  3.530173  0  0  0.046679  0  3.7804  0  0  0.058715  0  3.79233  0  0  0.080194  0.038994  0  3.772343  0
C  C34  1  0.90069812  0.72021070  0.82908968  1  0  0.102366  0  3.530173  0  0  0.046776  0  3.780353  0  0  0.058815  0  3.792283  0  0  0.080264  0.039087  0  3.772284  0
C  C35  1  0.59928546  0.77981266  0.32908901  1  0  0.102444  0  3.530064  0  0  0.046821  0  3.780386  0  0  0.058863  0  3.792313  0  0  0.080186  0.039131  0  3.772326  0
C  C36  1  0.94205865  0.18636869  0.21347302  1  0  -0.080019  0  3.690907  0  0  -0.052599  0  3.928589  0  0  -0.066474  0  3.949451  0  0  0.006353  -0.044256  0  3.915017  0
C  C37  1  0.55794001  0.31361838  0.71347887  1  0  -0.080045  0  3.691047  0  0  -0.052563  0  3.928675  0  0  -0.066438  0  3.949543  0  0  0.006436  -0.044229  0  3.915109  0
C  C38  1  0.05793821  0.81362044  0.78652156  1  0  -0.080066  0  3.691365  0  0  -0.05261  0  3.929013  0  0  -0.066484  0  3.949875  0  0  0.006387  -0.044269  0  3.915436  0
C  C39  1  0.44204858  0.68638738  0.28652414  1  0  -0.080269  0  3.691122  0  0  -0.052752  0  3.928759  0  0  -0.066625  0  3.94962  0  0  0.006411  -0.044422  0  3.915199  0
C  C40  1  0.69950453  0.10023468  0.19339524  1  0  0.035822  0  3.582966  0  0  -0.011608  0  3.837487  0  0  0.001214  0  3.847355  0  0  -0.029137  -0.019345  0  3.830623  0
C  C41  1  0.80047121  0.39976682  0.69339437  1  0  0.035984  0  3.583191  0  0  -0.011604  0  3.837885  0  0  0.001218  0  3.847755  0  0  -0.029146  -0.019342  0  3.831025  0
C  C42  1  0.30048313  0.89976446  0.80660215  1  0  0.035851  0  3.583  0  0  -0.011618  0  3.837622  0  0  0.001205  0  3.847487  0  0  -0.029193  -0.019359  0  3.830766  0
C  C43  1  0.19951545  0.60023895  0.30660911  1  0  0.036168  0  3.582886  0  0  -0.011354  0  3.837616  0  0  0.001469  0  3.847486  0  0  -0.029113  -0.0191  0  3.830773  0
C  C44  1  0.62103435  0.10792343  0.13085222  1  0  -0.099021  0  3.70594  0  0  -0.074308  0  3.954208  0  0  -0.088538  0  3.97542  0  0  0.000401  -0.065784  0  3.940027  0
C  C45  1  0.87895842  0.39207437  0.63085427  1  0  -0.099072  0  3.705794  0  0  -0.074411  0  3.95413  0  0  -0.088639  0  3.975343  0  0  0.000383  -0.065875  0  3.939935  0
C  C46  1  0.37896148  0.89207676  0.86914564  1  0  -0.099044  0  3.70575  0  0  -0.074324  0  3.954022  0  0  -0.088555  0  3.975236  0  0  0.0004  -0.065798  0  3.939843  0
C  C47  1  0.12104025  0.60793243  0.36914828  1  0  -0.099013  0  3.7056  0  0  -0.074474  0  3.95414  0  0  -0.088711  0  3.975366  0  0  0.000367  -0.065954  0  3.93996  0
C  C48  1  0.78818601  0.20164339  0.09000489  1  0  0.108115  0  3.514298  0  0  0.053966  0  3.762777  0  0  0.066782  0  3.773787  0  0  0.079769  0.04597  0  3.755125  0
C  C49  1  0.71183129  0.29834523  0.59000626  1  0  0.107763  0  3.51422  0  0  0.053802  0  3.762558  0  0  0.066611  0  3.773564  0  0  0.079763  0.04581  0  3.754893  0
C  C50  1  0.21181366  0.79835678  0.90999296  1  0  0.107975  0  3.514449  0  0  0.053889  0  3.762903  0  0  0.066702  0  3.773907  0  0  0.079795  0.045891  0  3.755259  0
C  C51  1  0.28817562  0.70164936  0.40999910  1  0  0.107989  0  3.514031  0  0  0.05401  0  3.762442  0  0  0.066827  0  3.773449  0  0  0.07985  0.046025  0  3.754765  0
C  C52  1  0.04243835  0.17861304  0.27965313  1  0  0.654962  0  3.940456  0  0  0.606111  0  4.228978  0  0  0.641098  0  4.222919  0  0  0.210918  0.582486  0  4.232419  0
C  C53  1  0.45753117  0.32137022  0.77966138  1  0  0.655103  0  3.94061  0  0  0.606268  0  4.229101  0  0  0.641254  0  4.223039  0  0  0.210974  0.58265  0  4.232546  0
C  C54  1  0.95755706  0.82137720  0.72034379  1  0  0.654765  0  3.940323  0  0  0.605849  0  4.228956  0  0  0.640837  0  4.222903  0  0  0.210762  0.582232  0  4.232387  0
C  C55  1  0.54246561  0.67863217  0.22034163  1  0  0.655276  0  3.940646  0  0  0.606478  0  4.229066  0  0  0.641463  0  4.223007  0  0  0.211046  0.58287  0  4.232504  0
C  C56  1  0.36328162  0.01374910  0.10642997  1  0  0.663662  0  3.941793  0  0  0.607133  0  4.244893  0  0  0.641879  0  4.238948  0  0  0.210865  0.58413  0  4.247706  0
C  C57  1  0.13672843  0.48624751  0.60642749  1  0  0.663708  0  3.941599  0  0  0.607126  0  4.244789  0  0  0.641867  0  4.238844  0  0  0.210849  0.584119  0  4.247605  0
C  C58  1  0.63671758  0.98624996  0.89356882  1  0  0.66361  0  3.941625  0  0  0.607054  0  4.244779  0  0  0.641798  0  4.238832  0  0  0.210834  0.584044  0  4.247598  0
C  C59  1  0.86325871  0.51375937  0.39357224  1  0  0.663699  0  3.941653  0  0  0.607129  0  4.24488  0  0  0.64187  0  4.238938  0  0  0.210819  0.584131  0  4.247686  0
C  C60  1  0.18928187  0.39012336  0.06811717  1  0  -0.179696  0  3.564559  0  0  -0.239283  0  3.808035  0  0  -0.240843  0  3.813772  0  0  -0.050788  -0.238046  0  3.804145  0
C  C61  1  0.31071908  0.10987094  0.56811772  1  0  -0.179908  0  3.564537  0  0  -0.239455  0  3.808007  0  0  -0.24102  0  3.813741  0  0  -0.050797  -0.238217  0  3.804118  0
C  C62  1  0.81072212  0.60987788  0.93188069  1  0  -0.179796  0  3.564417  0  0  -0.239256  0  3.80784  0  0  -0.240833  0  3.813585  0  0  -0.050743  -0.238015  0  3.803947  0
C  C63  1  0.68928975  0.89012364  0.43188624  1  0  -0.179853  0  3.564622  0  0  -0.239449  0  3.808008  0  0  -0.241011  0  3.813746  0  0  -0.050806  -0.238206  0  3.804108  0
C  C64  1  0.12314722  0.54166698  0.06920840  1  0  0.714222  0  3.864647  0  0  0.660519  0  4.170529  0  0  0.694574  0  4.162638  0  0  0.22048  0.637288  0  4.175087  0
C  C65  1  0.37685422  0.95833537  0.56920482  1  0  0.714061  0  3.86504  0  0  0.660378  0  4.170897  0  0  0.694437  0  4.162996  0  0  0.220391  0.637144  0  4.175466  0
C  C66  1  0.87685390  0.45833207  0.93079743  1  0  0.7142  0  3.864738  0  0  0.660482  0  4.170635  0  0  0.694545  0  4.162735  0  0  0.220464  0.637257  0  4.175188  0
C  C67  1  0.62316174  0.04167132  0.43079866  1  0  0.713839  0  3.86522  0  0  0.660324  0  4.17085  0  0  0.694381  0  4.162955  0  0  0.220432  0.637087  0  4.175415  0
N  N68  1  0.02113515  0.28503810  0.11070199  1  0  0.03283  0  3.564778  0  0  0.125702  0  3.777741  0  0  0.111502  0  3.802898  0  0  -0.20412  0.134776  0  3.760434  0
N  N69  1  0.47888559  0.21494741  0.61070651  1  0  0.033295  0  3.56429  0  0  0.126047  0  3.777228  0  0  0.111868  0  3.802345  0  0  -0.204211  0.135116  0  3.759924  0
N  N70  1  0.97888228  0.71496306  0.88929493  1  0  0.033123  0  3.564747  0  0  0.125908  0  3.777727  0  0  0.111725  0  3.802856  0  0  -0.204219  0.134983  0  3.760411  0
N  N71  1  0.52112464  0.78505489  0.38929745  1  0  0.0329  0  3.564425  0  0  0.12574  0  3.777378  0  0  0.111546  0  3.802518  0  0  -0.204244  0.134818  0  3.760056  0
O  O72  1  0.26995759  0.26659088  0.29005296  1  0  -0.663474  0  2.037173  0  0  -0.59162  0  2.30938  0  0  -0.622993  0  2.294665  0  0  -0.32587  -0.569519  0  2.318677  0
O  O73  1  0.23005333  0.23339879  0.79005950  1  0  -0.663549  0  2.037546  0  0  -0.591681  0  2.309694  0  0  -0.623047  0  2.294967  0  0  -0.325954  -0.569591  0  2.319  0
O  O74  1  0.73004216  0.73339602  0.70994349  1  0  -0.663395  0  2.037142  0  0  -0.591504  0  2.309308  0  0  -0.622875  0  2.294593  0  0  -0.32583  -0.569407  0  2.318603  0
O  O75  1  0.76993866  0.76660142  0.20994164  1  0  -0.663551  0  2.037487  0  0  -0.591666  0  2.30961  0  0  -0.623038  0  2.294891  0  0  -0.325921  -0.569574  0  2.318905  0
O  O76  1  0.90816689  0.09143917  0.31770612  1  0  -0.594858  0  1.960677  0  0  -0.549688  0  2.190326  0  0  -0.574038  0  2.182188  0  0  -0.305096  -0.532855  0  2.195235  0
O  O77  1  0.59180265  0.40857176  0.81770217  1  0  -0.594868  0  1.960758  0  0  -0.549754  0  2.190448  0  0  -0.574097  0  2.182285  0  0  -0.305093  -0.532929  0  2.195359  0
O  O78  1  0.09182605  0.90856325  0.68229033  1  0  -0.594757  0  1.960351  0  0  -0.549512  0  2.18997  0  0  -0.573868  0  2.181844  0  0  -0.305012  -0.532685  0  2.194878  0
O  O79  1  0.40819800  0.59142619  0.18230085  1  0  -0.594922  0  1.960669  0  0  -0.549887  0  2.190419  0  0  -0.574221  0  2.182231  0  0  -0.305168  -0.533066  0  2.195336  0
O  O80  1  0.25470588  0.91020727  0.14422253  1  0  -0.648981  0  2.065131  0  0  -0.57491  0  2.343295  0  0  -0.605717  0  2.328439  0  0  -0.31755  -0.553744  0  2.352508  0
O  O81  1  0.24529511  0.58978325  0.64422581  1  0  -0.649068  0  2.065202  0  0  -0.574903  0  2.343298  0  0  -0.605731  0  2.328498  0  0  -0.317555  -0.553742  0  2.352521  0
O  O82  1  0.74528226  0.08979297  0.85577579  1  0  -0.649023  0  2.065166  0  0  -0.574905  0  2.343286  0  0  -0.60573  0  2.328479  0  0  -0.317565  -0.553743  0  2.352526  0
O  O83  1  0.75471370  0.41021574  0.35577251  1  0  -0.649052  0  2.06507  0  0  -0.574854  0  2.343132  0  0  -0.605681  0  2.328333  0  0  -0.317516  -0.55371  0  2.352379  0
O  O84  1  0.27427391  0.04149886  0.05432742  1  0  -0.629439  0  1.957278  0  0  -0.577583  0  2.186341  0  0  -0.602021  0  2.1777  0  0  -0.318341  -0.560609  0  2.191718  0
O  O85  1  0.22573021  0.45849866  0.55432646  1  0  -0.629407  0  1.9573  0  0  -0.577543  0  2.186416  0  0  -0.601978  0  2.17778  0  0  -0.318324  -0.560575  0  2.191798  0
O  O86  1  0.72573678  0.95850454  0.94567278  1  0  -0.629408  0  1.957134  0  0  -0.577584  0  2.186259  0  0  -0.602022  0  2.177623  0  0  -0.318328  -0.560611  0  2.191642  0
O  O87  1  0.77425841  0.54150268  0.44567093  1  0  -0.629436  0  1.957506  0  0  -0.577526  0  2.186591  0  0  -0.601958  0  2.177952  0  0  -0.318307  -0.560558  0  2.191968  0
O  O88  1  0.93236963  0.55861932  0.10387170  1  0  -0.644345  0  2.04455  0  0  -0.578307  0  2.319466  0  0  -0.606672  0  2.3036  0  0  -0.314813  -0.558587  0  2.329483  0
O  O89  1  0.56763821  0.94138080  0.60386631  1  0  -0.644225  0  2.044545  0  0  -0.578244  0  2.319524  0  0  -0.606619  0  2.303683  0  0  -0.314727  -0.558526  0  2.329549  0
O  O90  1  0.06761804  0.44137982  0.89613413  1  0  -0.644244  0  2.044616  0  0  -0.578241  0  2.319585  0  0  -0.606606  0  2.303718  0  0  -0.314712  -0.558524  0  2.329597  0
O  O91  1  0.43236523  0.05863260  0.39613717  1  0  -0.644254  0  2.044628  0  0  -0.578263  0  2.319467  0  0  -0.606647  0  2.303638  0  0  -0.314768  -0.558545  0  2.32949  0
O  O92  1  0.26312666  0.63765662  0.03434781  1  0  -0.650765  0  2.002854  0  0  -0.592817  0  2.236523  0  0  -0.618614  0  2.225691  0  0  -0.318405  -0.57477  0  2.243574  0
O  O93  1  0.23684747  0.86234134  0.53434921  1  0  -0.650701  0  2.002944  0  0  -0.592808  0  2.236684  0  0  -0.618602  0  2.225848  0  0  -0.318435  -0.574762  0  2.243735  0
O  O94  1  0.73686150  0.36233920  0.96565614  1  0  -0.650728  0  2.002677  0  0  -0.592831  0  2.236427  0  0  -0.618627  0  2.225585  0  0  -0.318461  -0.574797  0  2.243486  0
O  O95  1  0.76316902  0.13765761  0.46565334  1  0  -0.650633  0  2.00316  0  0  -0.592771  0  2.236852  0  0  -0.618563  0  2.226021  0  0  -0.318479  -0.574729  0  2.243905  0
O  O96  1  0.20071945  0.32662601  0.44048619  1  0  -0.876745  0  1.942156  0  0  -0.807972  0  2.179943  0  0  -0.83081  0  2.140304  0  0  -0.574152  -0.792001  0  2.207637  0
O  O97  1  0.29927820  0.17340087  0.94049704  1  0  -0.876463  0  1.942318  0  0  -0.807908  0  2.17985  0  0  -0.830752  0  2.140217  0  0  -0.574259  -0.79193  0  2.20754  0
O  O98  1  0.79928832  0.67338405  0.55950885  1  0  -0.876548  0  1.942358  0  0  -0.807829  0  2.180153  0  0  -0.830666  0  2.140517  0  0  -0.574237  -0.79186  0  2.207848  0
O  O99  1  0.70071716  0.82659821  0.05950082  1  0  -0.87647  0  1.942221  0  0  -0.808033  0  2.179664  0  0  -0.830875  0  2.140029  0  0  -0.574297  -0.792059  0  2.207354  0
