# generated using pymatgen
data_AgH4C6N5O3
_symmetry_space_group_name_H-M   'P 1'
_cell_length_a   5.86540767
_cell_length_b   8.44149438
_cell_length_c   17.89922870
_cell_angle_alpha   90.00130538
_cell_angle_beta   90.72740494
_cell_angle_gamma   90.00022064
_symmetry_Int_Tables_number   1
_chemical_formula_structural   AgH4C6N5O3
_chemical_formula_sum   'Ag4 H16 C24 N20 O12'
_cell_volume   886.16961457
_cell_formula_units_Z   4
loop_
 _symmetry_equiv_pos_site_id
 _symmetry_equiv_pos_as_xyz
  1  'x, y, z'
loop_
 _atom_site_type_symbol
 _atom_site_label
 _atom_site_symmetry_multiplicity
 _atom_site_fract_x
 _atom_site_fract_y
 _atom_site_fract_z
 _atom_site_occupancy
 _atom_site_hle17_bader_spin_density
 _atom_site_hle17_ddec_charge
 _atom_site_hle17_ddec_spin_density
 _atom_site_hle17_ddec_sum_bond_order
 _atom_site_hle17_magmom
 _atom_site_hse06_10hf_bader_spin_density
 _atom_site_hse06_10hf_ddec_charge
 _atom_site_hse06_10hf_ddec_spin_density
 _atom_site_hse06_10hf_ddec_sum_bond_order
 _atom_site_hse06_10hf_magmom
 _atom_site_hse06_bader_spin_density
 _atom_site_hse06_ddec_charge
 _atom_site_hse06_ddec_spin_density
 _atom_site_hse06_ddec_sum_bond_order
 _atom_site_hse06_magmom
 _atom_site_pbe_bader_spin_density
 _atom_site_pbe_cm5_charge
 _atom_site_pbe_ddec_charge
 _atom_site_pbe_ddec_spin_density
 _atom_site_pbe_ddec_sum_bond_order
 _atom_site_pbe_magmom
Ag  Ag0  1  0.52176088  0.94565773  0.84976452  1  0  0.615514  0  1.408837  0  0  0.485583  0  1.86654  0  0  0.511616  0  1.816191  0  0  0.488193  0.468451  0  1.900937  0
Ag  Ag1  1  0.47820160  0.44567423  0.65023630  1  0  0.615524  0  1.408831  0  0  0.485591  0  1.866559  0  0  0.511633  0  1.816201  0  0  0.48822  0.468456  0  1.900958  0
Ag  Ag2  1  0.47822665  0.05433339  0.15023032  1  0  0.615544  0  1.409006  0  0  0.485626  0  1.866682  0  0  0.511633  0  1.816372  0  0  0.488244  0.468498  0  1.901079  0
Ag  Ag3  1  0.52176728  0.55434414  0.34975716  1  0  0.615522  0  1.40869  0  0  0.485586  0  1.866382  0  0  0.511626  0  1.816034  0  0  0.48817  0.468452  0  1.900776  0
H  H4  1  0.17405298  0.63624474  0.78289465  1  0  0.132529  0  0.933398  0  0  0.138051  0  0.997972  0  0  0.141405  0  0.993489  0  0  0.149106  0.135445  0  1.001446  0
H  H5  1  0.82591030  0.13626314  0.71710655  1  0  0.132665  0  0.933335  0  0  0.1381  0  0.997979  0  0  0.141447  0  0.993511  0  0  0.149116  0.135494  0  1.001456  0
H  H6  1  0.82593192  0.36373454  0.21711077  1  0  0.132563  0  0.933626  0  0  0.137937  0  0.998326  0  0  0.141284  0  0.993857  0  0  0.149085  0.13533  0  1.001801  0
H  H7  1  0.17407319  0.86375760  0.28289549  1  0  0.132519  0  0.933469  0  0  0.138002  0  0.99805  0  0  0.141351  0  0.993578  0  0  0.14911  0.135398  0  1.001523  0
H  H8  1  0.84635773  0.45396828  0.79300595  1  0  0.132946  0  0.943401  0  0  0.146274  0  1.014407  0  0  0.148818  0  1.011838  0  0  0.115986  0.14422  0  1.016481  0
H  H9  1  0.15362591  0.95398041  0.70699155  1  0  0.13284  0  0.94332  0  0  0.146197  0  1.014297  0  0  0.14874  0  1.01173  0  0  0.115975  0.144144  0  1.01637  0
H  H10  1  0.15362902  0.54601455  0.20699782  1  0  0.13299  0  0.943415  0  0  0.146335  0  1.014391  0  0  0.148878  0  1.011822  0  0  0.115999  0.144279  0  1.016469  0
H  H11  1  0.84636805  0.04603678  0.29300784  1  0  0.133  0  0.943397  0  0  0.146354  0  1.014365  0  0  0.148897  0  1.011795  0  0  0.116039  0.144297  0  1.016444  0
H  H12  1  0.62056497  0.53536949  0.84861416  1  0  0.119407  0  0.938912  0  0  0.133319  0  1.011573  0  0  0.134183  0  1.011031  0  0  0.108047  0.132541  0  1.012141  0
H  H13  1  0.37940763  0.03538028  0.65138235  1  0  0.119345  0  0.938922  0  0  0.133266  0  1.011595  0  0  0.13413  0  1.011054  0  0  0.108031  0.13249  0  1.012163  0
H  H14  1  0.37941896  0.46461216  0.15138286  1  0  0.119361  0  0.938933  0  0  0.133331  0  1.011566  0  0  0.134196  0  1.011022  0  0  0.108041  0.132553  0  1.012135  0
H  H15  1  0.62061165  0.96462980  0.34862018  1  0  0.119383  0  0.938938  0  0  0.133282  0  1.011699  0  0  0.134145  0  1.011157  0  0  0.108039  0.132505  0  1.01227  0
H  H16  1  0.80221814  0.38348852  0.88507044  1  0  0.118156  0  0.935611  0  0  0.136782  0  1.000174  0  0  0.136767  0  1.000971  0  0  0.108432  0.136749  0  0.999656  0
H  H17  1  0.19775035  0.88348987  0.61492595  1  0  0.118061  0  0.935614  0  0  0.136651  0  1.000225  0  0  0.136637  0  1.00102  0  0  0.108436  0.136618  0  0.999706  0
H  H18  1  0.19778731  0.61650616  0.11493414  1  0  0.118198  0  0.935503  0  0  0.136851  0  1.000059  0  0  0.136836  0  1.000858  0  0  0.108484  0.136817  0  0.999539  0
H  H19  1  0.80224240  0.11650362  0.38506784  1  0  0.118042  0  0.935664  0  0  0.136718  0  1.000191  0  0  0.136703  0  1.000987  0  0  0.108463  0.136685  0  0.999673  0
C  C20  1  0.13344140  0.66970158  0.83964812  1  0  0.228565  0  3.569185  0  0  0.158214  0  3.848338  0  0  0.173336  0  3.858525  0  0  0.175963  0.148095  0  3.841678  0
C  C21  1  0.86654359  0.16968427  0.66035684  1  0  0.228406  0  3.568814  0  0  0.158076  0  3.848088  0  0  0.173201  0  3.858273  0  0  0.175928  0.147953  0  3.841431  0
C  C22  1  0.86653230  0.33031561  0.16036833  1  0  0.22877  0  3.568322  0  0  0.158503  0  3.847509  0  0  0.173635  0  3.857679  0  0  0.176057  0.148381  0  3.840854  0
C  C23  1  0.13348592  0.83030212  0.33964583  1  0  0.228864  0  3.569299  0  0  0.15852  0  3.848484  0  0  0.173645  0  3.858663  0  0  0.176076  0.148399  0  3.841824  0
C  C24  1  0.13797352  0.78022316  0.94874902  1  0  0.089027  0  3.88673  0  0  0.080939  0  4.141345  0  0  0.082868  0  4.159719  0  0  0.111396  0.079694  0  4.129146  0
C  C25  1  0.86201382  0.28019938  0.55124941  1  0  0.089005  0  3.886672  0  0  0.080909  0  4.141276  0  0  0.082846  0  4.159641  0  0  0.111294  0.079632  0  4.129122  0
C  C26  1  0.86200174  0.21979047  0.05124956  1  0  0.088848  0  3.886863  0  0  0.080723  0  4.141623  0  0  0.082663  0  4.159998  0  0  0.11121  0.079474  0  4.129431  0
C  C27  1  0.13802265  0.71978345  0.44875168  1  0  0.089007  0  3.886661  0  0  0.080878  0  4.141441  0  0  0.082828  0  4.15982  0  0  0.111304  0.079608  0  4.129272  0
C  C28  1  0.20943819  0.87704426  0.00845566  1  0  0.303134  0  3.724887  0  0  0.281713  0  3.996167  0  0  0.29568  0  4.010811  0  0  0.214017  0.271919  0  3.9868  0
C  C29  1  0.79049368  0.37702848  0.49155624  1  0  0.303191  0  3.724708  0  0  0.281777  0  3.995978  0  0  0.295737  0  4.010627  0  0  0.214198  0.271995  0  3.986617  0
C  C30  1  0.79050288  0.12297885  0.99154357  1  0  0.303224  0  3.725039  0  0  0.281832  0  3.996302  0  0  0.295796  0  4.010946  0  0  0.214209  0.272042  0  3.986937  0
C  C31  1  0.20950802  0.62296738  0.50845220  1  0  0.303167  0  3.725067  0  0  0.2818  0  3.996311  0  0  0.295765  0  4.010956  0  0  0.214157  0.272013  0  3.98695  0
C  C32  1  0.95047724  0.67771750  0.94658503  1  0  0.035584  0  3.824375  0  0  0.019044  0  4.073545  0  0  0.022632  0  4.09021  0  0  0.114362  0.016586  0  4.062586  0
C  C33  1  0.04951059  0.17770461  0.55341132  1  0  0.035598  0  3.823728  0  0  0.019085  0  4.072888  0  0  0.022675  0  4.089537  0  0  0.114265  0.016639  0  4.061934  0
C  C34  1  0.04948731  0.32229021  0.05341900  1  0  0.035858  0  3.824042  0  0  0.019165  0  4.073425  0  0  0.022729  0  4.090122  0  0  0.114328  0.016711  0  4.062463  0
C  C35  1  0.95053503  0.82228770  0.44658262  1  0  0.035862  0  3.824438  0  0  0.019139  0  4.073869  0  0  0.022669  0  4.09061  0  0  0.114361  0.0167  0  4.062894  0
C  C36  1  0.78363049  0.64875600  0.00040007  1  0  0.240904  0  3.775147  0  0  0.226837  0  4.060773  0  0  0.23599  0  4.077668  0  0  0.185794  0.220521  0  4.049693  0
C  C37  1  0.21638597  0.14873763  0.49959509  1  0  0.240348  0  3.774846  0  0  0.226263  0  4.06051  0  0  0.235406  0  4.07743  0  0  0.18556  0.219954  0  4.049414  0
C  C38  1  0.21634180  0.35127659  0.99959344  1  0  0.240498  0  3.775356  0  0  0.226462  0  4.061048  0  0  0.235618  0  4.077957  0  0  0.185769  0.22015  0  4.049961  0
C  C39  1  0.78366803  0.85126297  0.50040064  1  0  0.240699  0  3.774957  0  0  0.226699  0  4.060628  0  0  0.235868  0  4.077552  0  0  0.185819  0.220381  0  4.049535  0
C  C40  1  0.79422139  0.48809454  0.84909486  1  0  -0.175762  0  3.589397  0  0  -0.281756  0  3.840559  0  0  -0.2778  0  3.848098  0  0  -0.133311  -0.284139  0  3.835632  0
C  C41  1  0.20576423  0.98810036  0.65089833  1  0  -0.17553  0  3.589337  0  0  -0.281578  0  3.840646  0  0  -0.277622  0  3.848189  0  0  -0.13327  -0.283965  0  3.835719  0
C  C42  1  0.20577393  0.51189895  0.15090846  1  0  -0.175745  0  3.589498  0  0  -0.281863  0  3.840745  0  0  -0.277905  0  3.848281  0  0  -0.13339  -0.284248  0  3.835819  0
C  C43  1  0.79425944  0.01190498  0.34909308  1  0  -0.175556  0  3.58936  0  0  -0.281717  0  3.840718  0  0  -0.277756  0  3.848247  0  0  -0.133433  -0.284105  0  3.835798  0
N  N44  1  0.24845228  0.77384194  0.88150955  1  0  -0.361629  0  3.231364  0  0  -0.301832  0  3.54814  0  0  -0.32027  0  3.558011  0  0  -0.335853  -0.289491  0  3.541348  0
N  N45  1  0.75152806  0.27383168  0.61848744  1  0  -0.361657  0  3.23091  0  0  -0.301811  0  3.547589  0  0  -0.320254  0  3.557459  0  0  -0.335761  -0.289458  0  3.540805  0
N  N46  1  0.75151465  0.22616340  0.11848668  1  0  -0.361694  0  3.230668  0  0  -0.30184  0  3.54742  0  0  -0.320278  0  3.55728  0  0  -0.335857  -0.289496  0  3.540629  0
N  N47  1  0.24849146  0.72616774  0.38151230  1  0  -0.361748  0  3.231379  0  0  -0.301869  0  3.548145  0  0  -0.320306  0  3.558007  0  0  -0.335904  -0.289519  0  3.541359  0
N  N48  1  0.64693311  0.62702940  0.04621996  1  0  -0.325756  0  2.558201  0  0  -0.308654  0  2.788487  0  0  -0.317284  0  2.803629  0  0  -0.271251  -0.303125  0  2.778598  0
N  N49  1  0.35308435  0.12702286  0.45377163  1  0  -0.325244  0  2.558099  0  0  -0.308088  0  2.788342  0  0  -0.31672  0  2.803494  0  0  -0.270939  -0.302559  0  2.778448  0
N  N50  1  0.35304381  0.37297949  0.95377921  1  0  -0.325433  0  2.558848  0  0  -0.308289  0  2.789095  0  0  -0.316921  0  2.804238  0  0  -0.271184  -0.302761  0  2.779207  0
N  N51  1  0.64696137  0.87296352  0.54622120  1  0  -0.325664  0  2.558118  0  0  -0.308533  0  2.788396  0  0  -0.317163  0  2.803538  0  0  -0.271259  -0.303005  0  2.778507  0
N  N52  1  0.26533685  0.95724826  0.05852079  1  0  -0.379595  0  2.889257  0  0  -0.335567  0  3.193486  0  0  -0.348426  0  3.195406  0  0  -0.314806  -0.327471  0  3.192823  0
N  N53  1  0.73466953  0.45722618  0.44148222  1  0  -0.379644  0  2.888872  0  0  -0.335623  0  3.193017  0  0  -0.348482  0  3.194942  0  0  -0.314866  -0.327527  0  3.192348  0
N  N54  1  0.73463997  0.04278078  0.94147949  1  0  -0.37963  0  2.889506  0  0  -0.335597  0  3.193656  0  0  -0.348459  0  3.195579  0  0  -0.314895  -0.327499  0  3.192992  0
N  N55  1  0.26535691  0.54276139  0.55851649  1  0  -0.37964  0  2.889511  0  0  -0.335607  0  3.193692  0  0  -0.34847  0  3.195615  0  0  -0.314911  -0.327511  0  3.193025  0
N  N56  1  0.95354702  0.60837202  0.87680883  1  0  -0.034103  0  3.529776  0  0  0.061124  0  3.749889  0  0  0.045359  0  3.776445  0  0  -0.217911  0.071385  0  3.732066  0
N  N57  1  0.04644050  0.10836019  0.62319279  1  0  -0.034008  0  3.529587  0  0  0.061245  0  3.749638  0  0  0.045479  0  3.776195  0  0  -0.217953  0.071507  0  3.731809  0
N  N58  1  0.04644650  0.39163687  0.12319559  1  0  -0.03439  0  3.529821  0  0  0.06097  0  3.749909  0  0  0.045209  0  3.776467  0  0  -0.217889  0.071232  0  3.73208  0
N  N59  1  0.95357907  0.89162856  0.37680639  1  0  -0.034518  0  3.530227  0  0  0.060817  0  3.750402  0  0  0.045068  0  3.776967  0  0  -0.217922  0.071076  0  3.732573  0
N  N60  1  0.28354215  0.24020496  0.78487653  1  0  0.693122  0  4.144409  0  0  0.73303  0  4.413241  0  0  0.762147  0  4.42086  0  0  0.090885  0.713414  0  4.407385  0
N  N61  1  0.71643794  0.74020923  0.71512480  1  0  0.693236  0  4.144324  0  0  0.733295  0  4.412958  0  0  0.762412  0  4.420573  0  0  0.090963  0.713677  0  4.407104  0
N  N62  1  0.71647231  0.75978971  0.21512258  1  0  0.693091  0  4.144668  0  0  0.733018  0  4.413472  0  0  0.762136  0  4.421087  0  0  0.090762  0.713402  0  4.407614  0
N  N63  1  0.28356108  0.25978426  0.28487522  1  0  0.693337  0  4.144152  0  0  0.733305  0  4.412895  0  0  0.762422  0  4.420508  0  0  0.091018  0.713688  0  4.407038  0
O  O64  1  0.21899459  0.36251092  0.74800857  1  0  -0.490621  0  1.829257  0  0  -0.465583  0  2.07127  0  0  -0.48515  0  2.06193  0  0  -0.203598  -0.45166  0  2.077266  0
O  O65  1  0.78098943  0.86250925  0.75199396  1  0  -0.490601  0  1.82921  0  0  -0.4656  0  2.071154  0  0  -0.485163  0  2.061809  0  0  -0.203546  -0.451681  0  2.077157  0
O  O66  1  0.78100780  0.63748849  0.25199205  1  0  -0.490545  0  1.829328  0  0  -0.465511  0  2.071291  0  0  -0.485076  0  2.06195  0  0  -0.203511  -0.45159  0  2.077288  0
O  O67  1  0.21900287  0.13748661  0.24800486  1  0  -0.490585  0  1.829257  0  0  -0.465552  0  2.071223  0  0  -0.485108  0  2.061878  0  0  -0.203505  -0.451632  0  2.077223  0
O  O68  1  0.49201081  0.19703225  0.78144263  1  0  -0.490154  0  1.821983  0  0  -0.462754  0  2.061332  0  0  -0.482051  0  2.051431  0  0  -0.199952  -0.449132  0  2.067832  0
O  O69  1  0.50797080  0.69703941  0.71855715  1  0  -0.490143  0  1.822064  0  0  -0.462862  0  2.061487  0  0  -0.48217  0  2.051591  0  0  -0.199985  -0.449234  0  2.067984  0
O  O70  1  0.50801051  0.80297309  0.21855602  1  0  -0.490212  0  1.822226  0  0  -0.462795  0  2.061561  0  0  -0.482092  0  2.051658  0  0  -0.19994  -0.449173  0  2.06806  0
O  O71  1  0.49203684  0.30295289  0.28144187  1  0  -0.490242  0  1.821918  0  0  -0.462918  0  2.061327  0  0  -0.482223  0  2.051433  0  0  -0.200032  -0.44929  0  2.067822  0
O  O72  1  0.14305903  0.16295534  0.82254498  1  0  -0.451254  0  1.740547  0  0  -0.44475  0  1.95299  0  0  -0.459788  0  1.947342  0  0  -0.185503  -0.433991  0  1.956537  0
O  O73  1  0.85691417  0.66295304  0.67745455  1  0  -0.45141  0  1.740582  0  0  -0.44494  0  1.952975  0  0  -0.459991  0  1.947354  0  0  -0.185624  -0.434181  0  1.956519  0
O  O74  1  0.85695752  0.83702986  0.17744969  1  0  -0.45131  0  1.740616  0  0  -0.444798  0  1.953024  0  0  -0.459836  0  1.947382  0  0  -0.185508  -0.434039  0  1.95657  0
O  O75  1  0.14308806  0.33704282  0.32254775  1  0  -0.451428  0  1.740414  0  0  -0.444928  0  1.9528  0  0  -0.459978  0  1.947184  0  0  -0.185643  -0.434168  0  1.956345  0
