# generated using pymatgen
data_NiH8C12(N2O)2
_symmetry_space_group_name_H-M   'P 1'
_cell_length_a   4.84751702
_cell_length_b   10.78349878
_cell_length_c   10.83987251
_cell_angle_alpha   89.99986080
_cell_angle_beta   93.98428475
_cell_angle_gamma   89.99991159
_symmetry_Int_Tables_number   1
_chemical_formula_structural   NiH8C12(N2O)2
_chemical_formula_sum   'Ni2 H16 C24 N8 O4'
_cell_volume   565.26528413
_cell_formula_units_Z   2
loop_
 _symmetry_equiv_pos_site_id
 _symmetry_equiv_pos_as_xyz
  1  'x, y, z'
loop_
 _atom_site_type_symbol
 _atom_site_label
 _atom_site_symmetry_multiplicity
 _atom_site_fract_x
 _atom_site_fract_y
 _atom_site_fract_z
 _atom_site_occupancy
 _atom_site_pbe_cm5_charge
 _atom_site_pbe_ddec_charge
 _atom_site_pbe_ddec_spin_density
 _atom_site_pbe_ddec_sum_bond_order
 _atom_site_pbe_magmom
Ni  Ni0  1  0.99999922  0.50000035  0.99999953  1  0.642969  0.616806  -1.739022  2.646724  -1.508
Ni  Ni1  1  0.00000060  0.00000032  0.50000045  1  0.642989  0.616897  -1.739023  2.64661  -1.508
H  H2  1  0.49500282  0.88051080  0.07377066  1  0.105752  0.111783  -0.000626  0.997726  -0.001
H  H3  1  0.50499020  0.38051031  0.42623009  1  0.105734  0.111761  -0.000626  0.997696  -0.001
H  H4  1  0.50499543  0.11948867  0.92623008  1  0.105757  0.111802  -0.000626  0.997755  -0.001
H  H5  1  0.49501012  0.61949102  0.57377072  1  0.105747  0.111826  -0.000626  0.997696  -0.001
H  H6  1  0.74596020  0.02209155  0.22625211  1  0.11264  0.077551  -0.000549  1.040236  -0.001
H  H7  1  0.25403626  0.52209172  0.27374685  1  0.112608  0.077476  -0.000549  1.040273  -0.001
H  H8  1  0.25403806  0.97790699  0.77374679  1  0.112632  0.077531  -0.000549  1.040247  -0.001
H  H9  1  0.74596406  0.47790961  0.72625396  1  0.112607  0.0775  -0.000549  1.040285  -0.001
H  H10  1  0.03302695  0.72908285  0.44383318  1  0.11286  0.087707  -0.000592  1.031557  -0.001
H  H11  1  0.96696871  0.22908202  0.05616710  1  0.112855  0.087699  -0.000592  1.031547  -0.001
H  H12  1  0.96697336  0.27091848  0.55616763  1  0.112864  0.087724  -0.000592  1.031536  -0.001
H  H13  1  0.03302954  0.77091931  0.94383364  1  0.112863  0.087714  -0.000592  1.031536  -0.001
H  H14  1  0.80724349  0.57335594  0.29574471  1  0.106676  0.106416  -0.000377  1.028314  0.0
H  H15  1  0.19275691  0.07335621  0.20425517  1  0.10668  0.106428  -0.000377  1.028313  0.0
H  H16  1  0.19275683  0.42664353  0.70425517  1  0.106681  0.10643  -0.000377  1.028312  0.0
H  H17  1  0.80724341  0.92664512  0.79574471  1  0.10667  0.106404  -0.000377  1.028326  0.0
C  C18  1  0.46741392  0.62786274  0.09112449  1  0.208082  0.382766  0.004207  4.160234  0.002
C  C19  1  0.53258421  0.12786320  0.40887427  1  0.208067  0.382757  0.004207  4.160319  0.002
C  C20  1  0.53258641  0.37213674  0.90887540  1  0.208041  0.382759  0.004207  4.160238  0.002
C  C21  1  0.46741404  0.87213720  0.59112463  1  0.208018  0.382747  0.004207  4.160233  0.002
C  C22  1  0.61645225  0.84288558  0.15360725  1  -0.082992  -0.154911  -0.002821  3.94516  -0.003
C  C23  1  0.38354297  0.34288445  0.34639366  1  -0.082997  -0.154973  -0.002821  3.945177  -0.003
C  C24  1  0.38354806  0.15711574  0.84639448  1  -0.083048  -0.155011  -0.002821  3.945251  -0.003
C  C25  1  0.61646148  0.65711410  0.65360635  1  -0.08298  -0.155066  -0.002821  3.945088  -0.003
C  C26  1  0.63294736  0.71479355  0.17268756  1  0.017162  0.07095  -2.6e-05  3.959493  -0.002
C  C27  1  0.36705043  0.21479154  0.32731282  1  0.01721  0.071077  -2.6e-05  3.959513  -0.002
C  C28  1  0.36705296  0.28520593  0.82731232  1  0.017238  0.071081  -2.7e-05  3.959559  -0.002
C  C29  1  0.63295195  0.78520793  0.67268806  1  0.017148  0.071019  -2.7e-05  3.959471  -0.002
C  C30  1  0.75459043  0.92184682  0.23835457  1  0.038244  0.078881  0.0003  3.962854  0.0
C  C31  1  0.24540450  0.42184506  0.26164614  1  0.038284  0.078989  0.0003  3.962768  0.0
C  C32  1  0.24540783  0.07815266  0.76164525  1  0.038264  0.07893  0.0003  3.962779  0.0
C  C33  1  0.75459789  0.57815349  0.73835566  1  0.038276  0.079032  0.0003  3.962713  0.0
C  C34  1  0.91668298  0.75773569  0.35892842  1  0.042618  0.091095  0.002812  3.929531  0.001
C  C35  1  0.08331464  0.25773618  0.14107278  1  0.042624  0.091086  0.002811  3.929535  0.001
C  C36  1  0.08331734  0.24226472  0.64107239  1  0.042628  0.091104  0.002811  3.929508  0.001
C  C37  1  0.91668568  0.74226422  0.85892711  1  0.042635  0.091076  0.002811  3.92966  0.001
C  C38  1  0.78910462  0.67244904  0.27749474  1  -0.082163  -0.156108  -0.003564  3.958096  -0.005
C  C39  1  0.21089334  0.17245018  0.22250483  1  -0.082179  -0.156171  -0.003564  3.9581  -0.005
C  C40  1  0.21089984  0.32755044  0.72250528  1  -0.0822  -0.1562  -0.003563  3.958168  -0.005
C  C41  1  0.78910492  0.82755115  0.77749499  1  -0.082141  -0.15609  -0.003564  3.958098  -0.005
N  N42  1  0.59353884  0.53712598  0.03566224  1  -0.277658  -0.295346  -0.042231  3.536176  -0.063
N  N43  1  0.40645964  0.03712639  0.46433767  1  -0.277638  -0.295369  -0.042231  3.536242  -0.063
N  N44  1  0.40645942  0.46287350  0.96433758  1  -0.277649  -0.295393  -0.042231  3.536223  -0.063
N  N45  1  0.59354068  0.96287401  0.53566314  1  -0.277639  -0.295387  -0.04223  3.536226  -0.063
N  N46  1  0.90028480  0.88115206  0.34083092  1  -0.31381  -0.209561  -0.043146  3.510334  -0.066
N  N47  1  0.09970822  0.38115250  0.15916890  1  -0.31383  -0.209541  -0.043146  3.510301  -0.066
N  N48  1  0.09971345  0.11884742  0.65916890  1  -0.313824  -0.209587  -0.043146  3.510344  -0.066
N  N49  1  0.90029210  0.61884883  0.84083191  1  -0.313811  -0.209557  -0.043146  3.51046  -0.066
O  O50  1  0.20328908  0.64567709  0.08532662  1  -0.3089  -0.499633  -0.043877  2.382693  -0.072
O  O51  1  0.79670897  0.14567735  0.41467302  1  -0.308911  -0.499651  -0.043876  2.382623  -0.072
O  O52  1  0.79671124  0.35432331  0.91467327  1  -0.308887  -0.499628  -0.043876  2.382687  -0.072
O  O53  1  0.20328928  0.85432305  0.58532680  1  -0.308866  -0.499626  -0.043876  2.382623  -0.072
