# generated using pymatgen
data_Zn3H54C64(N5O2)4
_symmetry_space_group_name_H-M   'P 1'
_cell_length_a   9.80652740
_cell_length_b   18.57056924
_cell_length_c   20.22869478
_cell_angle_alpha   91.89128816
_cell_angle_beta   104.02761918
_cell_angle_gamma   105.31125535
_symmetry_Int_Tables_number   1
_chemical_formula_structural   Zn3H54C64(N5O2)4
_chemical_formula_sum   'Zn6 H108 C128 N40 O16'
_cell_volume   3428.61308895
_cell_formula_units_Z   2
loop_
 _symmetry_equiv_pos_site_id
 _symmetry_equiv_pos_as_xyz
  1  'x, y, z'
loop_
 _atom_site_type_symbol
 _atom_site_label
 _atom_site_symmetry_multiplicity
 _atom_site_fract_x
 _atom_site_fract_y
 _atom_site_fract_z
 _atom_site_occupancy
 _atom_site_pbe_bader_charge
 _atom_site_pbe_bader_spin_density
 _atom_site_pbe_cm5_charge
 _atom_site_pbe_ddec_charge
 _atom_site_pbe_ddec_spin_density
 _atom_site_pbe_ddec_sum_bond_order
 _atom_site_pbe_magmom
Zn  Zn0  1  0.26242525  0.60027718  0.17958394  1  1.214609  0  0.712053  0.681096  0  2.451045  0
Zn  Zn1  1  0.98257165  0.89971647  0.32040332  1  1.215117  0  0.711813  0.681245  0  2.452655  0
Zn  Zn2  1  0.73757536  0.39972297  0.82041646  1  1.214614  0  0.712059  0.681118  0  2.451055  0
Zn  Zn3  1  0.01742791  0.10028369  0.67959696  1  1.215101  0  0.711821  0.68128  0  2.452622  0
Zn  Zn4  1  0.76010663  0.74999809  0.74999212  1  1.242758  0  0.697512  0.745347  0  2.41146  0
Zn  Zn5  1  0.23989398  0.25000206  0.25000778  1  1.242765  0  0.697522  0.745389  0  2.411411  0
H  H6  1  0.39683681  0.22835970  0.11639856  1  0.572328  0  0.316484  0.281689  0  1.01791  0
H  H7  1  0.55203765  0.27163877  0.38360076  1  0.57566  0  0.316443  0.281098  0  1.018189  0
H  H8  1  0.60316350  0.77163989  0.88360179  1  0.57233  0  0.316473  0.281611  0  1.018008  0
H  H9  1  0.44796296  0.72836138  0.61639964  1  0.575661  0  0.316429  0.2811  0  1.01819  0
H  H10  1  0.45430395  0.55294927  0.80526209  1  0.064173  0  0.100481  0.093256  0  0.979921  0
H  H11  1  0.59606033  0.94705368  0.69472297  1  0.066191  0  0.100437  0.092983  0  0.980031  0
H  H12  1  0.54569561  0.44705089  0.19473770  1  0.064172  0  0.100462  0.093231  0  0.979923  0
H  H13  1  0.40393953  0.05294704  0.30527687  1  0.066186  0  0.100428  0.092953  0  0.980045  0
H  H14  1  0.31727028  0.41797940  0.79832439  1  0.027252  0  0.085095  0.085767  0  1.01246  0
H  H15  1  0.60095769  0.08202917  0.70167185  1  0.029466  0  0.085232  0.085659  0  1.013192  0
H  H16  1  0.68273033  0.58202075  0.20167552  1  0.027251  0  0.085085  0.085762  0  1.012465  0
H  H17  1  0.39904292  0.91797099  0.29832806  1  0.029468  0  0.085229  0.085657  0  1.013182  0
H  H18  1  0.20222038  0.47456280  0.76434184  1  0.010662  0  0.076306  0.065975  0  1.027504  0
H  H19  1  0.46330324  0.02544312  0.73565742  1  -0.014075  0  0.077191  0.067265  0  1.028273  0
H  H20  1  0.79778023  0.52543736  0.23565856  1  0.010557  0  0.076304  0.065997  0  1.027494  0
H  H21  1  0.53669811  0.97455648  0.26434255  1  -0.014084  0  0.077184  0.067245  0  1.028272  0
H  H22  1  0.13828796  0.35626434  0.68737890  1  0.00523  0  0.077214  0.066928  0  1.04028  0
H  H23  1  0.59463306  0.14372137  0.81263178  1  0.002785  0  0.076795  0.066149  0  1.039372  0
H  H24  1  0.86171160  0.64373581  0.31262137  1  0.005234  0  0.077214  0.066928  0  1.04028  0
H  H25  1  0.40536619  0.85627823  0.18736795  1  0.002781  0  0.076795  0.066156  0  1.039369  0
H  H26  1  0.31904267  0.37651339  0.67902145  1  0.027889  0  0.085272  0.081773  0  1.009713  0
H  H27  1  0.76350781  0.12348644  0.82097508  1  0.04526  0  0.085924  0.082467  0  1.00896  0
H  H28  1  0.68095658  0.62348620  0.32097877  1  0.02788  0  0.085277  0.081768  0  1.009718  0
H  H29  1  0.23649144  0.87651315  0.17902465  1  0.045261  0  0.085907  0.08245  0  1.008997  0
H  H30  1  0.15750651  0.41406138  0.57868478  1  0.025249  0  0.082545  0.077578  0  1.001733  0
H  H31  1  0.66477769  0.08591777  0.92131231  1  0.015381  0  0.083184  0.077864  0  1.001827  0
H  H32  1  0.84249305  0.58593878  0.42131550  1  0.025236  0  0.082545  0.077575  0  1.001744  0
H  H33  1  0.33522292  0.91408238  0.07868760  1  0.015389  0  0.083178  0.07788  0  1.001845  0
H  H34  1  0.10581172  0.47131291  0.63403021  1  -0.006788  0  0.078038  0.064333  0  0.993666  0
H  H35  1  0.50048952  0.02866837  0.86596652  1  -0.031529  0  0.078073  0.064918  0  0.993296  0
H  H36  1  0.89418753  0.52868668  0.36596952  1  -0.006824  0  0.078034  0.064323  0  0.993662  0
H  H37  1  0.49950973  0.97133122  0.13403371  1  -0.031558  0  0.078107  0.064965  0  0.993346  0
H  H38  1  0.41656593  0.49473227  0.61569490  1  0.037928  0  0.087651  0.088215  0  1.001418  0
H  H39  1  0.80615519  0.00524740  0.88429599  1  0.055342  0  0.085739  0.086176  0  1.004276  0
H  H40  1  0.58343394  0.50526845  0.38430494  1  0.037925  0  0.087651  0.088212  0  1.00142  0
H  H41  1  0.19384437  0.99475275  0.11570379  1  0.055346  0  0.085732  0.086156  0  1.004181  0
H  H42  1  0.29908656  0.55134892  0.58732290  1  0.038846  0  0.083842  0.081405  0  0.995291  0
H  H43  1  0.66040576  0.94863475  0.91266227  1  0.019736  0  0.084978  0.082153  0  0.994745  0
H  H44  1  0.70091269  0.44865067  0.41267683  1  0.038841  0  0.083837  0.081391  0  0.995308  0
H  H45  1  0.33959455  0.05136485  0.08733808  1  0.019751  0  0.08498  0.082152  0  0.994743  0
H  H46  1  0.30394423  0.58738816  0.70632662  1  0.040886  0  0.103489  0.088772  0  0.952027  0
H  H47  1  0.51020623  0.91260440  0.79366656  1  0.039868  0  0.103111  0.088172  0  0.952572  0
H  H48  1  0.69605638  0.41261199  0.29367378  1  0.040894  0  0.103464  0.088723  0  0.951992  0
H  H49  1  0.48979438  0.08739576  0.20633285  1  0.039863  0  0.103109  0.088144  0  0.95262  0
H  H50  1  0.99872646  0.56814112  0.06016705  1  0.138232  0  0.109407  0.067156  0  1.095406  0
H  H51  1  0.87039966  0.93185211  0.43984110  1  0.133992  0  0.10871  0.066355  0  1.096514  0
H  H52  1  0.00127279  0.43185847  0.93983268  1  0.138235  0  0.109394  0.067126  0  1.095336  0
H  H53  1  0.12960064  0.06814748  0.56015826  1  0.133988  0  0.108699  0.066346  0  1.096541  0
H  H54  1  0.74519202  0.47616555  0.02487328  1  0.126607  0  0.117794  0.134654  0  0.980224  0
H  H55  1  0.74413562  0.02382508  0.47512509  1  0.111804  0  0.116248  0.133025  0  0.980521  0
H  H56  1  0.25480648  0.52383461  0.97512638  1  0.126597  0  0.117784  0.134648  0  0.980282  0
H  H57  1  0.25586363  0.97617452  0.52487464  1  0.11178  0  0.116245  0.133002  0  0.980551  0
H  H58  1  0.86342802  0.37339261  0.21023533  1  0.09059  0  0.111829  0.117701  0  1.003118  0
H  H59  1  0.77981929  0.12658695  0.28976408  1  0.090719  0  0.11134  0.116881  0  1.004818  0
H  H60  1  0.13657123  0.62660699  0.78976440  1  0.090597  0  0.111825  0.117727  0  1.003105  0
H  H61  1  0.22018132  0.87341321  0.71023583  1  0.090715  0  0.111336  0.11687  0  1.004818  0
H  H62  1  0.11337566  0.46733206  0.23636617  1  0.133701  0  0.116907  0.093181  0  1.022458  0
H  H63  1  0.90968062  0.03265132  0.26364624  1  0.139154  0  0.116296  0.092996  0  1.02256  0
H  H64  1  0.88662464  0.53266753  0.76363418  1  0.133697  0  0.116906  0.093172  0  1.022504  0
H  H65  1  0.09031894  0.96734883  0.73635404  1  0.139148  0  0.11628  0.092961  0  1.022543  0
H  H66  1  0.19947452  0.17691024  0.02931202  1  0.121721  0  0.11175  0.132411  0  1.019756  0
H  H67  1  0.49320671  0.32308498  0.47068759  1  0.15553  0  0.111706  0.132812  0  1.019629  0
H  H68  1  0.80052609  0.82308991  0.97068788  1  0.121715  0  0.111762  0.132434  0  1.019741  0
H  H69  1  0.50679285  0.67691517  0.52931220  1  0.155548  0  0.111703  0.132807  0  1.019652  0
H  H70  1  0.97207920  0.13769229  0.93416853  1  0.085204  0  0.114704  0.083644  0  0.983673  0
H  H71  1  0.40014209  0.36228077  0.56582167  1  0.077257  0  0.113355  0.082591  0  0.983509  0
H  H72  1  0.02792110  0.86230731  0.06583083  1  0.085202  0  0.11471  0.083663  0  0.983692  0
H  H73  1  0.59985747  0.63771938  0.43417861  1  0.077262  0  0.113345  0.082564  0  0.983514  0
H  H74  1  0.09926889  0.32765817  0.83767152  1  0.059613  0  0.105834  0.07161  0  1.004719  0
H  H75  1  0.43398235  0.17234553  0.66234353  1  0.059763  0  0.105405  0.070861  0  1.005324  0
H  H76  1  0.90073142  0.67234142  0.16232735  1  0.059628  0  0.105843  0.071609  0  1.004744  0
H  H77  1  0.56601826  0.82765463  0.33765637  1  0.059757  0  0.105449  0.070955  0  1.005205  0
H  H78  1  0.33585198  0.37511590  0.92804380  1  0.119829  0  0.111545  0.125384  0  0.996478  0
H  H79  1  0.53268388  0.12488160  0.57195668  1  0.114874  0  0.11171  0.125933  0  0.99614  0
H  H80  1  0.66414757  0.62488426  0.07195598  1  0.11982  0  0.111537  0.125359  0  0.996497  0
H  H81  1  0.46731463  0.87511856  0.42804298  1  0.114871  0  0.111734  0.125964  0  0.996083  0
H  H82  1  0.76775039  0.64774191  0.85397724  1  0.155193  0  0.122561  0.106843  0  0.996335  0
H  H83  1  0.76602483  0.85226729  0.64599132  1  0.14062  0  0.124347  0.107886  0  0.995924  0
H  H84  1  0.23224917  0.35225824  0.14602254  1  0.15521  0  0.122557  0.10685  0  0.996351  0
H  H85  1  0.23397442  0.14773230  0.35400841  1  0.140675  0  0.124336  0.10788  0  0.995888  0
H  H86  1  0.93726193  0.63297281  0.96402429  1  0.09677  0  0.11257  0.122544  0  0.99776  0
H  H87  1  0.84029669  0.86703843  0.53595900  1  0.095485  0  0.112931  0.123611  0  0.997582  0
H  H88  1  0.06273627  0.36702678  0.03597581  1  0.096774  0  0.112552  0.122537  0  0.997765  0
H  H89  1  0.15970392  0.13296173  0.46404091  1  0.095483  0  0.11292  0.123598  0  0.997619  0
H  H90  1  0.26658869  0.81939300  0.92405614  1  0.102063  0  0.115344  0.128887  0  0.985766  0
H  H91  1  0.02311613  0.68060643  0.57594732  1  0.114944  0  0.116002  0.128634  0  0.984963  0
H  H92  1  0.73341087  0.18060716  0.07594364  1  0.10206  0  0.115338  0.128886  0  0.985774  0
H  H93  1  0.97688343  0.31939372  0.42405246  1  0.114942  0  0.116044  0.128695  0  0.984932  0
H  H94  1  0.08179057  0.82829544  0.81648436  1  0.086022  0  0.121285  0.090779  0  0.977444  0
H  H95  1  0.93695826  0.67171566  0.68350150  1  0.075702  0  0.120918  0.08969  0  0.979127  0
H  H96  1  0.91820899  0.17170472  0.18351542  1  0.086015  0  0.121276  0.090756  0  0.977453  0
H  H97  1  0.06304235  0.32828449  0.31649890  1  0.075622  0  0.120923  0.089676  0  0.979187  0
H  H98  1  0.60705324  0.85669731  0.08614458  1  0.111886  0  0.115362  0.125478  0  0.993202  0
H  H99  1  0.16422662  0.64329913  0.41384008  1  0.114187  0  0.115844  0.125529  0  0.993003  0
H  H100  1  0.39294632  0.14330284  0.91385520  1  0.11189  0  0.115364  0.125498  0  0.9932  0
H  H101  1  0.83577399  0.35670103  0.58615983  1  0.114192  0  0.115824  0.125474  0  0.993007  0
H  H102  1  0.84911133  0.91727865  0.17197028  1  0.147722  0  0.119549  0.099065  0  1.014224  0
H  H103  1  0.25987604  0.58273295  0.32802075  1  0.14409  0  0.119133  0.098601  0  1.014607  0
H  H104  1  0.15088897  0.08272094  0.82802957  1  0.147739  0  0.119541  0.099045  0  1.014233  0
H  H105  1  0.74012352  0.41726720  0.67197904  1  0.144089  0  0.119133  0.098597  0  1.014599  0
H  H106  1  0.75905235  0.75592428  0.30465852  1  0.139036  0  0.116026  0.076159  0  1.060508  0
H  H107  1  0.19846693  0.74408382  0.19533591  1  0.133219  0  0.115896  0.076617  0  1.060432  0
H  H108  1  0.24094690  0.24407531  0.69534121  1  0.139018  0  0.116045  0.076213  0  1.060434  0
H  H109  1  0.80153263  0.25591633  0.80466486  1  0.133213  0  0.115891  0.076613  0  1.060431  0
H  H110  1  0.52602200  0.68767257  0.22509300  1  0.113404  0  0.107848  0.113848  0  1.047283  0
H  H111  1  0.11329165  0.81232223  0.27491378  1  0.109622  0  0.10807  0.114626  0  1.048036  0
H  H112  1  0.47397861  0.31232759  0.77490690  1  0.113402  0  0.107869  0.113912  0  1.047194  0
H  H113  1  0.88670822  0.18767849  0.72508655  1  0.10963  0  0.108093  0.114673  0  1.048023  0
C  C114  1  0.55717601  0.48645660  0.75956708  1  1.553887  0  0.203395  0.597155  0  4.133469  0
C  C115  1  0.81112166  0.01355122  0.74041582  1  1.549824  0  0.205169  0.600187  0  4.132995  0
C  C116  1  0.44282354  0.51354355  0.24043369  1  1.553912  0  0.203376  0.597202  0  4.133581  0
C  C117  1  0.18887864  0.98644837  0.25958404  1  1.549826  0  0.205127  0.600127  0  4.133023  0
C  C118  1  0.42500646  0.51661987  0.75693253  1  0.008945  0  -0.091814  -0.126855  0  3.850225  0
C  C119  1  0.65143314  0.98337711  0.74305366  1  -0.010739  0  -0.09027  -0.124985  0  3.851109  0
C  C120  1  0.57499384  0.48337972  0.24306782  1  0.008956  0  -0.091812  -0.126905  0  3.850308  0
C  C121  1  0.34856673  0.01662360  0.25694618  1  -0.010738  0  -0.090189  -0.124781  0  3.850984  0
C  C122  1  0.28944903  0.45115135  0.75572555  1  -0.020601  0  -0.169768  -0.158844  0  3.92066  0
C  C123  1  0.58255803  0.04884898  0.74426775  1  0.007941  0  -0.171773  -0.16142  0  3.923783  0
C  C124  1  0.71055053  0.54884881  0.24427473  1  -0.02048  0  -0.169798  -0.158888  0  3.920673  0
C  C125  1  0.41744227  0.95115061  0.25573210  1  0.007957  0  -0.17176  -0.16141  0  3.923731  0
C  C126  1  0.23452874  0.40256729  0.68698073  1  -0.013638  0  -0.175145  -0.144431  0  3.927402  0
C  C127  1  0.64498483  0.09742469  0.81302010  1  -0.040072  0  -0.17521  -0.14398  0  3.926511  0
C  C128  1  0.76547081  0.59743287  0.31301955  1  -0.013636  0  -0.175152  -0.144436  0  3.92736  0
C  C129  1  0.35501578  0.90257546  0.18697981  1  -0.040129  0  -0.175203  -0.144  0  3.926512  0
C  C130  1  0.19708606  0.44945996  0.62796552  1  -0.015539  0  -0.171158  -0.139086  0  3.954096  0
C  C131  1  0.61966794  0.05052419  0.87202437  1  0.014713  0  -0.17125  -0.138985  0  3.953602  0
C  C132  1  0.80291350  0.55054019  0.37203525  1  -0.015488  0  -0.171101  -0.139009  0  3.954001  0
C  C133  1  0.38033402  0.94947653  0.12797571  1  0.014777  0  -0.171246  -0.139041  0  3.953723  0
C  C134  1  0.32873891  0.51544705  0.62730740  1  -0.047904  0  -0.170874  -0.165678  0  3.934909  0
C  C135  1  0.68598796  0.98453820  0.87268301  1  -0.020596  0  -0.170509  -0.166057  0  3.934958  0
C  C136  1  0.67126139  0.48455254  0.37269295  1  -0.047907  0  -0.170872  -0.165681  0  3.934919  0
C  C137  1  0.31401265  0.01546196  0.12731690  1  -0.020581  0  -0.170513  -0.166016  0  3.934856  0
C  C138  1  0.39033216  0.56306828  0.69700486  1  0.006531  0  -0.085532  -0.119362  0  3.865662  0
C  C139  1  0.63025164  0.93692319  0.80298352  1  0.00537  0  -0.086092  -0.118313  0  3.867294  0
C  C140  1  0.60966740  0.43693188  0.30299542  1  0.006518  0  -0.085461  -0.119212  0  3.865686  0
C  C141  1  0.36974866  0.06307640  0.19701682  1  0.005374  0  -0.086098  -0.118344  0  3.867342  0
C  C142  1  0.51544855  0.63183735  0.69691517  1  1.553527  0  0.215992  0.613181  0  4.119338  0
C  C143  1  0.68664893  0.86815227  0.80307290  1  1.556406  0  0.218559  0.614919  0  4.120752  0
C  C144  1  0.48455206  0.36816281  0.30308473  1  1.553523  0  0.21595  0.613138  0  4.119457  0
C  C145  1  0.31335168  0.13184789  0.19692750  1  1.556395  0  0.218519  0.614836  0  4.12078  0
C  C146  1  0.96213919  0.52363763  0.09115318  1  0.426437  0  0.039077  0.086471  0  3.948782  0
C  C147  1  0.84732950  0.97635230  0.40885235  1  0.454662  0  0.042436  0.088998  0  3.945825  0
C  C148  1  0.03786142  0.47636252  0.90884673  1  0.426457  0  0.039096  0.086532  0  3.948696  0
C  C149  1  0.15267111  0.02364786  0.59114755  1  0.454514  0  0.042432  0.08896  0  3.945803  0
C  C150  1  0.82348389  0.47348480  0.07253516  1  -0.018404  0  -0.072844  -0.149493  0  3.909108  0
C  C151  1  0.77744687  0.02651068  0.42746416  1  0.021395  0  -0.070862  -0.147223  0  3.908515  0
C  C152  1  0.17651703  0.52651591  0.92746480  1  -0.018388  0  -0.072926  -0.149587  0  3.909138  0
C  C153  1  0.22255269  0.97348948  0.57253513  1  0.021451  0  -0.070859  -0.147157  0  3.908535  0
C  C154  1  0.78437871  0.41837261  0.11555715  1  -0.016776  0  0.025522  0.08956  0  3.976529  0
C  C155  1  0.75043828  0.08162625  0.38444122  1  -0.009731  0  0.024365  0.088517  0  3.978266  0
C  C156  1  0.21562085  0.58162755  0.88444263  1  -0.016806  0  0.025572  0.089637  0  3.976467  0
C  C157  1  0.24956128  0.91837391  0.61555857  1  -0.009711  0  0.024326  0.088419  0  3.978279  0
C  C158  1  0.88939760  0.41604824  0.17600000  1  0.022157  0  -0.080066  -0.168342  0  3.955842  0
C  C159  1  0.79735510  0.08393280  0.32399786  1  -0.023136  0  -0.078439  -0.166356  0  3.955362  0
C  C160  1  0.11060270  0.58395136  0.82400034  1  0.022163  0  -0.080066  -0.168417  0  3.955817  0
C  C161  1  0.20264520  0.91606679  0.67600199  1  -0.023037  0  -0.078429  -0.166325  0  3.95536  0
C  C162  1  0.02650421  0.46769189  0.19091707  1  0.429096  0  0.042518  0.077697  0  3.956195  0
C  C163  1  0.86789080  0.03229042  0.30908525  1  0.418057  0  0.042599  0.077071  0  3.954916  0
C  C164  1  0.97349504  0.53230770  0.80908217  1  0.429082  0  0.042538  0.077777  0  3.956136  0
C  C165  1  0.13210981  0.96770974  0.69091417  1  0.417987  0  0.042656  0.077162  0  3.954896  0
C  C166  1  0.63975807  0.36490159  0.09618236  1  0.976036  0  0.205167  0.235001  0  4.08577  0
C  C167  1  0.67866280  0.13510501  0.40380927  1  0.969458  0  0.204281  0.234091  0  4.087791  0
C  C168  1  0.36024149  0.63509856  0.90381792  1  0.976031  0  0.205221  0.235084  0  4.085775  0
C  C169  1  0.32133750  0.86489459  0.59619058  1  0.96946  0  0.204311  0.234148  0  4.087757  0
C  C170  1  0.42499347  0.30650895  0.03913222  1  0.967138  0  0.224833  0.264093  0  4.019463  0
C  C171  1  0.57932282  0.19348381  0.46085249  1  0.970749  0  0.223533  0.264511  0  4.021788  0
C  C172  1  0.57500548  0.69349008  0.96086745  1  0.966696  0  0.224813  0.264114  0  4.019395  0
C  C173  1  0.42067748  0.80651579  0.53914786  1  0.97073  0  0.223555  0.264525  0  4.021841  0
C  C174  1  0.28704682  0.28009182  0.98636855  1  -0.012791  0  0.008981  0.053912  0  4.026821  0
C  C175  1  0.52053972  0.21989450  0.51362306  1  -0.024363  0  0.008451  0.053464  0  4.027221  0
C  C176  1  0.71295274  0.71990833  0.01363123  1  -0.012766  0  0.00898  0.053901  0  4.026765  0
C  C177  1  0.47945879  0.78010566  0.48637660  1  -0.024657  0  0.008442  0.053499  0  4.027232  0
C  C178  1  0.18254027  0.21226635  0.98775911  1  -0.041307  0  -0.085278  -0.176912  0  3.934527  0
C  C179  1  0.48244555  0.28770755  0.51222740  1  -0.05587  0  -0.086867  -0.177861  0  3.936044  0
C  C180  1  0.81745928  0.78773380  0.01224067  1  -0.041301  0  -0.085269  -0.176941  0  3.934581  0
C  C181  1  0.51755265  0.71229204  0.48777270  1  -0.055762  0  -0.086875  -0.177901  0  3.936037  0
C  C182  1  0.05475830  0.19049261  0.93454962  1  0.491479  0  0.041068  0.09034  0  4.005105  0
C  C183  1  0.42965111  0.30948260  0.56544402  1  0.493485  0  0.045175  0.093426  0  4.004075  0
C  C184  1  0.94524231  0.80950754  0.06545028  1  0.491485  0  0.04103  0.090297  0  4.005126  0
C  C185  1  0.57034709  0.69051699  0.43455559  1  0.493369  0  0.045223  0.093525  0  4.003961  0
C  C186  1  0.12519293  0.29555632  0.88106028  1  0.521538  0  0.035526  0.081629  0  4.016138  0
C  C187  1  0.44859737  0.20443704  0.61894533  1  0.514473  0  0.036304  0.082986  0  4.020419  0
C  C188  1  0.87480632  0.70444327  0.11893945  1  0.521595  0  0.035482  0.081564  0  4.016165  0
C  C189  1  0.55140188  0.79556255  0.38105440  1  0.51447  0  0.036334  0.08301  0  4.020313  0
C  C190  1  0.25673383  0.32254479  0.93130737  1  -0.04648  0  -0.082118  -0.164771  0  3.937793  0
C  C191  1  0.50287518  0.17745012  0.56869781  1  -0.044439  0  -0.081841  -0.165372  0  3.93872  0
C  C192  1  0.74326511  0.67745424  0.06869280  1  -0.046535  0  -0.082088  -0.164686  0  3.937712  0
C  C193  1  0.49712407  0.82254948  0.43130192  1  -0.044136  0  -0.08189  -0.16548  0  3.938705  0
C  C194  1  0.87913266  0.68440777  0.87195923  1  0.448349  0  0.048061  0.090619  0  3.938129  0
C  C195  1  0.82276383  0.81560060  0.62802281  1  0.412501  0  0.043764  0.088121  0  3.93702  0
C  C196  1  0.12086660  0.31559183  0.12804099  1  0.448362  0  0.04807  0.090635  0  3.938151  0
C  C197  1  0.17723678  0.18439956  0.37197709  1  0.412466  0  0.043792  0.088175  0  3.936959  0
C  C198  1  0.97359171  0.67655611  0.93241225  1  0.031738  0  -0.077773  -0.158313  0  3.950444  0
C  C199  1  0.86463694  0.82345338  0.56756843  1  0.003924  0  -0.075954  -0.157034  0  3.949233  0
C  C200  1  0.02640890  0.32344405  0.06758765  1  0.031244  0  -0.07774  -0.158267  0  3.950405  0
C  C201  1  0.13536367  0.17654677  0.43243197  1  0.003906  0  -0.075959  -0.157041  0  3.949283  0
C  C202  1  0.11615734  0.72537878  0.95273430  1  -0.033142  0  0.022211  0.080938  0  3.992685  0
C  C203  1  0.93799822  0.77461073  0.54724166  1  0.057382  0  0.023171  0.081112  0  3.989387  0
C  C204  1  0.88384191  0.27462082  0.04726543  1  -0.032647  0  0.022184  0.080851  0  3.992765  0
C  C205  1  0.06200239  0.22538943  0.45275776  1  0.057371  0  0.02316  0.081034  0  3.989429  0
C  C206  1  0.15672582  0.78084868  0.91014666  1  0.001179  0  -0.075246  -0.15598  0  3.932061  0
C  C207  1  0.96566208  0.71913859  0.58983261  1  -0.007891  0  -0.07608  -0.155997  0  3.932384  0
C  C208  1  0.84327374  0.21915148  0.08985312  1  0.00117  0  -0.075264  -0.156007  0  3.932099  0
C  C209  1  0.03433853  0.28086157  0.41016779  1  -0.007889  0  -0.076112  -0.156029  0  3.93241  0
C  C210  1  0.05520262  0.78541634  0.85053945  1  0.465017  0  0.048438  0.090259  0  3.968606  0
C  C211  1  0.91918844  0.71457418  0.64942975  1  0.47936  0  0.051266  0.094224  0  3.967562  0
C  C212  1  0.94479694  0.21458381  0.14946083  1  0.465025  0  0.04845  0.09032  0  3.968566  0
C  C213  1  0.08081217  0.28542598  0.35057015  1  0.479439  0  0.051252  0.09422  0  3.96765  0
C  C214  1  0.21729656  0.71808354  0.01598358  1  0.996337  0  0.200698  0.242579  0  4.096429  0
C  C215  1  0.98318895  0.78190075  0.48398957  1  0.952753  0  0.200915  0.242482  0  4.092631  0
C  C216  1  0.78270300  0.28191661  0.98401620  1  0.996348  0  0.20072  0.242637  0  4.096467  0
C  C217  1  0.01681166  0.21809940  0.51601034  1  0.952781  0  0.200934  0.242634  0  4.092452  0
C  C218  1  0.40136690  0.73487915  0.10049844  1  0.944995  0  0.207165  0.25303  0  4.037704  0
C  C219  1  0.06598329  0.76511757  0.39948870  1  0.94613  0  0.206837  0.251636  0  4.040297  0
C  C220  1  0.59863266  0.26512100  0.89950184  1  0.945004  0  0.207183  0.253047  0  4.037796  0
C  C221  1  0.93401732  0.23488258  0.60051170  1  0.946131  0  0.20685  0.251706  0  4.040309  0
C  C222  1  0.54398185  0.76759452  0.14838147  1  -0.029164  0  0.022197  0.075425  0  3.990059  0
C  C223  1  0.12804124  0.73241289  0.35161875  1  -0.043133  0  0.023905  0.078527  0  3.986924  0
C  C224  1  0.45601770  0.23240563  0.85161831  1  -0.029314  0  0.022183  0.075489  0  3.989978  0
C  C225  1  0.87195937  0.26758727  0.64838214  1  -0.043149  0  0.023928  0.078524  0  3.986956  0
C  C226  1  0.63921083  0.83286673  0.13396194  1  0.062493  0  -0.071959  -0.14882  0  3.927383  0
C  C227  1  0.17241532  0.66713399  0.36603357  1  0.037395  0  -0.073011  -0.149621  0  3.927142  0
C  C228  1  0.36078978  0.16713343  0.86603796  1  0.0625  0  -0.071999  -0.148953  0  3.927369  0
C  C229  1  0.82758393  0.33286561  0.63396666  1  0.037408  0  -0.072987  -0.149537  0  3.927101  0
C  C230  1  0.77163988  0.86678854  0.18099543  1  0.368448  0  0.043741  0.084773  0  3.942364  0
C  C231  1  0.22388473  0.63322156  0.31900209  1  0.415552  0  0.044986  0.086658  0  3.941715  0
C  C232  1  0.22835937  0.13321105  0.81900430  1  0.368435  0  0.043748  0.084826  0  3.942418  0
C  C233  1  0.77611452  0.36677803  0.68099814  1  0.415559  0  0.045006  0.086691  0  3.941695  0
C  C234  1  0.72432471  0.77617765  0.25517950  1  0.421978  0  0.044685  0.092044  0  3.947108  0
C  C235  1  0.19300407  0.72383236  0.24481517  1  0.432314  0  0.044154  0.09028  0  3.948193  0
C  C236  1  0.27567485  0.22382251  0.74482029  1  0.421975  0  0.04467  0.092014  0  3.947027  0
C  C237  1  0.80699549  0.27616779  0.75518461  1  0.432335  0  0.044174  0.090311  0  3.948211  0
C  C238  1  0.59102854  0.73865296  0.21036167  1  0.036767  0  -0.076983  -0.153075  0  3.914346  0
C  C239  1  0.14206102  0.76135496  0.28963911  1  0.03186  0  -0.077293  -0.15478  0  3.914735  0
C  C240  1  0.40897072  0.26134663  0.78963806  1  0.03692  0  -0.076963  -0.153106  0  3.914287  0
C  C241  1  0.85793959  0.23864519  0.71036080  1  0.031834  0  -0.077326  -0.15487  0  3.914835  0
N  N242  1  0.06270055  0.52115936  0.14939566  1  -1.264311  0  -0.335101  -0.228967  0  3.561103  0
N  N243  1  0.89212883  0.97882346  0.35060961  1  -1.255621  0  -0.338226  -0.231314  0  3.561832  0
N  N244  1  0.93729901  0.47884079  0.85060412  1  -1.264303  0  -0.335126  -0.229058  0  3.561166  0
N  N245  1  0.10787073  0.02117670  0.64939067  1  -1.255538  0  -0.338239  -0.231342  0  3.561819  0
N  N246  1  0.53668910  0.36548256  0.03743646  1  -1.157835  0  -0.330706  -0.408569  0  3.165758  0
N  N247  1  0.63374862  0.13451776  0.46254939  1  -1.168019  0  -0.328895  -0.407614  0  3.168981  0
N  N248  1  0.46331015  0.63451704  0.96256327  1  -1.157432  0  -0.330725  -0.408629  0  3.165812  0
N  N249  1  0.36625199  0.86548240  0.53745101  1  -1.168009  0  -0.328884  -0.407586  0  3.168997  0
N  N250  1  0.46171175  0.27320359  0.09737727  1  -0.794392  0  -0.247866  -0.125328  0  3.645127  0
N  N251  1  0.59109007  0.22679462  0.40261001  1  -0.813418  0  -0.245853  -0.125027  0  3.64474  0
N  N252  1  0.53828960  0.72679600  0.90262271  1  -0.794367  0  -0.24785  -0.125238  0  3.645037  0
N  N253  1  0.40891054  0.77320553  0.59738990  1  -0.813446  0  -0.245881  -0.125078  0  3.644847  0
N  N254  1  0.59734516  0.30928315  0.13433790  1  -0.630098  0  -0.216777  -0.238963  0  3.100552  0
N  N255  1  0.65370045  0.19072457  0.36565027  1  -0.614455  0  -0.21771  -0.23892  0  3.099424  0
N  N256  1  0.40265440  0.69071700  0.86566237  1  -0.630094  0  -0.216764  -0.238978  0  3.100467  0
N  N257  1  0.34630016  0.80927558  0.63434914  1  -0.614444  0  -0.217706  -0.238926  0  3.099507  0
N  N258  1  0.02459354  0.23064887  0.88167679  1  -1.20287  0  -0.321782  -0.272937  0  3.349547  0
N  N259  1  0.41225462  0.26933886  0.61832607  1  -1.194412  0  -0.323312  -0.274891  0  3.352965  0
N  N260  1  0.97540676  0.76935072  0.11832307  1  -1.202882  0  -0.321741  -0.272885  0  3.349489  0
N  N261  1  0.58774389  0.73066129  0.38167359  1  -1.194415  0  -0.323385  -0.274997  0  3.352978  0
N  N262  1  0.91876621  0.73816576  0.83136022  1  -1.27167  0  -0.339319  -0.24349  0  3.610972  0
N  N263  1  0.84918589  0.76183472  0.66861087  1  -1.265415  0  -0.341354  -0.246773  0  3.609766  0
N  N264  1  0.08123335  0.26183439  0.16863956  1  -1.271681  0  -0.339338  -0.243552  0  3.610979  0
N  N265  1  0.15081367  0.23816543  0.33138892  1  -1.265423  0  -0.341362  -0.246799  0  3.609773  0
N  N266  1  0.35460438  0.76376456  0.04184132  1  -1.183529  0  -0.330642  -0.409866  0  3.181526  0
N  N267  1  0.04892609  0.73621928  0.45813076  1  -1.169231  0  -0.332675  -0.411048  0  3.182998  0
N  N268  1  0.64539518  0.23623560  0.95815847  1  -1.183545  0  -0.330678  -0.409952  0  3.181711  0
N  N269  1  0.95107378  0.26378144  0.54186957  1  -1.169236  0  -0.332705  -0.411165  0  3.182968  0
N  N270  1  0.17862418  0.66325821  0.05569163  1  -0.664075  0  -0.220044  -0.245952  0  3.229324  0
N  N271  1  0.95966589  0.83674072  0.44428566  1  -0.663235  0  -0.220638  -0.24548  0  3.228136  0
N  N272  1  0.82137643  0.33674194  0.94430828  1  -0.664074  0  -0.22003  -0.245906  0  3.229248  0
N  N273  1  0.04033337  0.16325887  0.55571457  1  -0.663227  0  -0.220639  -0.245533  0  3.228105  0
N  N274  1  0.29581081  0.67389076  0.10978755  1  -0.742706  0  -0.244303  -0.217949  0  3.493535  0
N  N275  1  0.01216091  0.82611418  0.39019952  1  -0.734942  0  -0.242966  -0.217448  0  3.494766  0
N  N276  1  0.70418844  0.32610883  0.89021168  1  -0.742718  0  -0.24429  -0.21796  0  3.493475  0
N  N277  1  0.98783896  0.17388653  0.60980032  1  -0.734951  0  -0.243  -0.217492  0  3.49482  0
N  N278  1  0.81336233  0.83958989  0.24157415  1  -1.272899  0  -0.339813  -0.244679  0  3.599724  0
N  N279  1  0.23221336  0.66041501  0.25841090  1  -1.275854  0  -0.3407  -0.245564  0  3.601102  0
N  N280  1  0.18663828  0.16041026  0.75842576  1  -1.2729  0  -0.339795  -0.244672  0  3.599794  0
N  N281  1  0.76778589  0.33958459  0.74158883  1  -1.275874  0  -0.340717  -0.245589  0  3.601103  0
O  O282  1  0.58153293  0.44697513  0.81115962  1  -1.179383  0  -0.353433  -0.564885  0  2.339038  0
O  O283  1  0.82335148  0.05302963  0.68881420  1  -1.178981  0  -0.35289  -0.565076  0  2.339489  0
O  O284  1  0.41846662  0.55302503  0.18884066  1  -1.179369  0  -0.353446  -0.564923  0  2.339152  0
O  O285  1  0.17664777  0.94696996  0.31118602  1  -1.179007  0  -0.352883  -0.565062  0  2.33952  0
O  O286  1  0.63210133  0.49837946  0.71710085  1  -1.192512  0  -0.325184  -0.556967  0  2.118072  0
O  O287  1  0.91659853  0.00164671  0.78288123  1  -1.194014  0  -0.328008  -0.5605  0  2.11785  0
O  O288  1  0.36789928  0.50162070  0.28289955  1  -1.19255  0  -0.325156  -0.556951  0  2.118083  0
O  O289  1  0.08340178  0.99835289  0.21711863  1  -1.194004  0  -0.328005  -0.560506  0  2.117833  0
O  O290  1  0.60916918  0.65818422  0.75489184  1  -1.179258  0  -0.325785  -0.546025  0  2.363475  0
O  O291  1  0.69607164  0.84179951  0.74510557  1  -1.172606  0  -0.328175  -0.547378  0  2.365946  0
O  O292  1  0.39083038  0.34181593  0.24510794  1  -1.179271  0  -0.325771  -0.546033  0  2.363475  0
O  O293  1  0.30392866  0.15820008  0.25489428  1  -1.172609  0  -0.328187  -0.547375  0  2.365941  0
O  O294  1  0.52050481  0.66251794  0.64244488  1  -1.21485  0  -0.329426  -0.581952  0  2.235072  0
O  O295  1  0.71547115  0.83747701  0.85754628  1  -1.212229  0  -0.328687  -0.58269  0  2.236078  0
O  O296  1  0.47949475  0.33748222  0.35755539  1  -1.214848  0  -0.329432  -0.581958  0  2.235065  0
O  O297  1  0.28452915  0.16252258  0.14245358  1  -1.212229  0  -0.328671  -0.582663  0  2.23607  0
