# generated using pymatgen
data_Al3H9C31O14
_symmetry_space_group_name_H-M   'P 1'
_cell_length_a   12.36095742
_cell_length_b   12.47193734
_cell_length_c   27.05793226
_cell_angle_alpha   97.74846391
_cell_angle_beta   90.16192125
_cell_angle_gamma   119.99196747
_symmetry_Int_Tables_number   1
_chemical_formula_structural   Al3H9C31O14
_chemical_formula_sum   'Al6 H18 C62 O28'
_cell_volume   3567.82948987
_cell_formula_units_Z   2
loop_
 _symmetry_equiv_pos_site_id
 _symmetry_equiv_pos_as_xyz
  1  'x, y, z'
loop_
 _atom_site_type_symbol
 _atom_site_label
 _atom_site_symmetry_multiplicity
 _atom_site_fract_x
 _atom_site_fract_y
 _atom_site_fract_z
 _atom_site_occupancy
 _atom_site_pbe_bader_charge
 _atom_site_pbe_bader_spin_density
 _atom_site_pbe_cm5_charge
 _atom_site_pbe_ddec_charge
 _atom_site_pbe_ddec_spin_density
 _atom_site_pbe_ddec_sum_bond_order
 _atom_site_pbe_magmom
Al  Al0  1  0.40838566  0.81221315  0.48602846  1  2.490478  0  0.399697  1.682976  0  2.561538  0
Al  Al1  1  0.66711976  0.07587986  0.50255443  1  2.481641  0  0.511751  1.661625  0  2.50496  0
Al  Al2  1  0.42533900  0.07953953  0.50310345  1  2.486512  0  0.510284  1.662988  0  2.507097  0
Al  Al3  1  0.91918594  0.83929082  0.01944117  1  2.49014  0  0.399963  1.682294  0  2.560916  0
Al  Al4  1  0.91802971  0.57896868  0.00399994  1  2.481795  0  0.510618  1.661866  0  2.506443  0
Al  Al5  1  0.66946430  0.56873451  0.00357253  1  2.485576  0  0.511334  1.661791  0  2.507428  0
H  H6  1  0.51548086  0.81920267  0.80145737  1  0.08727  0  0.111676  0.115721  0  0.986448  0
H  H7  1  0.88293463  0.48357438  0.22689021  1  0.090982  0  0.116153  0.119159  0  0.981457  0
H  H8  1  0.48973877  0.20916866  0.19474334  1  0.117987  0  0.119413  0.124048  0  0.971001  0
H  H9  1  0.47328716  0.18074054  0.28418229  1  0.094153  0  0.116296  0.119567  0  0.980142  0
H  H10  1  0.24685714  0.71768273  0.69851781  1  0.066286  0  0.113985  0.11874  0  0.978476  0
H  H11  1  0.21418959  0.68409439  0.78762785  1  0.072817  0  0.113221  0.120697  0  0.979793  0
H  H12  1  0.07928431  0.94441091  0.80808397  1  0.098945  0  0.112491  0.124603  0  0.997969  0
H  H13  1  0.81731604  0.77517195  0.69095197  1  0.095454  0  0.112194  0.115746  0  0.987131  0
H  H14  1  0.86665485  0.45477987  0.31630126  1  0.086366  0  0.120168  0.125484  0  0.971288  0
H  H15  1  0.81496253  0.73896885  0.77913053  1  0.084582  0  0.109808  0.112507  0  0.994914  0
H  H16  1  0.51872324  0.85663371  0.71333473  1  0.088233  0  0.109867  0.112472  0  0.993517  0
H  H17  1  0.96988649  0.01079127  0.76324435  1  0.031696  0  0.082915  0.108139  0  1.033942  0
H  H18  1  0.12740107  0.13368129  0.77912405  1  0.028671  0  0.090165  0.117779  0  0.995827  0
H  H19  1  0.03840197  0.13537079  0.72793593  1  0.040795  0  0.093966  0.126101  0  0.987569  0
H  H20  1  0.18671201  0.06918716  0.69498564  1  0.037308  0  0.102244  0.104013  0  0.960127  0
H  H21  1  0.03271278  0.94856543  0.67961205  1  0.039118  0  0.097845  0.093093  0  0.976629  0
H  H22  1  0.32509735  0.60734210  0.50240529  1  0.57701  0  0.296218  0.386717  0  0.917189  0
H  H23  1  0.04322301  0.04443384  0.00354908  1  0.584652  0  0.296844  0.387147  0  0.916526  0
C  C24  1  0.61844361  0.89842854  0.41837254  1  1.666398  0  0.278814  0.690669  0  4.184949  0
C  C25  1  0.57172888  0.26258460  0.22151739  1  -0.016774  0  -0.065955  -0.105612  0  3.931783  0
C  C26  1  0.56257383  0.24693464  0.27141886  1  -0.031918  0  -0.067558  -0.107341  0  3.933166  0
C  C27  1  0.66893195  0.31600676  0.30617511  1  0.11577  0  0.011516  0.121004  0  4.096716  0
C  C28  1  0.68741687  0.34804745  0.20485019  1  0.09614  0  0.010456  0.120398  0  4.096  0
C  C29  1  0.69720810  0.36637887  0.15416908  1  -0.428961  0  0.007204  0.016164  0  4.028143  0
C  C30  1  0.65937531  0.29724552  0.35680003  1  -0.47339  0  0.008984  0.020665  0  4.022895  0
C  C31  1  0.70706362  0.38517072  0.11085368  1  0.196162  0  -0.03241  -0.201044  0  3.923729  0
C  C32  1  0.10494644  0.78275422  0.13628621  1  -0.003485  0  0.008171  -0.122997  0  3.815808  0
C  C33  1  0.13104052  0.79954964  0.18148256  1  -0.094531  0  -0.003918  0.027714  0  4.251891  0
C  C34  1  0.15641784  0.81816182  0.23106588  1  0.207605  0  0.002197  -0.000394  0  4.191766  0
C  C35  1  0.62564257  0.22845564  0.44607750  1  1.639267  0  0.288028  0.727313  0  4.14097  0
C  C36  1  0.17670944  0.83586167  0.27695856  1  -0.26337  0  0.00321  -0.002932  0  4.190428  0
C  C37  1  0.20167741  0.85652819  0.32663551  1  -0.162574  0  -0.00247  0.031727  0  4.249508  0
C  C38  1  0.22708247  0.87673713  0.37201385  1  0.147987  0  0.00736  -0.126257  0  3.817284  0
C  C39  1  0.67013222  0.77426370  0.13221333  1  0.07421  0  0.006752  -0.129083  0  3.812488  0
C  C40  1  0.66424660  0.79601544  0.17740991  1  -0.11083  0  0.002289  0.039129  0  4.23794  0
C  C41  1  0.65963520  0.81857617  0.22695219  1  0.041418  0  0.00609  0.001342  0  4.179615  0
C  C42  1  0.65784701  0.83859703  0.27277523  1  -0.134089  0  0.006832  0.003513  0  4.180239  0
C  C43  1  0.65283255  0.85920747  0.32236589  1  -0.278552  0  -0.000756  0.034717  0  4.243173  0
C  C44  1  0.64597652  0.87750937  0.36764732  1  0.25529  0  0.005785  -0.128611  0  3.816162  0
C  C45  1  0.69628086  0.37483991  0.87392780  1  0.350873  0  0.009173  -0.126329  0  3.799188  0
C  C46  1  0.27915733  0.90300079  0.42265040  1  1.643936  0  0.281865  0.687772  0  4.190042  0
C  C47  1  0.68588661  0.35261090  0.82800132  1  -0.492559  0  0.002916  0.039029  0  4.227238  0
C  C48  1  0.67528706  0.33064881  0.77778092  1  -0.151193  0  0.007802  0.004558  0  4.166538  0
C  C49  1  0.66629671  0.31296470  0.73155319  1  0.191573  0  0.006427  0.001705  0  4.168074  0
C  C50  1  0.65466313  0.29058857  0.68132760  1  -0.017146  0  0.001325  0.037518  0  4.232801  0
C  C51  1  0.64272044  0.26764627  0.63540586  1  -0.017033  0  0.007245  -0.12896  0  3.80398  0
C  C52  1  0.23235257  0.88414919  0.61054699  1  0.126392  0  -0.034342  -0.193404  0  3.938372  0
C  C53  1  0.21041570  0.76688676  0.72303702  1  -0.014534  0  -0.075032  -0.108554  0  3.975429  0
C  C54  1  0.19257048  0.74834811  0.77237381  1  0.006468  0  -0.080206  -0.130855  0  3.974729  0
C  C55  1  0.11577392  0.89561544  0.78341075  1  -0.100182  0  -0.078559  -0.180877  0  3.901867  0
C  C56  1  0.13281061  0.91522288  0.73389303  1  0.023055  0  0.008319  0.092355  0  3.909965  0
C  C57  1  0.63597341  0.89618142  0.55863634  1  1.677942  0  0.280095  0.715611  0  4.158906  0
C  C58  1  0.18164815  0.84982824  0.70341368  1  0.125269  0  0.002547  0.063036  0  4.085007  0
C  C59  1  0.14519847  0.81319702  0.80322235  1  0.128393  0  0.004343  0.130123  0  4.130694  0
C  C60  1  0.12446792  0.79494854  0.85354470  1  -0.576174  0  -0.013826  -0.019445  0  4.07346  0
C  C61  1  0.20594814  0.86881053  0.65339604  1  -0.420498  0  -0.013944  -0.017012  0  4.103384  0
C  C62  1  0.10351430  0.77921091  0.89675827  1  0.305806  0  -0.035214  -0.191064  0  3.94121  0
C  C63  1  0.66498656  0.86792732  0.60497603  1  0.032521  0  -0.034228  -0.193623  0  3.930635  0
C  C64  1  0.75152995  0.78474761  0.71525945  1  -0.06643  0  -0.074664  -0.115334  0  3.955851  0
C  C65  1  0.74990573  0.76416375  0.76445768  1  0.043906  0  -0.076918  -0.120039  0  3.955352  0
C  C66  1  0.58116492  0.80962214  0.77707889  1  0.009177  0  -0.076259  -0.118997  0  3.960613  0
C  C67  1  0.58309796  0.83059335  0.72799131  1  -0.039628  0  -0.076671  -0.117301  0  3.956215  0
C  C68  1  0.61675324  0.21817920  0.58281814  1  1.668197  0  0.285081  0.70228  0  4.172192  0
C  C69  1  0.66896746  0.81943051  0.69642894  1  0.069174  0  0.004426  0.121677  0  4.111518  0
C  C70  1  0.66536780  0.77719219  0.79621647  1  0.032778  0  0.00445  0.123567  0  4.113073  0
C  C71  1  0.66817677  0.76095716  0.84684960  1  -0.502274  0  -0.01158  -0.014843  0  4.067703  0
C  C72  1  0.66995971  0.84441839  0.64691404  1  -0.299612  0  -0.008615  -0.009078  0  4.062913  0
C  C73  1  0.67589480  0.75028005  0.89061948  1  0.275771  0  -0.033532  -0.189498  0  3.931559  0
C  C74  1  0.05221630  0.76110106  0.08607506  1  1.709734  0  0.279562  0.689374  0  4.185794  0
C  C75  1  0.72997734  0.43149287  0.06414077  1  1.622999  0  0.286711  0.725606  0  4.141111  0
C  C76  1  0.69729827  0.74676519  0.08211453  1  1.680498  0  0.283787  0.690676  0  4.183073  0
C  C77  1  0.05632489  0.75454849  0.94480189  1  1.644662  0  0.277285  0.713207  0  4.160756  0
C  C78  1  0.71911394  0.42547455  0.92635048  1  1.67948  0  0.286233  0.701321  0  4.172334  0
C  C79  1  0.28504004  0.90307360  0.56316059  1  1.651959  0  0.275332  0.710352  0  4.162667  0
C  C80  1  0.70651411  0.73973535  0.94039605  1  1.660181  0  0.279219  0.714794  0  4.158566  0
C  C81  1  0.64990543  0.27781093  0.40003168  1  0.252263  0  -0.031497  -0.203072  0  3.921082  0
C  C82  1  0.78463180  0.40152858  0.28953600  1  -0.006638  0  -0.066898  -0.10739  0  3.932676  0
C  C83  1  0.79367613  0.41733170  0.23964916  1  -0.030681  0  -0.066381  -0.105143  0  3.930938  0
C  C84  1  0.10266903  0.00295503  0.71184354  1  0.01593  0  -0.155519  -0.146835  0  3.997597  0
C  C85  1  0.05717285  0.07437354  0.74769793  1  -0.073853  0  -0.243856  -0.354132  0  3.978716  0
O  O86  1  0.29506667  0.82021365  0.43782764  1  -1.199389  0  -0.193008  -0.522402  0  2.284599  0
O  O87  1  0.69637415  0.19463896  0.56173369  1  -1.229272  0  -0.218721  -0.572118  0  2.250179  0
O  O88  1  0.51285996  0.19625463  0.56237041  1  -1.233698  0  -0.221394  -0.57577  0  2.245149  0
O  O89  1  0.29955112  0.99944617  0.54464696  1  -1.260349  0  -0.24586  -0.611675  0  2.22702  0
O  O90  1  0.50189249  0.99173807  0.49746824  1  -1.611312  0  -0.391028  -1.276024  0  2.297929  0
O  O91  1  0.79641290  0.82955851  0.06688510  1  -1.206649  0  -0.192265  -0.521347  0  2.281326  0
O  O92  1  0.01471474  0.83395841  0.07653519  1  -1.193857  0  -0.194576  -0.528012  0  2.287388  0
O  O93  1  0.04360245  0.66705841  0.05609688  1  -1.252964  0  -0.237504  -0.598885  0  2.237436  0
O  O94  1  0.83696675  0.46154053  0.04741682  1  -1.242047  0  -0.226062  -0.589792  0  2.240996  0
O  O95  1  0.64562235  0.44576242  0.04345372  1  -1.235477  0  -0.227085  -0.591121  0  2.243314  0
O  O96  1  0.62003588  0.63680830  0.05781257  1  -1.240384  0  -0.23509  -0.594458  0  2.231834  0
O  O97  1  0.51115197  0.82043736  0.42973124  1  -1.203637  0  -0.196423  -0.531585  0  2.289758  0
O  O98  1  0.81433402  0.82153583  0.96013394  1  -1.216624  0  -0.205906  -0.555006  0  2.296263  0
O  O99  1  0.03772060  0.83530523  0.97056227  1  -1.224027  0  -0.212094  -0.571825  0  2.291734  0
O  O100  1  0.03136862  0.64803892  0.95685858  1  -1.251604  0  -0.241005  -0.600771  0  2.22367  0
O  O101  1  0.82188210  0.44958913  0.94842258  1  -1.232421  0  -0.217227  -0.570245  0  2.250263  0
O  O102  1  0.63704728  0.44829526  0.94567544  1  -1.231372  0  -0.219447  -0.572462  0  2.244792  0
O  O103  1  0.62414114  0.64564017  0.95989177  1  -1.259482  0  -0.242891  -0.607328  0  2.228911  0
O  O104  1  0.83448858  0.65987471  0.00854614  1  -1.61029  0  -0.391434  -1.276422  0  2.300652  0
O  O105  1  0.70355360  0.99681132  0.44712415  1  -1.242456  0  -0.238118  -0.60057  0  2.238534  0
O  O106  1  0.70517874  0.20332756  0.46406298  1  -1.23582  0  -0.225688  -0.588661  0  2.2345  0
O  O107  1  0.52292873  0.20656520  0.46491186  1  -1.245478  0  -0.225845  -0.590253  0  2.248074  0
O  O108  1  0.30995618  0.01156196  0.44732932  1  -1.246172  0  -0.234101  -0.591109  0  2.235507  0
O  O109  1  0.31731978  0.82607203  0.54421556  1  -1.213866  0  -0.20754  -0.559656  0  2.298639  0
O  O110  1  0.53094765  0.81779774  0.53558819  1  -1.220463  0  -0.206465  -0.562886  0  2.29644  0
O  O111  1  0.71672138  0.00192986  0.54568751  1  -1.251739  0  -0.239107  -0.597947  0  2.221168  0
O  O112  1  0.32207657  0.64867067  0.47512145  1  -1.350848  0  -0.570274  -0.98516  0  1.790176  0
O  O113  1  0.99544104  0.00268888  0.03014392  1  -1.359042  0  -0.569978  -0.984646  0  1.789114  0
