# generated using pymatgen
data_H13PdC13SBr2N
_symmetry_space_group_name_H-M   'P 1'
_cell_length_a   8.87243132
_cell_length_b   11.51086580
_cell_length_c   13.80350000
_cell_angle_alpha   90.00000000
_cell_angle_beta   90.00000000
_cell_angle_gamma   90.00000000
_symmetry_Int_Tables_number   1
_chemical_formula_structural   H13PdC13SBr2N
_chemical_formula_sum   'H52 Pd4 C52 S4 Br8 N4'
_cell_volume   1409.74270656
_cell_formula_units_Z   4
loop_
 _symmetry_equiv_pos_site_id
 _symmetry_equiv_pos_as_xyz
  1  'x, y, z'
loop_
 _atom_site_type_symbol
 _atom_site_label
 _atom_site_symmetry_multiplicity
 _atom_site_fract_x
 _atom_site_fract_y
 _atom_site_fract_z
 _atom_site_occupancy
 _atom_site_hle17_bader_spin_density
 _atom_site_hle17_ddec_charge
 _atom_site_hle17_ddec_spin_density
 _atom_site_hle17_ddec_sum_bond_order
 _atom_site_hle17_magmom
 _atom_site_hse06_10hf_bader_spin_density
 _atom_site_hse06_10hf_ddec_charge
 _atom_site_hse06_10hf_ddec_spin_density
 _atom_site_hse06_10hf_ddec_sum_bond_order
 _atom_site_hse06_10hf_magmom
 _atom_site_hse06_bader_spin_density
 _atom_site_hse06_ddec_charge
 _atom_site_hse06_ddec_spin_density
 _atom_site_hse06_ddec_sum_bond_order
 _atom_site_hse06_magmom
 _atom_site_pbe_bader_charge
 _atom_site_pbe_bader_spin_density
 _atom_site_pbe_cm5_charge
 _atom_site_pbe_ddec_charge
 _atom_site_pbe_ddec_spin_density
 _atom_site_pbe_ddec_sum_bond_order
 _atom_site_pbe_magmom
H  H0  1  0.78539577  0.85477410  0.34591879  1  0  0.111743  0  0.952041  0  0  0.123221  0  1.016017  0  0  0.12553  0  1.014803  0  0.112663  0  0.090694  0.121534  0  1.016932  0
H  H1  1  0.28539640  0.14522452  0.65408121  1  0  0.111731  0  0.95196  0  0  0.123206  0  1.015939  0  0  0.125519  0  1.014723  0  0.11266  0  0.09067  0.12152  0  1.016853  0
H  H2  1  0.28539640  0.35477522  0.15408121  1  0  0.111732  0  0.951986  0  0  0.123206  0  1.015962  0  0  0.12552  0  1.014749  0  0.112657  0  0.090678  0.12152  0  1.016876  0
H  H3  1  0.78539577  0.64522601  0.84591806  1  0  0.111736  0  0.951965  0  0  0.123214  0  1.015944  0  0  0.125528  0  1.014731  0  0.112663  0  0.090689  0.121527  0  1.016859  0
H  H4  1  0.59431173  0.90818016  0.35420147  1  0  0.102734  0  0.960178  0  0  0.114601  0  1.029564  0  0  0.116288  0  1.027761  0  0.067442  0  0.091748  0.113322  0  1.030902  0
H  H5  1  0.09431237  0.09181933  0.64579780  1  0  0.102756  0  0.960194  0  0  0.114619  0  1.029578  0  0  0.116308  0  1.027777  0  0.067449  0  0.091767  0.11334  0  1.030916  0
H  H6  1  0.09431124  0.40818042  0.14579853  1  0  0.102726  0  0.960181  0  0  0.114592  0  1.029565  0  0  0.116284  0  1.027764  0  0.067441  0  0.091746  0.113313  0  1.030904  0
H  H7  1  0.59431173  0.59181995  0.85420147  1  0  0.102729  0  0.960185  0  0  0.114595  0  1.029576  0  0  0.116287  0  1.027775  0  0.067436  0  0.091743  0.113316  0  1.030914  0
H  H8  1  0.97991855  0.98470351  0.30430688  1  0  0.099104  0  0.978383  0  0  0.107554  0  1.047361  0  0  0.110473  0  1.044723  0  0.110942  0  0.095769  0.105357  0  1.049345  0
H  H9  1  0.47991580  0.01529424  0.69569385  1  0  0.09908  0  0.978359  0  0  0.107534  0  1.047342  0  0  0.110451  0  1.044702  0  0.110995  0  0.09576  0.105337  0  1.049326  0
H  H10  1  0.47991580  0.48470550  0.19569385  1  0  0.099082  0  0.978365  0  0  0.107533  0  1.047356  0  0  0.11045  0  1.044717  0  0.111  0  0.095763  0.105336  0  1.049341  0
H  H11  1  0.97991855  0.51529660  0.80430760  1  0  0.099084  0  0.978385  0  0  0.107534  0  1.047365  0  0  0.110453  0  1.044726  0  0.110946  0  0.095759  0.105338  0  1.049349  0
H  H12  1  0.05521035  0.18189596  0.24366646  1  0  0.112808  0  0.953408  0  0  0.121285  0  1.014451  0  0  0.124388  0  1.014275  0  0.119423  0  0.102398  0.118985  0  1.014861  0
H  H13  1  0.55520633  0.81810180  0.75633644  1  0  0.112823  0  0.953412  0  0  0.121302  0  1.014444  0  0  0.124405  0  1.01427  0  0.119401  0  0.102412  0.119009  0  1.014842  0
H  H14  1  0.55520520  0.68189745  0.25633644  1  0  0.112814  0  0.953422  0  0  0.121315  0  1.014434  0  0  0.12442  0  1.014256  0  0.119408  0  0.102409  0.119006  0  1.014848  0
H  H15  1  0.05520922  0.31810466  0.74366719  1  0  0.112794  0  0.953426  0  0  0.12126  0  1.014485  0  0  0.124363  0  1.01431  0  0.119436  0  0.102381  0.118972  0  1.014882  0
H  H16  1  0.86930174  0.34722931  0.26382729  1  0  0.087608  0  0.985593  0  0  0.093499  0  1.057687  0  0  0.096735  0  1.054569  0  0.16062  0  0.108624  0.091067  0  1.060016  0
H  H17  1  0.36929787  0.65277019  0.73617343  1  0  0.0876  0  0.985574  0  0  0.093519  0  1.057668  0  0  0.096754  0  1.054555  0  0.160606  0  0.108622  0.091086  0  1.060001  0
H  H18  1  0.36929787  0.84722993  0.23617343  1  0  0.087597  0  0.985574  0  0  0.093514  0  1.057669  0  0  0.096747  0  1.05456  0  0.160598  0  0.108621  0.091081  0  1.060001  0
H  H19  1  0.86930174  0.15277131  0.76382729  1  0  0.087627  0  0.985573  0  0  0.093523  0  1.057669  0  0  0.096758  0  1.054554  0  0.160632  0  0.108635  0.09109  0  1.059999  0
H  H20  1  0.66624128  0.41937593  0.31117325  1  0  0.114423  0  0.964621  0  0  0.135208  0  1.025014  0  0  0.137056  0  1.024118  0  0.09515  0  0.09771  0.133777  0  1.025785  0
H  H21  1  0.16623741  0.58062357  0.68882530  1  0  0.114437  0  0.964673  0  0  0.135189  0  1.025088  0  0  0.13706  0  1.024164  0  0.095159  0  0.097714  0.133758  0  1.025858  0
H  H22  1  0.16623741  0.91937654  0.18882530  1  0  0.114443  0  0.96465  0  0  0.13521  0  1.025052  0  0  0.137068  0  1.024144  0  0.09514  0  0.097721  0.133779  0  1.025823  0
H  H23  1  0.66624015  0.08062382  0.81117325  1  0  0.114428  0  0.96464  0  0  0.135217  0  1.025033  0  0  0.137063  0  1.024136  0  0.095157  0  0.097714  0.133786  0  1.025804  0
H  H24  1  0.58833817  0.35736495  0.42013910  1  0  0.109543  0  0.969238  0  0  0.126716  0  1.039066  0  0  0.127702  0  1.038852  0  0.122442  0  0.09522  0.125829  0  1.039386  0
H  H25  1  0.08833543  0.64263454  0.57985946  1  0  0.109552  0  0.969223  0  0  0.126699  0  1.039072  0  0  0.1277  0  1.038844  0  0.122405  0  0.095193  0.125811  0  1.039392  0
H  H26  1  0.08833543  0.85736557  0.07985946  1  0  0.109542  0  0.969225  0  0  0.12669  0  1.039075  0  0  0.127691  0  1.038845  0  0.122404  0  0.095195  0.125802  0  1.039395  0
H  H27  1  0.58833817  0.14263480  0.92013910  1  0  0.109543  0  0.969244  0  0  0.126721  0  1.039067  0  0  0.127705  0  1.038854  0  0.122442  0  0.09522  0.125833  0  1.039388  0
H  H28  1  0.50578019  0.32459852  0.30451335  1  0  0.106304  0  0.95603  0  0  0.124187  0  1.024971  0  0  0.125475  0  1.023309  0  0.093183  0  0.0946  0.123101  0  1.026296  0
H  H29  1  0.00577632  0.67540098  0.69548520  1  0  0.106274  0  0.95602  0  0  0.124169  0  1.024955  0  0  0.125456  0  1.023299  0  0.093192  0  0.094583  0.123083  0  1.026279  0
H  H30  1  0.00577632  0.82459914  0.19548520  1  0  0.106267  0  0.956021  0  0  0.12416  0  1.02496  0  0  0.125447  0  1.023301  0  0.093191  0  0.094584  0.123074  0  1.026284  0
H  H31  1  0.50577906  0.17540123  0.80451335  1  0  0.106296  0  0.956034  0  0  0.124183  0  1.024973  0  0  0.125472  0  1.023311  0  0.09319  0  0.094597  0.123098  0  1.026297  0
H  H32  1  0.42582465  0.81416812  0.43555765  1  0  0.09475  0  0.962893  0  0  0.100239  0  1.037292  0  0  0.103913  0  1.034201  0  0.083653  0  0.091416  0.097534  0  1.039623  0
H  H33  1  0.92582627  0.18583224  0.56444308  1  0  0.094753  0  0.962927  0  0  0.100269  0  1.037267  0  0  0.103944  0  1.034176  0  0.083729  0  0.091431  0.097563  0  1.039597  0
H  H34  1  0.92582514  0.31416751  0.06444308  1  0  0.094756  0  0.962907  0  0  0.100266  0  1.037266  0  0  0.103941  0  1.034174  0  0.083651  0  0.09143  0.097561  0  1.039597  0
H  H35  1  0.42582578  0.68583199  0.93555765  1  0  0.094748  0  0.962899  0  0  0.100243  0  1.037284  0  0  0.103917  0  1.034192  0  0.083653  0  0.091419  0.097537  0  1.039615  0
H  H36  1  0.30147655  0.62543167  0.44938240  1  0  0.081372  0  0.994307  0  0  0.089299  0  1.062488  0  0  0.092183  0  1.061358  0  0.083124  0  0.087391  0.087254  0  1.063317  0
H  H37  1  0.80147704  0.37456870  0.55061760  1  0  0.081359  0  0.994304  0  0  0.089288  0  1.062481  0  0  0.092172  0  1.061351  0  0.083126  0  0.087388  0.087242  0  1.06331  0
H  H38  1  0.80147591  0.12543105  0.05061760  1  0  0.081359  0  0.994285  0  0  0.089295  0  1.062461  0  0  0.092179  0  1.061329  0  0.083125  0  0.08739  0.087249  0  1.06329  0
H  H39  1  0.30147655  0.87456844  0.94938240  1  0  0.081377  0  0.994294  0  0  0.089303  0  1.06248  0  0  0.092187  0  1.061348  0  0.083124  0  0.087392  0.087257  0  1.063309  0
H  H40  1  0.41923007  0.46445681  0.54624552  1  0  0.09189  0  0.963878  0  0  0.100311  0  1.028821  0  0  0.103227  0  1.027797  0  0.102776  0  0.09149  0.098165  0  1.029691  0
H  H41  1  0.91923056  0.53554269  0.45375448  1  0  0.091886  0  0.963918  0  0  0.100305  0  1.028856  0  0  0.103221  0  1.027833  0  0.102785  0  0.091491  0.098158  0  1.029727  0
H  H42  1  0.91923056  0.96445743  0.95375448  1  0  0.09188  0  0.963904  0  0  0.100304  0  1.028839  0  0  0.10322  0  1.027815  0  0.102778  0  0.091495  0.098158  0  1.029709  0
H  H43  1  0.41923120  0.03554294  0.04624552  1  0  0.091885  0  0.963917  0  0  0.100304  0  1.028856  0  0  0.103221  0  1.027832  0  0.102785  0  0.091493  0.098158  0  1.029726  0
H  H44  1  0.66340891  0.49855068  0.62864418  1  0  0.089825  0  0.955529  0  0  0.099876  0  1.016902  0  0  0.102566  0  1.016157  0  0.069634  0  0.095277  0.097953  0  1.017501  0
H  H45  1  0.16340842  0.50144968  0.37135509  1  0  0.089773  0  0.955592  0  0  0.099855  0  1.016926  0  0  0.102545  0  1.016182  0  0.069628  0  0.095264  0.09793  0  1.01753  0
H  H46  1  0.16340842  0.99855043  0.87135509  1  0  0.089769  0  0.955595  0  0  0.099851  0  1.016929  0  0  0.102541  0  1.016185  0  0.069626  0  0.095263  0.097927  0  1.017532  0
H  H47  1  0.66340778  0.00144993  0.12864418  1  0  0.08983  0  0.95555  0  0  0.099882  0  1.016921  0  0  0.102572  0  1.016176  0  0.06963  0  0.095273  0.097957  0  1.017524  0
H  H48  1  0.79869088  0.68734708  0.60634042  1  0  0.081959  0  1.002747  0  0  0.086899  0  1.078107  0  0  0.090851  0  1.074429  0  0.077094  0  0.079747  0.083962  0  1.080855  0
H  H49  1  0.29869152  0.31265242  0.39365958  1  0  0.081955  0  1.002725  0  0  0.086892  0  1.078093  0  0  0.090844  0  1.074415  0  0.077088  0  0.07975  0.083955  0  1.08084  0
H  H50  1  0.29869152  0.18734733  0.89365958  1  0  0.081962  0  1.002727  0  0  0.086898  0  1.078095  0  0  0.090851  0  1.074416  0  0.077096  0  0.07975  0.083962  0  1.080842  0
H  H51  1  0.79869201  0.81265303  0.10633970  1  0  0.081944  0  1.00274  0  0  0.086882  0  1.078106  0  0  0.090834  0  1.074428  0  0.077098  0  0.079744  0.083945  0  1.080853  0
Pd  Pd52  1  0.46272322  0.12351286  0.42990401  1  0  0.187997  0  2.808871  0  0  0.174289  0  3.356341  0  0  0.190965  0  3.323338  0  0.334629  0  0.494001  0.165278  0  3.378771  0
Pd  Pd53  1  0.96272258  0.87648750  0.57009527  1  0  0.188015  0  2.808846  0  0  0.174295  0  3.35632  0  0  0.190975  0  3.323317  0  0.334616  0  0.493987  0.165286  0  3.378751  0
Pd  Pd54  1  0.96272146  0.62351261  0.07009527  1  0  0.187995  0  2.808947  0  0  0.174276  0  3.356416  0  0  0.190955  0  3.323416  0  0.334598  0  0.493971  0.165266  0  3.378847  0
Pd  Pd55  1  0.46272322  0.37648688  0.92990473  1  0  0.187994  0  2.808883  0  0  0.174282  0  3.356359  0  0  0.190961  0  3.323356  0  0.334543  0  0.493991  0.165272  0  3.378791  0
C  C56  1  0.71129770  0.92093420  0.37774550  1  0  -0.196486  0  3.646992  0  0  -0.23342  0  3.887973  0  0  -0.232681  0  3.898057  0  -0.106386  0  -0.156588  -0.233706  0  3.881221  0
C  C57  1  0.21129721  0.07906529  0.62225378  1  0  -0.196499  0  3.646944  0  0  -0.233423  0  3.887921  0  0  -0.232697  0  3.898021  0  -0.106364  0  -0.156594  -0.233709  0  3.88117  0
C  C58  1  0.21129721  0.42093445  0.12225378  1  0  -0.196466  0  3.646943  0  0  -0.23338  0  3.887907  0  0  -0.232664  0  3.89802  0  -0.106356  0  -0.156577  -0.233666  0  3.881155  0
C  C59  1  0.71129657  0.57906591  0.87774622  1  0  -0.196521  0  3.646965  0  0  -0.233447  0  3.887938  0  0  -0.232731  0  3.898049  0  -0.106386  0  -0.156599  -0.233732  0  3.881186  0
C  C60  1  0.66373802  0.13679770  0.36625421  1  0  -0.008092  0  3.4739  0  0  -0.039887  0  3.785845  0  0  -0.032613  0  3.799624  0  0.36567  0  -0.023215  -0.045266  0  3.776701  0
C  C61  1  0.16373753  0.86320266  0.63374506  1  0  -0.008069  0  3.474018  0  0  -0.039876  0  3.785978  0  0  -0.032603  0  3.799757  0  0.365644  0  -0.023214  -0.045256  0  3.776835  0
C  C62  1  0.16373640  0.63679745  0.13374434  1  0  -0.008099  0  3.474096  0  0  -0.039905  0  3.786063  0  0  -0.032631  0  3.799841  0  0.365612  0  -0.023248  -0.045285  0  3.776919  0
C  C63  1  0.66373802  0.36320291  0.86625494  1  0  -0.008126  0  3.474003  0  0  -0.039923  0  3.785962  0  0  -0.032649  0  3.799739  0  0.365627  0  -0.023217  -0.045302  0  3.776818  0
C  C64  1  0.76127498  0.04135571  0.35178324  1  0  0.054262  0  3.745074  0  0  0.080016  0  3.992561  0  0  0.072825  0  4.017648  0  0.040435  0  -0.023297  0.084275  0  3.976067  0
C  C65  1  0.26127449  0.95864292  0.64821603  1  0  0.054281  0  3.745068  0  0  0.080027  0  3.992569  0  0  0.072838  0  4.017657  0  0.040433  0  -0.023221  0.084284  0  3.976077  0
C  C66  1  0.26127337  0.54135719  0.14821603  1  0  0.054235  0  3.745089  0  0  0.079969  0  3.992604  0  0  0.072783  0  4.017693  0  0.040457  0  -0.023275  0.084229  0  3.976111  0
C  C67  1  0.76127386  0.45864404  0.85178397  1  0  0.054328  0  3.745128  0  0  0.080073  0  3.992628  0  0  0.072889  0  4.017718  0  0.040436  0  -0.023265  0.084331  0  3.976135  0
C  C68  1  0.90270859  0.05813464  0.30996704  1  0  -0.031859  0  3.659112  0  0  -0.06343  0  3.909765  0  0  -0.0575  0  3.926238  0  -0.049934  0  -0.064897  -0.067  0  3.898705  0
C  C69  1  0.40270810  0.94186486  0.69003296  1  0  -0.031796  0  3.659101  0  0  -0.06336  0  3.909724  0  0  -0.057426  0  3.926194  0  -0.050113  0  -0.064891  -0.06693  0  3.898663  0
C  C70  1  0.40270698  0.55813525  0.19003369  1  0  -0.031771  0  3.659073  0  0  -0.063329  0  3.909699  0  0  -0.057395  0  3.926168  0  -0.049928  0  -0.064861  -0.066898  0  3.898633  0
C  C71  1  0.90270747  0.44186598  0.80996776  1  0  -0.031863  0  3.659162  0  0  -0.06343  0  3.909804  0  0  -0.057501  0  3.926275  0  -0.049924  0  -0.064875  -0.066999  0  3.898743  0
C  C72  1  0.94554691  0.16788833  0.27699424  1  0  -0.109219  0  3.761431  0  0  -0.123099  0  4.021109  0  0  -0.131443  0  4.042992  0  0.051652  0  -0.086561  -0.118023  0  4.006761  0
C  C73  1  0.44554191  0.83211117  0.72300721  1  0  -0.109298  0  3.761453  0  0  -0.12314  0  4.021154  0  0  -0.131484  0  4.043036  0  0.051932  0  -0.086578  -0.118066  0  4.006796  0
C  C74  1  0.44554191  0.66788894  0.22300721  1  0  -0.109283  0  3.761454  0  0  -0.123145  0  4.02114  0  0  -0.13149  0  4.043023  0  0.051763  0  -0.086574  -0.118058  0  4.006791  0
C  C75  1  0.94554691  0.33211229  0.77699424  1  0  -0.109252  0  3.761378  0  0  -0.123117  0  4.021066  0  0  -0.13146  0  4.042949  0  0.051657  0  -0.086589  -0.118051  0  4.006711  0
C  C76  1  0.84623929  0.25877028  0.28793132  1  0  0.094192  0  3.596787  0  0  0.053448  0  3.840784  0  0  0.061223  0  3.857888  0  0.326948  0  0.05349  0.048502  0  3.829422  0
C  C77  1  0.34623655  0.74122921  0.71206940  1  0  0.094334  0  3.596667  0  0  0.053474  0  3.84078  0  0  0.061248  0  3.857884  0  0.326905  0  0.053511  0.048527  0  3.829421  0
C  C78  1  0.34623655  0.75877090  0.21206940  1  0  0.094339  0  3.596669  0  0  0.053481  0  3.840785  0  0  0.061254  0  3.857889  0  0.326905  0  0.053511  0.048534  0  3.829422  0
C  C79  1  0.84623817  0.24123033  0.78793132  1  0  0.094222  0  3.596699  0  0  0.053457  0  3.840719  0  0  0.06123  0  3.857822  0  0.326962  0  0.053506  0.04851  0  3.82936  0
C  C80  1  0.61115942  0.34326784  0.34302387  1  0  -0.194757  0  3.597864  0  0  -0.302675  0  3.842602  0  0  -0.299439  0  3.8491  0  0.161928  0  -0.149625  -0.304481  0  3.838404  0
C  C81  1  0.11115668  0.65673253  0.65697468  1  0  -0.194776  0  3.597943  0  0  -0.302645  0  3.842675  0  0  -0.299435  0  3.849141  0  0.162057  0  -0.14959  -0.30445  0  3.838477  0
C  C82  1  0.11115668  0.84326758  0.15697468  1  0  -0.194714  0  3.59788  0  0  -0.302596  0  3.842604  0  0  -0.299377  0  3.849084  0  0.161991  0  -0.149573  -0.3044  0  3.838406  0
C  C83  1  0.61115942  0.15673278  0.84302387  1  0  -0.194783  0  3.597913  0  0  -0.302711  0  3.842652  0  0  -0.299471  0  3.849153  0  0.161922  0  -0.149637  -0.304517  0  3.838454  0
C  C84  1  0.62422799  0.76086805  0.51690151  1  0  0.024067  0  3.756514  0  0  0.052593  0  3.997742  0  0  0.051425  0  4.024009  0  -0.223683  0  -0.017798  0.053232  0  3.979974  0
C  C85  1  0.12422863  0.23913145  0.48309849  1  0  0.024083  0  3.756511  0  0  0.05263  0  3.997707  0  0  0.051472  0  4.023956  0  -0.172932  0  -0.01782  0.053269  0  3.979938  0
C  C86  1  0.12422750  0.26086830  0.98309849  1  0  0.024078  0  3.756553  0  0  0.052598  0  3.997784  0  0  0.051431  0  4.024051  0  -0.223709  0  -0.01778  0.053238  0  3.980016  0
C  C87  1  0.62422799  0.73913120  0.01690151  1  0  0.024097  0  3.756492  0  0  0.052634  0  3.997704  0  0  0.051472  0  4.023961  0  -0.172954  0  -0.0178  0.053273  0  3.979937  0
C  C88  1  0.48297922  0.74397531  0.47398848  1  0  -0.109666  0  3.75176  0  0  -0.128654  0  3.99461  0  0  -0.131677  0  4.017996  0  -0.020139  0  -0.097733  -0.12641  0  3.978673  0
C  C89  1  0.98297859  0.25602505  0.52601152  1  0  -0.109668  0  3.751776  0  0  -0.128667  0  3.994617  0  0  -0.131694  0  4.018003  0  -0.070959  0  -0.097719  -0.126422  0  3.978681  0
C  C90  1  0.98297859  0.24397557  0.02601152  1  0  -0.109693  0  3.751844  0  0  -0.12869  0  3.9947  0  0  -0.131713  0  4.018087  0  -0.020133  0  -0.097742  -0.126445  0  3.978763  0
C  C91  1  0.48297810  0.75602480  0.97398848  1  0  -0.109687  0  3.751726  0  0  -0.128678  0  3.99457  0  0  -0.131702  0  4.017954  0  -0.070886  0  -0.097736  -0.126433  0  3.978635  0
C  C92  1  0.41148248  0.63664890  0.48302677  1  0  -0.065594  0  3.772354  0  0  -0.075267  0  4.01509  0  0  -0.077735  0  4.037331  0  -0.060858  0  -0.097321  -0.073495  0  3.999833  0
C  C93  1  0.91148296  0.36335147  0.51697396  1  0  -0.065609  0  3.772391  0  0  -0.075292  0  4.01514  0  0  -0.077759  0  4.037383  0  -0.060871  0  -0.097352  -0.073519  0  3.999883  0
C  C94  1  0.91148409  0.13664915  0.01697396  1  0  -0.06559  0  3.772357  0  0  -0.075275  0  4.015105  0  0  -0.077744  0  4.037348  0  -0.06084  0  -0.097349  -0.073503  0  3.999847  0
C  C95  1  0.41148248  0.86335122  0.98302677  1  0  -0.065602  0  3.772347  0  0  -0.075279  0  4.015088  0  0  -0.077747  0  4.037329  0  -0.06087  0  -0.097328  -0.073507  0  3.999831  0
C  C96  1  0.47654581  0.54760347  0.53750715  1  0  -0.070046  0  3.755509  0  0  -0.082565  0  3.998178  0  0  -0.083824  0  4.018676  0  -0.117059  0  -0.095408  -0.08159  0  3.984169  0
C  C97  1  0.97654630  0.45239603  0.46249285  1  0  -0.070026  0  3.755536  0  0  -0.082545  0  3.998222  0  0  -0.083805  0  4.018721  0  -0.117021  0  -0.095396  -0.08157  0  3.984212  0
C  C98  1  0.97654630  0.04760285  0.96249285  1  0  -0.070019  0  3.755504  0  0  -0.082543  0  3.998191  0  0  -0.083802  0  4.018691  0  -0.117072  0  -0.095403  -0.081568  0  3.984181  0
C  C99  1  0.47654581  0.95239578  0.03750715  1  0  -0.070033  0  3.755538  0  0  -0.082548  0  3.998212  0  0  -0.083808  0  4.018711  0  -0.117032  0  -0.095399  -0.081572  0  3.984202  0
C  C100  1  0.61481569  0.56642742  0.58325714  1  0  -0.06052  0  3.761026  0  0  -0.069166  0  4.002759  0  0  -0.071202  0  4.024342  0  -0.001317  0  -0.093307  -0.067712  0  3.988007  0
C  C101  1  0.11481520  0.43357295  0.41674286  1  0  -0.060523  0  3.761064  0  0  -0.069193  0  4.002796  0  0  -0.071231  0  4.024383  0  -0.001366  0  -0.09332  -0.06774  0  3.988043  0
C  C102  1  0.11481520  0.06642680  0.91674286  1  0  -0.060524  0  3.761058  0  0  -0.069194  0  4.002792  0  0  -0.071231  0  4.024376  0  -0.001327  0  -0.093322  -0.06774  0  3.988038  0
C  C103  1  0.61481456  0.93357356  0.08325714  1  0  -0.06055  0  3.761058  0  0  -0.069203  0  4.0028  0  0  -0.071239  0  4.024384  0  -0.001372  0  -0.093318  -0.067749  0  3.988046  0
C  C104  1  0.68999125  0.67200245  0.57192451  1  0  -0.110221  0  3.758013  0  0  -0.127118  0  3.998271  0  0  -0.130196  0  4.020084  0  0.006739  0  -0.101052  -0.124879  0  3.983496  0
C  C105  1  0.18999189  0.32799792  0.42807549  1  0  -0.110212  0  3.757945  0  0  -0.127116  0  3.998197  0  0  -0.130196  0  4.020008  0  0.006752  0  -0.101051  -0.124877  0  3.983422  0
C  C106  1  0.18999076  0.17200183  0.92807549  1  0  -0.110188  0  3.75798  0  0  -0.127084  0  3.998245  0  0  -0.130162  0  4.020059  0  0.00676  0  -0.101036  -0.124844  0  3.983469  0
C  C107  1  0.68999013  0.82799766  0.07192451  1  0  -0.110205  0  3.75795  0  0  -0.127101  0  3.998194  0  0  -0.13018  0  4.020005  0  0.006769  0  -0.101043  -0.124861  0  3.983418  0
S  S108  1  0.71174628  0.89988626  0.50961495  1  0  0.105825  0  2.823704  0  0  0.097542  0  3.246847  0  0  0.098177  0  3.238237  0  0.107658  0  -0.018021  0.096757  0  3.253029  0
S  S109  1  0.21174692  0.10011410  0.49038432  1  0  0.105859  0  2.823792  0  0  0.097569  0  3.246919  0  0  0.098206  0  3.23831  0  0.107641  0  -0.017996  0.096786  0  3.253101  0
S  S110  1  0.21174692  0.39988565  0.99038432  1  0  0.10587  0  2.823724  0  0  0.097587  0  3.246857  0  0  0.09823  0  3.238255  0  0.107645  0  -0.018002  0.096803  0  3.253039  0
S  S111  1  0.71174628  0.60011472  0.00961495  1  0  0.10589  0  2.823843  0  0  0.097606  0  3.246983  0  0  0.098247  0  3.238379  0  0.107658  0  -0.017982  0.096821  0  3.253165  0
Br  Br112  1  0.36030823  0.07646862  0.26854856  1  0  -0.411648  0  1.121436  0  0  -0.381816  0  1.434393  0  0  -0.397488  0  1.415798  0  -0.455588  0  -0.256554  -0.370826  0  1.447039  0
Br  Br113  1  0.86030646  0.92353088  0.73145144  1  0  -0.411667  0  1.121415  0  0  -0.381835  0  1.434373  0  0  -0.397507  0  1.415775  0  -0.455587  0  -0.25656  -0.370846  0  1.44702  0
Br  Br114  1  0.86030646  0.57646923  0.23145144  1  0  -0.411662  0  1.121426  0  0  -0.381829  0  1.434387  0  0  -0.397501  0  1.41579  0  -0.455588  0  -0.256557  -0.370839  0  1.447031  0
Br  Br115  1  0.36030823  0.42353287  0.76854928  1  0  -0.411651  0  1.121425  0  0  -0.381818  0  1.434381  0  0  -0.397498  0  1.4158  0  -0.455604  0  -0.256557  -0.370828  0  1.447029  0
Br  Br116  1  0.56987311  0.20193789  0.58120766  1  0  -0.410639  0  1.135483  0  0  -0.390316  0  1.465078  0  0  -0.407874  0  1.448262  0  -0.454934  0  -0.261836  -0.378141  0  1.476572  0
Br  Br117  1  0.06987262  0.79806160  0.41879234  1  0  -0.410644  0  1.135493  0  0  -0.390309  0  1.465087  0  0  -0.407869  0  1.448273  0  -0.454915  0  -0.261831  -0.378135  0  1.476582  0
Br  Br118  1  0.06987262  0.70193851  0.91879234  1  0  -0.410634  0  1.13548  0  0  -0.390303  0  1.465079  0  0  -0.407864  0  1.448266  0  -0.454912  0  -0.261828  -0.378129  0  1.476574  0
Br  Br119  1  0.56987198  0.29806099  0.08120766  1  0  -0.410633  0  1.135491  0  0  -0.39031  0  1.465097  0  0  -0.407868  0  1.448278  0  -0.454855  0  -0.261831  -0.378135  0  1.476591  0
N  N120  1  0.71104298  0.24211298  0.33248017  1  0  0.028343  0  3.56631  0  0  0.136632  0  3.767377  0  0  0.12267  0  3.795465  0  -1.203922  0  -0.226354  0.145645  0  3.748494  0
N  N121  1  0.21103798  0.75788565  0.66751911  1  0  0.02823  0  3.566437  0  0  0.136562  0  3.767506  0  0  0.122597  0  3.795607  0  -1.204038  0  -0.226414  0.145575  0  3.748624  0
N  N122  1  0.21103798  0.74211359  0.16751911  1  0  0.028189  0  3.56646  0  0  0.136516  0  3.767536  0  0  0.122552  0  3.795633  0  -1.203958  0  -0.226416  0.14553  0  3.748654  0
N  N123  1  0.71104185  0.25788764  0.83248017  1  0  0.028364  0  3.56633  0  0  0.136659  0  3.767409  0  0  0.122699  0  3.795493  0  -1.203927  0  -0.226365  0.145671  0  3.748526  0
