# generated using pymatgen
data_H16Rh2C17S2(NO4)2
_symmetry_space_group_name_H-M   'P 1'
_cell_length_a   8.14289687
_cell_length_b   13.61653475
_cell_length_c   14.13248577
_cell_angle_alpha   91.50671250
_cell_angle_beta   98.35962048
_cell_angle_gamma   90.27520793
_symmetry_Int_Tables_number   1
_chemical_formula_structural   H16Rh2C17S2(NO4)2
_chemical_formula_sum   'H32 Rh4 C34 S4 N4 O16'
_cell_volume   1549.73820171
_cell_formula_units_Z   2
loop_
 _symmetry_equiv_pos_site_id
 _symmetry_equiv_pos_as_xyz
  1  'x, y, z'
loop_
 _atom_site_type_symbol
 _atom_site_label
 _atom_site_symmetry_multiplicity
 _atom_site_fract_x
 _atom_site_fract_y
 _atom_site_fract_z
 _atom_site_occupancy
 _atom_site_pbe_bader_spin_density
 _atom_site_pbe_cm5_charge
 _atom_site_pbe_ddec_charge
 _atom_site_pbe_ddec_spin_density
 _atom_site_pbe_ddec_sum_bond_order
 _atom_site_pbe_magmom
H  H0  1  0.50352009  0.51723690  0.88906152  1  0  0.109852  0.18251  0  0.989307  0
H  H1  1  0.49736531  0.48055939  0.11151872  1  0  0.109219  0.180101  0  0.986925  0
H  H2  1  0.45841556  0.64368234  0.89596285  1  0  0.101363  0.158642  0  0.986205  0
H  H3  1  0.54234563  0.35412452  0.10300936  1  0  0.100647  0.15655  0  0.987928  0
H  H4  1  0.37596606  0.57176972  0.79105543  1  0  0.091924  0.143491  0  1.029328  0
H  H5  1  0.62928267  0.42539786  0.20759430  1  0  0.09443  0.148075  0  1.013229  0
H  H6  1  0.86964483  0.83103812  0.97256628  1  0  0.104681  0.15806  0  0.98485  0
H  H7  1  0.12360189  0.16714729  0.02233011  1  0  0.104812  0.157949  0  0.983702  0
H  H8  1  0.68496412  0.77671087  0.99999342  1  0  0.111251  0.166579  0  0.968371  0
H  H9  1  0.30805429  0.22114008  0.99399249  1  0  0.110878  0.165478  0  0.967726  0
H  H10  1  0.72004175  0.77820025  0.87812591  1  0  0.100549  0.151395  0  0.993435  0
H  H11  1  0.27429544  0.22019285  0.11601072  1  0  0.099165  0.148296  0  0.995988  0
H  H12  1  0.45602079  0.16625369  0.65826472  1  0  0.105881  0.163282  0  0.966348  0
H  H13  1  0.54280162  0.83401517  0.34492714  1  0  0.105741  0.161957  0  0.967636  0
H  H14  1  0.46158483  0.20259876  0.53988647  1  0  0.09607  0.148595  0  1.011  0
H  H15  1  0.53443012  0.79892413  0.46348519  1  0  0.098726  0.155278  0  0.995487  0
H  H16  1  0.55456536  0.08917876  0.57795491  1  0  0.103486  0.173573  0  1.011547  0
H  H17  1  0.44130428  0.91171506  0.42324734  1  0  0.102393  0.171669  0  1.013687  0
H  H18  1  0.07177049  0.12429652  0.20781579  1  0  0.100098  0.150409  0  0.999908  0
H  H19  1  0.92025290  0.88175532  0.79618299  1  0  0.100933  0.150758  0  1.001086  0
H  H20  1  0.87439286  0.06730250  0.18093674  1  0  0.106322  0.15937  0  0.974732  0
H  H21  1  0.12033878  0.93573098  0.82209738  1  0  0.10597  0.158721  0  0.975253  0
H  H22  1  0.05803434  0.99484376  0.18016863  1  0  0.104157  0.1591  0  0.981843  0
H  H23  1  0.93984194  0.01092747  0.82355615  1  0  0.104639  0.159828  0  0.981594  0
H  H24  1  0.41867994  0.47030373  0.31939294  1  0  0.102383  0.110998  0  1.007271  0
H  H25  1  0.55353959  0.53290033  0.67044662  1  0  0.101697  0.111599  0  1.006407  0
H  H26  1  0.36905125  0.64597443  0.57263066  1  0  0.100832  0.109446  0  1.002874  0
H  H27  1  0.60172392  0.35654386  0.41728428  1  0  0.098905  0.105868  0  1.006299  0
H  H28  1  0.02274296  0.66353910  0.76449481  1  0  0.12195  0.155038  0  0.985802  0
H  H29  1  0.05600904  0.34746305  0.24579559  1  0  0.120846  0.156728  0  0.996884  0
H  H30  1  0.85438695  0.75750150  0.62375951  1  0  0.123191  0.157279  0  0.985829  0
H  H31  1  0.21155949  0.24132163  0.38216087  1  0  0.125245  0.154117  0  0.968769  0
Rh  Rh32  1  0.07131773  0.53011658  0.07257888  1  0  0.667286  0.627571  0  3.809251  0
Rh  Rh33  1  0.92350920  0.46855544  0.92143320  1  0  0.656455  0.619742  0  3.777843  0
Rh  Rh34  1  0.06614998  0.92425707  0.49265173  1  0  0.673515  0.632597  0  3.812945  0
Rh  Rh35  1  0.92789859  0.07900440  0.51045063  1  0  0.66879  0.629264  0  3.806353  0
C  C36  1  0.25708790  0.54794480  0.91526157  1  0  0.216633  0.64585  0  4.074554  0
C  C37  1  0.74226469  0.45041725  0.08199483  1  0  0.21729  0.650017  0  4.071885  0
C  C38  1  0.40677263  0.57208887  0.86910270  1  0  -0.239777  -0.51143  0  3.867315  0
C  C39  1  0.59464970  0.42561700  0.12977193  1  0  -0.239366  -0.510385  0  3.867684  0
C  C40  1  0.86431107  0.67316583  0.96593080  1  0  0.21324  0.638655  0  4.094798  0
C  C41  1  0.12955681  0.32512002  0.02826856  1  0  0.213178  0.639089  0  4.093424  0
C  C42  1  0.77987525  0.77115525  0.95218030  1  0  -0.235822  -0.514487  0  3.90958  0
C  C43  1  0.21365490  0.22701591  0.04210113  1  0  -0.234223  -0.50934  0  3.908781  0
C  C44  1  0.28762592  0.08790915  0.55266686  1  0  0.215795  0.644526  0  4.079226  0
C  C45  1  0.70822395  0.91358532  0.45072094  1  0  0.216251  0.648898  0  4.077683  0
C  C46  1  0.45111892  0.13851082  0.58419885  1  0  -0.241377  -0.513035  0  3.884008  0
C  C47  1  0.54546710  0.86249742  0.41861392  1  0  -0.240669  -0.512584  0  3.886309  0
C  C48  1  0.00301845  0.03685102  0.32005893  1  0  0.213375  0.640548  0  4.090944  0
C  C49  1  0.99119504  0.96739351  0.68333569  1  0  0.212826  0.640301  0  4.091075  0
C  C50  1  0.00251042  0.05622503  0.21538011  1  0  -0.234996  -0.504241  0  3.897051  0
C  C51  1  0.99248261  0.94858714  0.78818512  1  0  -0.234947  -0.504266  0  3.898492  0
C  C52  1  0.22754462  0.61415139  0.28357216  1  0  0.176806  0.245159  0  4.116427  0
C  C53  1  0.75560048  0.39275968  0.70590406  1  0  0.180085  0.250446  0  4.083825  0
C  C54  1  0.27314890  0.63402404  0.38111299  1  0  -0.030785  -0.150975  0  4.214913  0
C  C55  1  0.70228614  0.37105017  0.60902502  1  0  -0.027579  -0.139354  0  4.183583  0
C  C56  1  0.21713182  0.71940284  0.42256573  1  0  0.181236  0.249849  0  4.091577  0
C  C57  1  0.76570640  0.28664391  0.56999997  1  0  0.180963  0.249648  0  4.081243  0
C  C58  1  0.38012227  0.56697399  0.43849803  1  0  -0.012012  0.087362  0  4.064347  0
C  C59  1  0.59080197  0.43562334  0.55158248  1  0  -0.0122  0.079201  0  4.095482  0
C  C60  1  0.44800617  0.48379205  0.39642092  1  0  -0.09693  -0.133039  0  3.996956  0
C  C61  1  0.52288241  0.51897081  0.59351045  1  0  -0.099831  -0.148315  0  4.028895  0
C  C62  1  0.42067321  0.58271494  0.53858059  1  0  -0.101915  -0.149644  0  4.032364  0
C  C63  1  0.55027003  0.41991852  0.45133805  1  0  -0.103857  -0.158464  0  4.040891  0
C  C64  1  0.99687893  0.63716981  0.69061796  1  0  -0.087803  -0.152912  0  3.983309  0
C  C65  1  0.06241582  0.36237078  0.32226357  1  0  -0.08638  -0.155459  0  3.969716  0
C  C66  1  0.90667214  0.68472504  0.61837678  1  0  -0.086382  -0.148343  0  3.991024  0
C  C67  1  0.14521168  0.30877253  0.39287786  1  0  -0.080658  -0.139059  0  3.989706  0
C  C68  1  0.99447764  0.52484363  0.54374424  1  0  -0.022958  -0.111432  0  4.087688  0
C  C69  1  0.02809945  0.45268558  0.47803450  1  0  -0.027219  -0.122384  0  4.091027  0
S  S70  1  0.07329800  0.52320053  0.66416064  1  0  0.123192  0.217055  0  3.027415  0
S  S71  1  0.95932966  0.46441210  0.35693444  1  0  0.123269  0.208418  0  2.988811  0
S  S72  1  0.87362985  0.62528948  0.50814931  1  0  0.125375  0.224635  0  2.947739  0
S  S73  1  0.14064501  0.34829702  0.50905378  1  0  0.132839  0.241351  0  3.001722  0
N  N74  1  0.19519917  0.58911068  0.20285420  1  0  -0.360085  -0.354718  0  3.290315  0
N  N75  1  0.80154602  0.41536248  0.78632117  1  0  -0.343838  -0.345238  0  3.26177  0
N  N76  1  0.17821982  0.79039819  0.46239651  1  0  -0.355505  -0.354311  0  3.294562  0
N  N77  1  0.81772305  0.21565006  0.53602208  1  0  -0.347339  -0.347932  0  3.279161  0
O  O78  1  0.26696223  0.56685885  0.00499637  1  0  -0.298494  -0.456397  0  2.395104  0
O  O79  1  0.72881319  0.43370089  0.99149388  1  0  -0.299513  -0.462318  0  2.382581  0
O  O80  1  0.13031136  0.50922221  0.86260192  1  0  -0.294853  -0.472186  0  2.460565  0
O  O81  1  0.87022728  0.48762936  0.13458105  1  0  -0.29968  -0.469809  0  2.4101  0
O  O82  1  0.96426509  0.66367749  0.04351649  1  0  -0.29979  -0.450238  0  2.365358  0
O  O83  1  0.02885288  0.33453019  0.95099101  1  0  -0.299718  -0.45029  0  2.366252  0
O  O84  1  0.82744097  0.60718953  0.89975540  1  0  -0.301975  -0.472515  0  2.388749  0
O  O85  1  0.16796585  0.39137340  0.09412637  1  0  -0.301109  -0.475484  0  2.388989  0
O  O86  1  0.28773101  0.99608006  0.53158763  1  0  -0.291177  -0.444016  0  2.394967  0
O  O87  1  0.70740671  0.00615765  0.46905340  1  0  -0.294752  -0.452766  0  2.387215  0
O  O88  1  0.15749934  0.14136927  0.54877660  1  0  -0.301874  -0.478252  0  2.469265  0
O  O89  1  0.83801512  0.85971162  0.45739636  1  0  -0.305385  -0.475609  0  2.420113  0
O  O90  1  0.06709264  0.95642622  0.35157668  1  0  -0.296876  -0.4527  0  2.364268  0
O  O91  1  0.92409674  0.04674216  0.65112606  1  0  -0.297296  -0.451944  0  2.36621  0
O  O92  1  0.93911602  0.10317751  0.36891255  1  0  -0.30575  -0.471231  0  2.39111  0
O  O93  1  0.05747761  0.90153350  0.63499744  1  0  -0.303937  -0.473821  0  2.392719  0
