# generated using pymatgen
data_ZnH9(C3O)5
_symmetry_space_group_name_H-M   'P 1'
_cell_length_a   7.87015335
_cell_length_b   14.01080534
_cell_length_c   14.01079288
_cell_angle_alpha   73.50507583
_cell_angle_beta   77.69648697
_cell_angle_gamma   77.69695026
_symmetry_Int_Tables_number   1
_chemical_formula_structural   ZnH9(C3O)5
_chemical_formula_sum   'Zn4 H36 C60 O20'
_cell_volume   1428.00087466
_cell_formula_units_Z   4
loop_
 _symmetry_equiv_pos_site_id
 _symmetry_equiv_pos_as_xyz
  1  'x, y, z'
loop_
 _atom_site_type_symbol
 _atom_site_label
 _atom_site_symmetry_multiplicity
 _atom_site_fract_x
 _atom_site_fract_y
 _atom_site_fract_z
 _atom_site_occupancy
 _atom_site_pbe_bader_charge
 _atom_site_pbe_bader_spin_density
 _atom_site_pbe_cm5_charge
 _atom_site_pbe_ddec_charge
 _atom_site_pbe_ddec_spin_density
 _atom_site_pbe_ddec_sum_bond_order
 _atom_site_pbe_magmom
Zn  Zn0  1  0.99132742  0.26728249  0.20485095  1  1.36585  0  0.719791  0.997591  0  2.311273  0
Zn  Zn1  1  0.50866944  0.79515095  0.73271612  1  1.365936  0  0.720069  0.99785  0  2.310365  0
Zn  Zn2  1  0.00867248  0.73271886  0.79515012  1  1.365838  0  0.719693  0.997556  0  2.311555  0
Zn  Zn3  1  0.49132816  0.20484956  0.26728190  1  1.365876  0  0.719975  0.997779  0  2.310564  0
H  H4  1  0.15093525  0.54116820  0.04149201  1  0.134652  0  0.11327  0.130362  0  0.993294  0
H  H5  1  0.56045362  0.71474848  0.00908550  1  0.10986  0  0.114393  0.135175  0  0.979722  0
H  H6  1  0.52142251  0.44272236  0.24881507  1  0.087462  0  0.104933  0.113557  0  1.04787  0
H  H7  1  0.78387835  0.46152824  0.25242468  1  0.072226  0  0.102306  0.080867  0  1.009494  0
H  H8  1  0.63428333  0.54849695  0.31456690  1  0.068611  0  0.100399  0.071467  0  1.018479  0
H  H9  1  0.95808168  0.43709523  0.38845744  1  0.043149  0  0.099196  0.104166  0  1.012468  0
H  H10  1  0.19807173  0.48931764  0.43720592  1  0.037244  0  0.094873  0.089593  0  1.055813  0
H  H11  1  0.11907066  0.77507624  0.21821881  1  0.051658  0  0.101373  0.100069  0  1.004675  0
H  H12  1  0.88119557  0.72029641  0.16784984  1  0.08495  0  0.106897  0.112239  0  0.996412  0
H  H13  1  0.34906118  0.95850410  0.45883518  1  0.134172  0  0.11324  0.130323  0  0.993392  0
H  H14  1  0.93954845  0.99091380  0.28524977  1  0.109864  0  0.114403  0.135179  0  0.979709  0
H  H15  1  0.97857400  0.75118278  0.55727689  1  0.087142  0  0.104923  0.113473  0  1.04794  0
H  H16  1  0.71612226  0.74757726  0.53847182  1  0.072243  0  0.10229  0.080852  0  1.009519  0
H  H17  1  0.86571503  0.68543419  0.45150317  1  0.068665  0  0.100388  0.071478  0  1.018451  0
H  H18  1  0.54191864  0.61153851  0.56290879  1  0.043102  0  0.099196  0.104184  0  1.012437  0
H  H19  1  0.30193332  0.56278752  0.51068063  1  0.035657  0  0.094861  0.089613  0  1.055744  0
H  H20  1  0.38092777  0.78178205  0.22492616  1  0.051438  0  0.101369  0.100104  0  1.004589  0
H  H21  1  0.61879740  0.83215043  0.27970899  1  0.084986  0  0.106909  0.112282  0  0.996448  0
H  H22  1  0.84906283  0.45883986  0.95850437  1  0.134213  0  0.11326  0.130314  0  0.993333  0
H  H23  1  0.43954954  0.28525515  0.99091522  1  0.109868  0  0.114388  0.13513  0  0.979783  0
H  H24  1  0.47857226  0.55728349  0.75118379  1  0.087354  0  0.10492  0.113555  0  1.047892  0
H  H25  1  0.21612072  0.53847155  0.74757482  1  0.072243  0  0.102317  0.080875  0  1.009512  0
H  H26  1  0.36571575  0.45150284  0.68543260  1  0.068611  0  0.100397  0.071471  0  1.018489  0
H  H27  1  0.04191848  0.56290531  0.61154170  1  0.043156  0  0.099196  0.104174  0  1.012474  0
H  H28  1  0.80192732  0.51067760  0.56279426  1  0.035663  0  0.094874  0.089578  0  1.055783  0
H  H29  1  0.88092740  0.22492219  0.78178693  1  0.051257  0  0.101392  0.100127  0  1.00469  0
H  H30  1  0.11880280  0.27970571  0.83215189  1  0.084945  0  0.106904  0.11227  0  0.99637  0
H  H31  1  0.65094510  0.04148825  0.54117006  1  0.134606  0  0.113229  0.130291  0  0.99342  0
H  H32  1  0.06046171  0.00908365  0.71474703  1  0.109353  0  0.114409  0.135203  0  0.979695  0
H  H33  1  0.02141639  0.24882008  0.44272410  1  0.08712  0  0.104959  0.113512  0  1.047914  0
H  H34  1  0.28387814  0.25242250  0.46152682  1  0.072234  0  0.102284  0.080841  0  1.00953  0
H  H35  1  0.13428471  0.31456330  0.54849553  1  0.068693  0  0.100407  0.0715  0  1.018457  0
H  H36  1  0.45808861  0.38845525  0.43709233  1  0.043148  0  0.099193  0.104175  0  1.012444  0
H  H37  1  0.69807023  0.43720550  0.48932114  1  0.036919  0  0.094888  0.089593  0  1.05581  0
H  H38  1  0.61906988  0.21821330  0.77507843  1  0.051532  0  0.101391  0.100134  0  1.004676  0
H  H39  1  0.38119877  0.16784564  0.72029412  1  0.084892  0  0.10692  0.112298  0  0.996476  0
C  C40  1  0.24676679  0.39151721  0.19992234  1  1.542724  0  0.229184  0.609425  0  4.154567  0
C  C41  1  0.32945029  0.48323254  0.14975080  1  0.002985  0  -0.020408  -0.029553  0  4.009284  0
C  C42  1  0.26413395  0.55250822  0.06734583  1  -0.025173  0  -0.075887  -0.105933  0  3.924028  0
C  C43  1  0.34778441  0.63585544  0.01678785  1  -0.006031  0  -0.019237  -0.036017  0  4.005302  0
C  C44  1  0.49420531  0.65045145  0.04910894  1  -0.020742  0  -0.0818  -0.184326  0  3.908839  0
C  C45  1  0.55687334  0.58196935  0.13343831  1  0.517165  0  0.08826  0.261393  0  4.061451  0
C  C46  1  0.47469857  0.49798017  0.18393303  1  -0.032606  0  -0.094282  -0.217756  0  3.940085  0
C  C47  1  0.28294948  0.70627503  0.92500760  1  1.557388  0  0.232277  0.628827  0  4.149735  0
C  C48  1  0.74871582  0.54158393  0.25396857  1  0.422068  0  -0.060607  -0.018302  0  3.908969  0
C  C49  1  0.90043460  0.57601775  0.27601841  1  -0.029591  0  -0.01186  0.087701  0  3.975598  0
C  C50  1  0.99194174  0.51201289  0.35173757  1  0.002282  0  -0.100463  -0.143186  0  4.006041  0
C  C51  1  0.12802843  0.54185443  0.37920242  1  -0.126102  0  -0.095112  -0.129703  0  4.003948  0
C  C52  1  0.17806326  0.63697618  0.33216976  1  0.046694  0  -0.016061  0.048353  0  4.018488  0
C  C53  1  0.08630160  0.70015507  0.25551845  1  -0.018686  0  -0.086642  -0.114001  0  3.973931  0
C  C54  1  0.95025875  0.67017127  0.22751586  1  -0.061842  0  -0.088086  -0.121521  0  3.977351  0
C  C55  1  0.25324554  0.80008558  0.60847541  1  1.542824  0  0.229325  0.609664  0  4.154696  0
C  C56  1  0.17053952  0.85024572  0.51676644  1  0.002917  0  -0.020391  -0.029622  0  4.009409  0
C  C57  1  0.23587275  0.93265340  0.44749248  1  -0.024677  0  -0.075871  -0.105928  0  3.92379  0
C  C58  1  0.15221420  0.98320856  0.36414069  1  -0.00635  0  -0.019227  -0.03609  0  4.005327  0
C  C59  1  0.00580402  0.95088677  0.34954709  1  -0.020453  0  -0.081818  -0.184303  0  3.909075  0
C  C60  1  0.94313071  0.86655959  0.41802563  1  0.516632  0  0.088269  0.261359  0  4.061416  0
C  C61  1  0.02530589  0.81606584  0.50201717  1  -0.032295  0  -0.094223  -0.217542  0  3.9403  0
C  C62  1  0.21708462  0.07498726  0.29373726  1  1.557641  0  0.232172  0.628884  0  4.149956  0
C  C63  1  0.75127941  0.74603289  0.45841836  1  0.421484  0  -0.060559  -0.018293  0  3.90887  0
C  C64  1  0.59955945  0.72398043  0.42398776  1  -0.029298  0  -0.011848  0.087724  0  3.975481  0
C  C65  1  0.50805737  0.64826118  0.48799012  1  0.002385  0  -0.10044  -0.143132  0  4.00597  0
C  C66  1  0.37197221  0.62079430  0.45814788  1  -0.125868  0  -0.095131  -0.129826  0  4.003715  0
C  C67  1  0.32193114  0.66783186  0.36302223  1  0.008173  0  -0.016033  0.048443  0  4.018363  0
C  C68  1  0.41369358  0.74448154  0.29984875  1  -0.018676  0  -0.086684  -0.114105  0  3.973957  0
C  C69  1  0.54973708  0.77248612  0.32983063  1  -0.061357  0  -0.088135  -0.121643  0  3.977279  0
C  C70  1  0.75322024  0.60848857  0.80007457  1  1.542756  0  0.229073  0.609236  0  4.15499  0
C  C71  1  0.67054495  0.51677174  0.85024634  1  0.002465  0  -0.020414  -0.029514  0  4.009551  0
C  C72  1  0.73586563  0.44749910  0.93265131  1  -0.024333  0  -0.0759  -0.10589  0  3.924082  0
C  C73  1  0.65221755  0.36414807  0.98320876  1  -0.006211  0  -0.019262  -0.036113  0  4.00548  0
C  C74  1  0.50579898  0.34955289  0.95089000  1  -0.020545  0  -0.08178  -0.184275  0  3.908998  0
C  C75  1  0.44312772  0.41803267  0.86655956  1  0.51708  0  0.088233  0.261411  0  4.061457  0
C  C76  1  0.52529641  0.50202492  0.81606604  1  -0.032568  0  -0.094204  -0.217734  0  3.940203  0
C  C77  1  0.71706416  0.29373306  0.07498912  1  1.557519  0  0.232259  0.628837  0  4.149804  0
C  C78  1  0.25128174  0.45841662  0.74603088  1  0.42156  0  -0.06059  -0.018285  0  3.909016  0
C  C79  1  0.09956384  0.42398430  0.72398047  1  -0.029277  0  -0.01193  0.087649  0  3.975588  0
C  C80  1  0.00805559  0.48798843  0.64826238  1  0.002469  0  -0.100431  -0.143206  0  4.005974  0
C  C81  1  0.87197277  0.45814235  0.62079847  1  -0.125884  0  -0.095127  -0.129657  0  4.003849  0
C  C82  1  0.82193316  0.36302367  0.66783217  1  0.046556  0  -0.016057  0.048363  0  4.01844  0
C  C83  1  0.91369651  0.29984331  0.74448516  1  -0.018588  0  -0.086684  -0.114101  0  3.973828  0
C  C84  1  0.04974115  0.32983008  0.77248521  1  -0.061812  0  -0.088065  -0.121533  0  3.977188  0
C  C85  1  0.74675249  0.19991340  0.39152232  1  1.542561  0  0.229237  0.609418  0  4.15479  0
C  C86  1  0.82945742  0.14975251  0.48323164  1  0.003007  0  -0.020358  -0.029548  0  4.009392  0
C  C87  1  0.76413088  0.06734410  0.55250648  1  -0.025138  0  -0.075867  -0.105861  0  3.923748  0
C  C88  1  0.84779331  0.01678895  0.63585854  1  -0.006316  0  -0.019227  -0.036132  0  4.005327  0
C  C89  1  0.99420356  0.04911067  0.65044930  1  -0.019986  0  -0.081879  -0.184437  0  3.909195  0
C  C90  1  0.05687401  0.13343866  0.58197298  1  0.516584  0  0.088309  0.261478  0  4.061467  0
C  C91  1  0.97469341  0.18393318  0.49798183  1  -0.032137  0  -0.094324  -0.217673  0  3.940279  0
C  C92  1  0.78291837  0.92501250  0.70626108  1  1.557366  0  0.232433  0.629221  0  4.150005  0
C  C93  1  0.24872116  0.25396616  0.54158191  1  0.421937  0  -0.060578  -0.018341  0  3.909058  0
C  C94  1  0.40043891  0.27601716  0.57601464  1  -0.029736  0  -0.011945  0.08767  0  3.975522  0
C  C95  1  0.49194419  0.35173417  0.51201403  1  0.002539  0  -0.100418  -0.143155  0  4.005925  0
C  C96  1  0.62802762  0.37920256  0.54185600  1  -0.125736  0  -0.095134  -0.129742  0  4.003677  0
C  C97  1  0.67806289  0.33216724  0.63698020  1  0.008363  0  -0.016064  0.048399  0  4.018307  0
C  C98  1  0.58630343  0.25551610  0.70015593  1  -0.018516  0  -0.086666  -0.114083  0  3.97401  0
C  C99  1  0.45025994  0.22751150  0.67017334  1  -0.061523  0  -0.088091  -0.121618  0  3.977318  0
O  O100  1  0.11367591  0.38329844  0.16599107  1  -1.151839  0  -0.301428  -0.529606  0  2.353524  0
O  O101  1  0.30996815  0.32586023  0.27359719  1  -1.210413  0  -0.336886  -0.612325  0  2.39948  0
O  O102  1  0.13421271  0.69711008  0.90977918  1  -1.17404  0  -0.309672  -0.542154  0  2.356158  0
O  O103  1  0.37949486  0.77056201  0.86934551  1  -1.199317  0  -0.334411  -0.595777  0  2.375186  0
O  O104  1  0.69954716  0.60241956  0.16010707  1  -1.070754  0  -0.174351  -0.190658  0  2.549929  0
O  O105  1  0.38630129  0.83400223  0.61669990  1  -1.152001  0  -0.301569  -0.529709  0  2.354416  0
O  O106  1  0.19001786  0.72639384  0.67414323  1  -1.210247  0  -0.336956  -0.61252  0  2.39901  0
O  O107  1  0.36576772  0.09021692  0.30288629  1  -1.174376  0  -0.30938  -0.541795  0  2.357704  0
O  O108  1  0.12048905  0.13066230  0.22943334  1  -1.19918  0  -0.334608  -0.596147  0  2.373856  0
O  O109  1  0.80045291  0.83989178  0.39757885  1  -1.070304  0  -0.17439  -0.190672  0  2.54988  0
O  O110  1  0.88631759  0.61670737  0.83400652  1  -1.151677  0  -0.301343  -0.529473  0  2.353541  0
O  O111  1  0.69002882  0.67414254  0.72640022  1  -1.210476  0  -0.336847  -0.612268  0  2.399773  0
O  O112  1  0.86578842  0.30288732  0.09021582  1  -1.174184  0  -0.309588  -0.541977  0  2.356523  0
O  O113  1  0.62050116  0.22944389  0.13065533  1  -1.199238  0  -0.334505  -0.595922  0  2.374849  0
O  O114  1  0.30045427  0.39758101  0.83989335  1  -1.070696  0  -0.174358  -0.190676  0  2.54998  0
O  O115  1  0.61368496  0.16599685  0.38330201  1  -1.15188  0  -0.30145  -0.52957  0  2.354185  0
O  O116  1  0.80997366  0.27360059  0.32585520  1  -1.210182  0  -0.336956  -0.612415  0  2.399199  0
O  O117  1  0.63424766  0.90977998  0.69711865  1  -1.17426  0  -0.309583  -0.541933  0  2.358143  0
O  O118  1  0.87953575  0.86933828  0.77056653  1  -1.19906  0  -0.334674  -0.596338  0  2.373649  0
O  O119  1  0.19955033  0.16010719  0.60241828  1  -1.070334  0  -0.174351  -0.190644  0  2.550077  0
