# generated using pymatgen
data_H12RhC16N3O4
_symmetry_space_group_name_H-M   'P 1'
_cell_length_a   9.55531956
_cell_length_b   10.19016471
_cell_length_c   10.63499833
_cell_angle_alpha   72.43233585
_cell_angle_beta   64.89181228
_cell_angle_gamma   63.14151959
_symmetry_Int_Tables_number   1
_chemical_formula_structural   H12RhC16N3O4
_chemical_formula_sum   'H24 Rh2 C32 N6 O8'
_cell_volume   828.72148761
_cell_formula_units_Z   2
loop_
 _symmetry_equiv_pos_site_id
 _symmetry_equiv_pos_as_xyz
  1  'x, y, z'
loop_
 _atom_site_type_symbol
 _atom_site_label
 _atom_site_symmetry_multiplicity
 _atom_site_fract_x
 _atom_site_fract_y
 _atom_site_fract_z
 _atom_site_occupancy
 _atom_site_pbe_bader_spin_density
 _atom_site_pbe_cm5_charge
 _atom_site_pbe_ddec_charge
 _atom_site_pbe_ddec_spin_density
 _atom_site_pbe_ddec_sum_bond_order
 _atom_site_pbe_magmom
H  H0  1  0.75539523  0.78189648  0.09164252  1  0  0.101168  0.098825  0  1.03259  0
H  H1  1  0.24461052  0.21809554  0.90835525  1  0  0.101112  0.098757  0  1.032676  0
H  H2  1  0.78948619  0.91932311  0.85111994  1  0  0.097496  0.093586  0  1.037577  0
H  H3  1  0.21051687  0.08066442  0.14887545  1  0  0.097547  0.093601  0  1.03752  0
H  H4  1  0.62653836  0.92505606  0.71685603  1  0  0.100431  0.097974  0  0.999033  0
H  H5  1  0.37345998  0.07493706  0.28314515  1  0  0.100442  0.097962  0  0.999009  0
H  H6  1  0.42678951  0.79451991  0.82686375  1  0  0.095915  0.091133  0  1.050165  0
H  H7  1  0.57320370  0.20547987  0.17313741  1  0  0.095931  0.09118  0  1.050148  0
H  H8  1  0.39073350  0.66056104  0.06906095  1  0  0.102489  0.100923  0  1.031628  0
H  H9  1  0.60926316  0.33943875  0.93094079  1  0  0.102513  0.100956  0  1.031574  0
H  H10  1  0.00450922  0.08433885  0.36797071  1  0  0.102388  0.103009  0  1.02151  0
H  H11  1  0.99548811  0.91565100  0.63204309  1  0  0.10241  0.103006  0  1.021564  0
H  H12  1  0.17627654  0.83389843  0.28624529  1  0  0.100853  0.108405  0  1.016636  0
H  H13  1  0.82371641  0.16609915  0.71376226  1  0  0.100823  0.108394  0  1.01658  0
H  H14  1  0.04041939  0.69845973  0.24966563  1  0  0.094349  0.083512  0  1.038108  0
H  H15  1  0.95958174  0.30154887  0.75031681  1  0  0.094332  0.083513  0  1.03819  0
H  H16  1  0.73202862  0.80120922  0.30868810  1  0  0.101859  0.111424  0  1.030163  0
H  H17  1  0.26797214  0.19880042  0.69128383  1  0  0.10188  0.111527  0  1.030156  0
H  H18  1  0.56296313  0.05090155  0.38869986  1  0  0.102107  0.100707  0  1.035735  0
H  H19  1  0.43703614  0.94910595  0.61128643  1  0  0.102014  0.100558  0  1.035749  0
H  H20  1  0.00454063  0.38198059  0.32978687  1  0  0.123055  0.103687  0  0.995956  0
H  H21  1  0.99546436  0.61802932  0.67022384  1  0  0.122981  0.103571  0  0.995951  0
H  H22  1  0.27053354  0.36865113  0.33849412  1  0  0.121599  0.101082  0  1.015724  0
H  H23  1  0.72947545  0.63135209  0.66151327  1  0  0.121617  0.101087  0  1.015785  0
Rh  Rh24  1  0.62490131  0.50657972  0.49701654  1  0  0.646819  0.542152  0  3.780876  0
Rh  Rh25  1  0.37510225  0.49342010  0.50298541  1  0  0.646882  0.542354  0  3.780974  0
C  C26  1  0.54915113  0.63221248  0.23982290  1  0  0.208495  0.527885  0  4.142064  0
C  C27  1  0.45085569  0.36778512  0.76017754  1  0  0.208533  0.527914  0  4.142154  0
C  C28  1  0.57106713  0.71292670  0.09509987  1  0  -0.027363  -0.049877  0  4.011269  0
C  C29  1  0.42893325  0.28706977  0.90490144  1  0  -0.027332  -0.049761  0  4.011376  0
C  C30  1  0.68390060  0.78539354  0.03293812  1  0  -0.08441  -0.093502  0  3.980349  0
C  C31  1  0.31609730  0.21460067  0.96706008  1  0  -0.084358  -0.093438  0  3.980289  0
C  C32  1  0.70299190  0.86188653  0.89766750  1  0  -0.092529  -0.085637  0  4.005597  0
C  C33  1  0.29701242  0.13810883  0.10233265  1  0  -0.092612  -0.085723  0  4.005717  0
C  C34  1  0.61091301  0.86527130  0.82305684  1  0  -0.08689  -0.070166  0  3.982932  0
C  C35  1  0.38907769  0.13472624  0.17694498  1  0  -0.086859  -0.07004  0  3.983061  0
C  C36  1  0.49878939  0.79239570  0.88451773  1  0  -0.095234  -0.089794  0  4.014591  0
C  C37  1  0.50120609  0.20760411  0.11548727  1  0  -0.095274  -0.089929  0  4.014403  0
C  C38  1  0.47805632  0.71714778  0.02029420  1  0  -0.08531  -0.096244  0  3.972516  0
C  C39  1  0.52193622  0.28285087  0.97970660  1  0  -0.085375  -0.096336  0  3.972556  0
C  C40  1  0.67479827  0.23510662  0.42048269  1  0  0.209282  0.528292  0  4.142306  0
C  C41  1  0.32521173  0.76489434  0.57951839  1  0  0.209165  0.528209  0  4.142356  0
C  C42  1  0.77469538  0.08394183  0.37880752  1  0  -0.026637  -0.053596  0  4.016619  0
C  C43  1  0.22530659  0.91605907  0.62119096  1  0  -0.026675  -0.053677  0  4.016561  0
C  C44  1  0.94735150  0.02217378  0.35192789  1  0  -0.08701  -0.099393  0  3.9786  0
C  C45  1  0.05264377  0.97782380  0.64807784  1  0  -0.08698  -0.099343  0  3.978645  0
C  C46  1  0.04240055  0.88357923  0.30595734  1  0  -0.094075  -0.082927  0  3.987861  0
C  C47  1  0.95760006  0.11641945  0.69404230  1  0  -0.094085  -0.082974  0  3.987978  0
C  C48  1  0.96525091  0.80620896  0.28695981  1  0  -0.08592  -0.067726  0  3.99613  0
C  C49  1  0.03474370  0.19379856  0.71303199  1  0  -0.085825  -0.067585  0  3.995776  0
C  C50  1  0.79258750  0.86457986  0.31820410  1  0  -0.095416  -0.090833  0  3.990566  0
C  C51  1  0.20742096  0.13542769  0.68178342  1  0  -0.095486  -0.091042  0  3.990364  0
C  C52  1  0.69753842  0.00331071  0.36394655  1  0  -0.085903  -0.097495  0  3.975341  0
C  C53  1  0.30245596  0.99669459  0.63604786  1  0  -0.085814  -0.097271  0  3.975307  0
C  C54  1  0.00284838  0.43511589  0.40567129  1  0  0.052517  0.034716  0  3.914337  0
C  C55  1  0.99714346  0.56489509  0.59434123  1  0  0.052584  0.03485  0  3.913946  0
C  C56  1  0.14912859  0.42738236  0.41078691  1  0  0.047447  0.02565  0  3.930671  0
C  C57  1  0.85086858  0.57262419  0.58922584  1  0  0.047448  0.025687  0  3.930811  0
N  N58  1  0.85251558  0.50790427  0.49490783  1  0  -0.320768  -0.141825  0  3.560936  0
N  N59  1  0.14749427  0.49210231  0.50510201  1  0  -0.320875  -0.141958  0  3.560851  0
N  N60  1  0.90174921  0.36589893  0.07792322  1  0  0.023331  0.0316  0  2.840271  0
N  N61  1  0.09825584  0.63409751  0.92207165  1  0  0.023369  0.03162  0  2.840226  0
N  N62  1  0.82190551  0.34179729  0.04333779  1  0  0.022319  0.017635  0  2.819787  0
N  N63  1  0.17810184  0.65819916  0.95665620  1  0  0.022282  0.017634  0  2.819721  0
O  O64  1  0.65690377  0.60798378  0.29434516  1  0  -0.295889  -0.449613  0  2.462463  0
O  O65  1  0.34308877  0.39201487  0.70565565  1  0  -0.295921  -0.449703  0  2.462108  0
O  O66  1  0.42315262  0.59278086  0.29987321  1  0  -0.296165  -0.440516  0  2.449202  0
O  O67  1  0.57684016  0.40721447  0.70013036  1  0  -0.296123  -0.440469  0  2.449701  0
O  O68  1  0.75310446  0.30176603  0.43365845  1  0  -0.297267  -0.449052  0  2.477631  0
O  O69  1  0.24689547  0.69823153  0.56634083  1  0  -0.297192  -0.449039  0  2.47746  0
O  O70  1  0.51840908  0.28847812  0.43862037  1  0  -0.29713  -0.444091  0  2.440221  0
O  O71  1  0.48158710  0.71152279  0.56138217  1  0  -0.297083  -0.444002  0  2.440378  0
