# generated using pymatgen
data_Mo3H16C24N4O9
_symmetry_space_group_name_H-M   'P 1'
_cell_length_a   8.88225944
_cell_length_b   8.88223749
_cell_length_c   10.32214264
_cell_angle_alpha   66.82181354
_cell_angle_beta   66.82194408
_cell_angle_gamma   65.77835823
_symmetry_Int_Tables_number   1
_chemical_formula_structural   Mo3H16C24N4O9
_chemical_formula_sum   'Mo3 H16 C24 N4 O9'
_cell_volume   656.03405187
_cell_formula_units_Z   1
loop_
 _symmetry_equiv_pos_site_id
 _symmetry_equiv_pos_as_xyz
  1  'x, y, z'
loop_
 _atom_site_type_symbol
 _atom_site_label
 _atom_site_symmetry_multiplicity
 _atom_site_fract_x
 _atom_site_fract_y
 _atom_site_fract_z
 _atom_site_occupancy
 _atom_site_pbe_bader_spin_density
 _atom_site_pbe_cm5_charge
 _atom_site_pbe_ddec_charge
 _atom_site_pbe_ddec_spin_density
 _atom_site_pbe_ddec_sum_bond_order
 _atom_site_pbe_magmom
Mo  Mo0  1  0.97833935  0.03763239  0.67685817  1  0  1.558758  2.027534  0  4.806244  0
Mo  Mo1  1  0.96236999  0.02166154  0.32314118  1  0  1.558711  2.027469  0  4.806306  0
Mo  Mo2  1  0.15391663  0.84608406  0.99999977  1  0  1.512637  2.074999  0  4.86113  0
H  H3  1  0.66167583  0.86534159  0.81974842  1  0  0.12277  0.10504  0  0.989057  0
H  H4  1  0.13466268  0.33832544  0.18025154  1  0  0.12276  0.105022  0  0.989027  0
H  H5  1  0.61431215  0.58090807  0.91771954  1  0  0.109361  0.120532  0  1.011828  0
H  H6  1  0.41909596  0.38568763  0.08228113  1  0  0.109354  0.120518  0  1.011838  0
H  H7  1  0.87205500  0.31234004  0.92316374  1  0  0.114698  0.118272  0  0.988817  0
H  H8  1  0.68766048  0.12794505  0.07683732  1  0  0.114695  0.118278  0  0.988815  0
H  H9  1  0.19435503  0.18604801  0.86439029  1  0  0.101252  0.09566  0  1.047195  0
H  H10  1  0.81395266  0.80564239  0.13561134  1  0  0.101239  0.095629  0  1.047131  0
H  H11  1  0.48177193  0.22876053  0.76574856  1  0  0.108421  0.133664  0  1.011674  0
H  H12  1  0.77123693  0.51822605  0.23425119  1  0  0.108417  0.133638  0  1.011667  0
H  H13  1  0.66058362  0.42870936  0.64504193  1  0  0.113095  0.125589  0  1.007988  0
H  H14  1  0.57128803  0.33941352  0.35495715  1  0  0.113041  0.125543  0  1.00801  0
H  H15  1  0.67081864  0.73684026  0.53586631  1  0  0.106918  0.13291  0  1.030679  0
H  H16  1  0.26315758  0.32918097  0.46413357  1  0  0.106903  0.132897  0  1.030687  0
H  H17  1  0.39598076  0.97486922  0.54578764  1  0  0.125151  0.099866  0  0.970345  0
H  H18  1  0.02513150  0.60401926  0.45421281  1  0  0.125145  0.099856  0  0.970332  0
C  C19  1  0.77098532  0.74904958  0.81992289  1  0  0.064698  0.126998  0  3.899314  0
C  C20  1  0.25095292  0.22901478  0.18007819  1  0  0.064708  0.127034  0  3.899325  0
C  C21  1  0.74569514  0.58634120  0.87649822  1  0  -0.077308  -0.118112  0  3.954506  0
C  C22  1  0.41366055  0.25430505  0.12350218  1  0  -0.077317  -0.118162  0  3.954547  0
C  C23  1  0.88649567  0.44071515  0.87853911  1  0  -0.051145  -0.050014  0  3.883973  0
C  C24  1  0.55928803  0.11350142  0.12146200  1  0  -0.051119  -0.049968  0  3.883819  0
C  C25  1  0.05337222  0.45801359  0.82212106  1  0  0.006116  0.052686  0  3.984717  0
C  C26  1  0.54198659  0.94662713  0.17787988  1  0  0.006101  0.052667  0  3.984669  0
C  C27  1  0.06712511  0.62709642  0.76488889  1  0  0.117226  0.126668  0  3.97409  0
C  C28  1  0.37290473  0.93287488  0.23511143  1  0  0.117215  0.126645  0  3.974095  0
C  C29  1  0.20644548  0.31500134  0.82027356  1  0  -0.077103  -0.094194  0  3.959718  0
C  C30  1  0.68499822  0.79355235  0.17972825  1  0  -0.077104  -0.09419  0  3.959727  0
C  C31  1  0.36511506  0.33784178  0.76529443  1  0  -0.078853  -0.116161  0  3.942114  0
C  C32  1  0.66215758  0.63488384  0.23470522  1  0  -0.078811  -0.116042  0  3.942118  0
C  C33  1  0.38319392  0.50691100  0.70506350  1  0  0.00203  0.049195  0  3.999207  0
C  C34  1  0.49308860  0.61680473  0.29493511  1  0  0.002  0.049098  0  3.999215  0
C  C35  1  0.23397322  0.65182163  0.70367762  1  0  0.113101  0.115231  0  3.997031  0
C  C36  1  0.34817865  0.76602574  0.29632245  1  0  0.113123  0.115246  0  3.99705  0
C  C37  1  0.54415413  0.53832930  0.64423901  1  0  -0.055918  -0.062595  0  3.884039  0
C  C38  1  0.46167060  0.45584522  0.35575932  1  0  -0.055831  -0.062456  0  3.883888  0
C  C39  1  0.55025503  0.70559109  0.58576156  1  0  -0.080412  -0.121177  0  3.95057  0
C  C40  1  0.29440842  0.44974419  0.41423687  1  0  -0.080432  -0.121225  0  3.950513  0
C  C41  1  0.39600869  0.84144206  0.58908525  1  0  0.061289  0.126208  0  3.925128  0
C  C42  1  0.15855788  0.60399055  0.41091482  1  0  0.061291  0.12621  0  3.925148  0
N  N43  1  0.92705577  0.76865692  0.76569852  1  0  -0.332597  -0.304379  0  3.52943  0
N  N44  1  0.23134530  0.07294516  0.23430147  1  0  -0.332593  -0.304364  0  3.529422  0
N  N45  1  0.24235684  0.81557108  0.64625499  1  0  -0.340821  -0.340046  0  3.581464  0
N  N46  1  0.18442951  0.75764289  0.35374464  1  0  -0.340821  -0.340032  0  3.581487  0
O  O47  1  0.76335525  0.14047837  0.74165401  1  0  -0.516809  -0.663998  0  1.694714  0
O  O48  1  0.85952336  0.23664609  0.25834526  1  0  -0.516804  -0.663989  0  1.694766  0
O  O49  1  0.08669456  0.18703205  0.61003549  1  0  -0.520527  -0.667768  0  1.683784  0
O  O50  1  0.81297014  0.91330511  0.38996578  1  0  -0.520497  -0.667727  0  1.683749  0
O  O51  1  0.98091603  0.01908460  0.49999954  1  0  -0.602849  -0.884709  0  2.252166  0
O  O52  1  0.01868805  0.94247091  0.87518085  1  0  -0.604942  -0.894617  0  2.160315  0
O  O53  1  0.05752966  0.98131234  0.12481936  1  0  -0.604937  -0.894596  0  2.160289  0
O  O54  1  0.15278455  0.63644427  0.09181520  1  0  -0.543343  -0.718151  0  1.648806  0
O  O55  1  0.36355426  0.84721637  0.90818574  1  0  -0.543331  -0.718129  0  1.648808  0
