# generated using pymatgen
data_MnH2(C3O2)2
_symmetry_space_group_name_H-M   'P 1'
_cell_length_a   6.58814369
_cell_length_b   11.35933574
_cell_length_c   11.31259340
_cell_angle_alpha   111.42179512
_cell_angle_beta   90.03226649
_cell_angle_gamma   90.00072168
_symmetry_Int_Tables_number   1
_chemical_formula_structural   MnH2(C3O2)2
_chemical_formula_sum   'Mn6 H12 C36 O24'
_cell_volume   788.11398396
_cell_formula_units_Z   6
loop_
 _symmetry_equiv_pos_site_id
 _symmetry_equiv_pos_as_xyz
  1  'x, y, z'
loop_
 _atom_site_type_symbol
 _atom_site_label
 _atom_site_symmetry_multiplicity
 _atom_site_fract_x
 _atom_site_fract_y
 _atom_site_fract_z
 _atom_site_occupancy
 _atom_site_hle17_ddec_charge
 _atom_site_hle17_ddec_spin_density
 _atom_site_hle17_ddec_sum_bond_order
 _atom_site_hle17_magmom
 _atom_site_hse06_10hf_ddec_charge
 _atom_site_hse06_10hf_ddec_spin_density
 _atom_site_hse06_10hf_ddec_sum_bond_order
 _atom_site_hse06_10hf_magmom
 _atom_site_hse06_ddec_charge
 _atom_site_hse06_ddec_spin_density
 _atom_site_hse06_ddec_sum_bond_order
 _atom_site_hse06_magmom
 _atom_site_pbe_cm5_charge
 _atom_site_pbe_ddec_charge
 _atom_site_pbe_ddec_spin_density
 _atom_site_pbe_ddec_sum_bond_order
 _atom_site_pbe_magmom
Mn  Mn0  1  0.71718975  0.17677610  0.27381993  1  1.275807  -4.792652  1.6077  -4.682  1.118124  -4.707126  2.091746  -4.54  1.185872  -4.763959  2.011994  -4.607  0.622934  1.062713  -4.642394  2.15186  -4.467
Mn  Mn1  1  0.21846730  0.32269614  0.22477548  1  1.279442  4.800905  1.603018  4.686  1.122387  4.731023  2.084124  4.551  1.188751  4.77369  2.005883  4.612  0.625592  1.069573  4.685162  2.141951  4.489
Mn  Mn2  1  0.28131773  0.82262649  0.72492489  1  1.280774  4.801435  1.600304  4.688  1.124061  4.732746  2.080794  4.555  1.190074  4.773609  2.002836  4.614  0.626044  1.072031  4.690206  2.137947  4.495
Mn  Mn3  1  0.78102772  0.67770697  0.77591180  1  1.281374  4.797847  1.600747  4.687  1.124797  4.729484  2.081688  4.554  1.190841  4.770386  2.003615  4.614  0.626476  1.072663  4.686872  2.139087  4.495
Mn  Mn4  1  0.99959972  0.49991955  0.49970317  1  1.237786  4.780581  1.828589  4.672  1.088183  4.697146  2.337135  4.531  1.146683  4.742863  2.259658  4.595  0.607397  1.044306  4.647334  2.393331  4.465
Mn  Mn5  1  0.50145164  0.00144500  0.00167568  1  1.236919  4.759125  1.829869  4.671  1.087468  4.67345  2.340538  4.528  1.145958  4.721072  2.262414  4.593  0.608291  1.04371  4.620651  2.397431  4.46
H  H6  1  0.66360478  0.65531961  0.02920795  1  0.112846  0.000233  0.946879  0.0  0.118924  0.000876  1.015365  0.0  0.123389  0.000642  1.010609  0.0  0.113122  0.115641  0.001109  1.018909  0.0
H  H7  1  0.16359906  0.84440858  0.47090867  1  0.11285  0.000141  0.947291  0.0  0.119029  0.00081  1.015458  0.0  0.12355  0.00057  1.010664  0.0  0.113068  0.115664  0.00105  1.019123  0.0
H  H8  1  0.33652133  0.34428461  0.97073713  1  0.11249  0.000278  0.946955  0.0  0.118604  0.000923  1.015441  0.0  0.123136  0.000694  1.01062  0.0  0.11277  0.115301  0.001149  1.019044  0.0
H  H9  1  0.83637220  0.15565866  0.52898632  1  0.113141  -0.000651  0.946296  0.0  0.11965  -0.001088  1.013953  0.0  0.124158  -0.00097  1.009166  0.0  0.113296  0.116373  -0.001176  1.017525  0.0
H  H10  1  0.65907906  0.45628779  0.07232246  1  0.100911  -0.000101  0.957967  0.0  0.111652  -0.000167  1.018913  0.0  0.114217  -0.00016  1.018357  0.0  0.108996  0.109767  -0.000163  1.019513  0.0
H  H11  1  0.15855161  0.04356493  0.42795704  1  0.10086  0.000148  0.957754  0.0  0.111011  0.000173  1.019401  0.0  0.113544  0.000142  1.018926  0.0  0.108805  0.109159  0.000211  1.019951  0.0
H  H12  1  0.34079205  0.54338164  0.92764261  1  0.100988  -0.000358  0.956993  0.0  0.111254  -0.000392  1.018516  0.0  0.113722  -0.000408  1.018101  0.0  0.108824  0.109415  -0.00036  1.01907  0.0
H  H13  1  0.84084144  0.95654973  0.57214594  1  0.100995  -0.00028  0.9575  0.0  0.111206  -0.000281  1.019125  0.0  0.11375  -0.00032  1.018629  0.0  0.108759  0.10936  -0.000226  1.019679  0.0
H  H14  1  0.62540934  0.86746646  0.42941490  1  0.111139  -0.000118  0.949692  0.0  0.120178  -4.7e-05  1.012553  0.0  0.123802  -5.7e-05  1.010035  0.0  0.111671  0.117535  -2.3e-05  1.014488  0.0
H  H15  1  0.12575330  0.63242057  0.07060135  1  0.111389  -0.000354  0.949165  0.0  0.120355  -0.000281  1.012099  0.0  0.124041  -0.000338  1.009479  0.0  0.111714  0.117642  -0.000205  1.01413  0.0
H  H16  1  0.37494902  0.13212764  0.57057075  1  0.111031  3.7e-05  0.950307  0.0  0.120287  0.000134  1.012839  0.0  0.124001  9.4e-05  1.010239  0.0  0.111921  0.117599  0.000187  1.014838  0.0
H  H17  1  0.87475523  0.36783557  0.92915870  1  0.111401  -0.000301  0.949499  0.0  0.120462  -0.000255  1.012367  0.0  0.124194  -0.000313  1.009725  0.0  0.111828  0.11776  -0.000178  1.014376  0.0
C  C18  1  0.65288879  0.77477663  0.22750046  1  -0.060763  -0.001227  3.753288  -0.001  -0.035905  -0.00074  3.984111  -0.001  -0.044225  -0.0009  4.007455  -0.001  -0.010767  -0.030718  -0.000537  3.969274  -0.001
C  C19  1  0.15276724  0.72509796  0.27259296  1  -0.061658  0.001249  3.752251  0.001  -0.037383  0.001481  3.983851  0.001  -0.045622  0.000672  4.007129  0.001  -0.011203  -0.03231  0.002347  3.969053  0.002
C  C20  1  0.34744376  0.22484850  0.77246723  1  -0.062416  0.002801  3.752989  0.003  -0.038124  0.002853  3.984574  0.002  -0.046406  0.001905  4.007922  0.002  -0.011441  -0.03303  0.004093  3.969787  0.003
C  C21  1  0.84718429  0.27506546  0.72729171  1  -0.06243  0.002303  3.754024  0.002  -0.037677  0.00259  3.984986  0.002  -0.045946  0.00157  4.008268  0.001  -0.011091  -0.032562  0.003857  3.970169  0.003
C  C22  1  0.65867644  0.65814028  0.12626296  1  -0.040514  0.00101  3.693492  0.001  -0.068401  0.001516  3.94918  0.002  -0.066398  0.001243  3.965895  0.001  -0.070548  -0.069761  0.002108  3.938335  0.002
C  C23  1  0.15848665  0.84170730  0.37390485  1  -0.040697  0.002055  3.693764  0.002  -0.068443  0.003489  3.949155  0.003  -0.066491  0.002609  3.965823  0.002  -0.070472  -0.069759  0.004842  3.938412  0.004
C  C24  1  0.34156502  0.34150360  0.87368586  1  -0.040338  0.000576  3.693787  0.001  -0.068121  0.001974  3.949263  0.002  -0.06616  0.001193  3.965902  0.001  -0.070267  -0.069491  0.003048  3.938503  0.003
C  C25  1  0.84139507  0.15842435  0.62603374  1  -0.039628  0.001327  3.692336  0.001  -0.067757  0.002609  3.947711  0.002  -0.065728  0.001758  3.964324  0.001  -0.069995  -0.069119  0.003866  3.936907  0.003
C  C26  1  0.65893748  0.54721756  0.15051036  1  -0.056806  -0.001487  3.691704  -0.001  -0.081913  -0.000945  3.946263  0.0  -0.083969  -0.00124  3.965545  -0.001  -0.07525  -0.080693  -0.000645  3.933665  0.0
C  C27  1  0.15847155  0.95266629  0.34972364  1  -0.056583  -0.000368  3.691649  -0.001  -0.081218  0.000368  3.946089  0.0  -0.083246  3.5e-05  3.965365  0.0  -0.075047  -0.080016  0.000579  3.933398  0.0
C  C28  1  0.34119925  0.45242341  0.84942590  1  -0.057467  0.000475  3.691182  0.001  -0.08207  0.000897  3.945634  0.001  -0.084078  0.00039  3.964937  0.001  -0.075555  -0.080841  0.001545  3.93301  0.002
C  C29  1  0.84108844  0.04750376  0.65032955  1  -0.057336  0.000317  3.690267  0.001  -0.082119  0.001011  3.94511  0.001  -0.084246  0.000332  3.964383  0.001  -0.075203  -0.080838  0.001784  3.93247  0.002
C  C30  1  0.65943644  0.54877319  0.27521432  1  -0.058336  0.001853  3.691853  0.002  -0.045336  0.002356  3.927146  0.002  -0.04849  0.001888  3.945071  0.002  0.000354  -0.043414  0.003138  3.915878  0.003
C  C31  1  0.15893190  0.95114018  0.22505439  1  -0.058874  0.001455  3.692286  0.001  -0.045427  0.002996  3.927281  0.002  -0.048789  0.002131  3.945384  0.002  0.000366  -0.043153  0.004438  3.915737  0.003
C  C32  1  0.34080047  0.45085361  0.72471772  1  -0.057586  -0.002512  3.691103  -0.002  -0.04473  -0.000988  3.926298  -0.001  -0.04781  -0.001659  3.944092  -0.001  0.000357  -0.042917  9e-06  3.915188  0.0
C  C33  1  0.84059927  0.04911318  0.77504483  1  -0.05669  -0.00077  3.690537  0.0  -0.043824  0.001043  3.925821  0.001  -0.046835  4e-05  3.943551  0.001  0.000259  -0.042034  0.002498  3.914749  0.002
C  C34  1  0.64771617  0.66566698  0.37808734  1  -0.071044  -8.4e-05  3.673165  0.001  -0.056976  0.00047  3.910551  0.001  -0.063105  -0.000278  3.929592  0.0  -0.002738  -0.053284  0.00132  3.898666  0.001
C  C35  1  0.14777772  0.83430480  0.12213499  1  -0.070744  0.001074  3.673621  0.001  -0.05683  0.001889  3.911035  0.002  -0.062938  0.000919  3.930085  0.001  -0.002912  -0.053206  0.002886  3.899109  0.002
C  C36  1  0.35260574  0.33397405  0.62185517  1  -0.071371  0.00088  3.671782  0.001  -0.057254  0.00181  3.909719  0.002  -0.063414  0.001175  3.9287  0.001  -0.002511  -0.053463  0.002681  3.897893  0.003
C  C37  1  0.85246072  0.16599977  0.87783966  1  -0.071414  0.000686  3.674503  0.001  -0.058596  0.001515  3.914276  0.001  -0.064891  0.000703  3.933314  0.001  -0.002584  -0.054715  0.002484  3.902423  0.002
C  C38  1  0.64255428  0.77716175  0.35139486  1  -0.062456  0.002157  3.685901  0.002  -0.098448  0.00269  3.936421  0.002  -0.09693  0.002211  3.955209  0.002  -0.069007  -0.099435  0.003454  3.924414  0.003
C  C39  1  0.14266048  0.72274150  0.14869841  1  -0.062817  0.00166  3.686133  0.002  -0.098453  0.003095  3.936623  0.003  -0.096956  0.002313  3.95539  0.002  -0.069358  -0.099389  0.004204  3.92466  0.004
C  C40  1  0.35778434  0.22247183  0.64856528  1  -0.062458  0.00067  3.686717  0.0  -0.098391  0.002003  3.937211  0.001  -0.096969  0.001326  3.95595  0.001  -0.069619  -0.099301  0.002802  3.925217  0.002
C  C41  1  0.85760068  0.27748697  0.85117271  1  -0.062908  0.000629  3.68748  0.001  -0.098629  0.001974  3.938329  0.002  -0.097193  0.001307  3.957098  0.001  -0.069681  -0.099526  0.00286  3.926265  0.002
C  C42  1  0.64956122  0.89340218  0.19901241  1  0.668389  0.001682  3.886555  0.002  0.612937  0.002328  4.184354  0.003  0.648711  0.001581  4.179524  0.002  0.225038  0.587737  0.003326  4.186717  0.004
C  C43  1  0.14968019  0.60633897  0.30093798  1  0.669758  0.010127  3.883263  0.01  0.614328  0.017342  4.181298  0.015  0.650005  0.013395  4.176424  0.012  0.225762  0.589349  0.02146  4.183615  0.019
C  C44  1  0.35044500  0.10620802  0.80098695  1  0.671032  0.009821  3.884049  0.009  0.615648  0.017095  4.181691  0.015  0.651338  0.013148  4.176791  0.012  0.226142  0.59067  0.021179  4.184016  0.018
C  C45  1  0.85032449  0.39382385  0.69900394  1  0.67099  0.009824  3.883676  0.009  0.615336  0.017024  4.181733  0.015  0.651004  0.013115  4.176842  0.012  0.226166  0.590396  0.021088  4.183992  0.018
C  C46  1  0.66898426  0.41999854  0.28128833  1  0.696145  0.008633  3.794155  0.011  0.636317  0.01343  4.08653  0.015  0.674704  0.009432  4.077378  0.012  0.245291  0.608769  0.018301  4.092139  0.019
C  C47  1  0.16781559  0.07980524  0.21876986  1  0.698554  -0.003464  3.792591  -0.004  0.637461  -0.002228  4.086141  -0.003  0.676186  -0.001767  4.076688  -0.003  0.245044  0.609333  -0.003  4.092374  -0.004
C  C48  1  0.33107508  0.57961542  0.71870799  1  0.697176  0.012819  3.795325  0.013  0.637327  0.022661  4.087701  0.021  0.675698  0.016838  4.07839  0.016  0.245713  0.609886  0.029173  4.093542  0.026
C  C49  1  0.83082917  0.92048511  0.78137176  1  0.695021  0.012798  3.798053  0.013  0.636389  0.022609  4.088772  0.02  0.674763  0.016853  4.079478  0.016  0.245255  0.608949  0.029006  4.094601  0.026
C  C50  1  0.62203189  0.68269191  0.51577421  1  0.71265  0.009357  3.782925  0.011  0.657095  0.017207  4.074619  0.018  0.694819  0.012679  4.06571  0.014  0.244814  0.630291  0.022129  4.080194  0.021
C  C51  1  0.12282779  0.81746530  0.98449177  1  0.712129  0.00936  3.784433  0.011  0.656593  0.017218  4.075942  0.018  0.694381  0.012704  4.067026  0.014  0.244312  0.629799  0.022122  4.081495  0.021
C  C52  1  0.37820048  0.31705877  0.48420262  1  0.713406  -0.002273  3.781851  -0.002  0.656876  -0.000908  4.074704  0.0  0.694852  -0.001394  4.065659  -0.001  0.244842  0.629626  -0.000466  4.080526  0.0
C  C53  1  0.87837599  0.18316442  0.01540347  1  0.714248  0.006109  3.780873  0.007  0.658013  0.010047  4.073646  0.011  0.696048  0.007488  4.064527  0.009  0.245111  0.630718  0.013094  4.079541  0.013
O  O54  1  0.68250268  0.99909263  0.28848816  1  -0.649686  -0.032605  2.042588  -0.021  -0.58621  -0.033502  2.318072  -0.017  -0.619721  -0.030552  2.305889  -0.015  -0.305841  -0.560644  -0.03615  2.325617  -0.02
O  O55  1  0.18307449  0.50082339  0.21131211  1  -0.651012  0.038091  2.0426  0.027  -0.586952  0.04471  2.316927  0.03  -0.620315  0.038911  2.304976  0.024  -0.306226  -0.561707  0.050653  2.324116  0.036
O  O56  1  0.31697374  0.00068375  0.71137672  1  -0.650933  0.038171  2.042013  0.027  -0.586987  0.044896  2.316119  0.03  -0.620302  0.038946  2.304168  0.024  -0.306098  -0.56181  0.051063  2.323277  0.036
O  O57  1  0.81705013  0.49932105  0.78871159  1  -0.651453  0.038153  2.040967  0.027  -0.587556  0.044911  2.315363  0.03  -0.620888  0.038989  2.30339  0.024  -0.30622  -0.562357  0.051037  2.322558  0.036
O  O58  1  0.49911516  0.76797018  0.57783927  1  -0.630267  0.033165  2.075786  0.022  -0.566556  0.042003  2.350603  0.027  -0.598654  0.036353  2.33714  0.022  -0.289075  -0.542532  0.047778  2.359331  0.033
O  O59  1  0.99998265  0.73218291  0.92207234  1  -0.631418  0.033474  2.076346  0.022  -0.568106  0.042385  2.352511  0.027  -0.600337  0.036672  2.338926  0.022  -0.290073  -0.543956  0.048213  2.361254  0.033
O  O60  1  0.50140255  0.23198116  0.42207844  1  -0.62966  -0.028225  2.075237  -0.014  -0.565237  -0.030839  2.350394  -0.013  -0.597777  -0.02841  2.337013  -0.011  -0.289105  -0.540468  -0.033015  2.359094  -0.015
O  O61  1  0.00113904  0.26850083  0.07754540  1  -0.629131  0.032345  2.078757  0.02  -0.564377  0.038804  2.353238  0.023  -0.596544  0.03404  2.33975  0.019  -0.28792  -0.540203  0.043721  2.36204  0.028
O  O62  1  0.72555426  0.61577749  0.56523698  1  -0.689764  0.059608  2.111482  0.036  -0.612739  0.075332  2.395431  0.046  -0.64801  0.067934  2.377846  0.04  -0.294109  -0.586174  0.082359  2.406781  0.053
O  O63  1  0.22673124  0.88444819  0.93536363  1  -0.687605  0.059325  2.108211  0.036  -0.610695  0.075158  2.39212  0.047  -0.645988  0.067719  2.374473  0.04  -0.292885  -0.584047  0.082214  2.403235  0.053
O  O64  1  0.27430170  0.38390454  0.43478480  1  -0.690027  0.05609  2.11116  0.031  -0.612693  0.068049  2.395919  0.037  -0.648113  0.062664  2.378258  0.032  -0.294133  -0.585832  0.072884  2.407203  0.041
O  O65  1  0.77502830  0.11620029  0.06498224  1  -0.691561  0.005569  2.11598  0.006  -0.614337  0.0096  2.403195  0.009  -0.650231  0.008537  2.385111  0.009  -0.295828  -0.586842  0.010509  2.414926  0.01
O  O66  1  0.81032810  0.38742331  0.34092012  1  -0.66086  0.018608  2.132016  0.01  -0.58482  0.027197  2.419072  0.017  -0.618964  0.023912  2.400693  0.014  -0.271521  -0.55911  0.030435  2.43135  0.019
O  O67  1  0.30945602  0.11241766  0.15944849  1  -0.665061  0.042006  2.138146  0.022  -0.588939  0.048954  2.428196  0.024  -0.622984  0.046343  2.409102  0.022  -0.27312  -0.563556  0.051104  2.441119  0.026
O  O68  1  0.18972969  0.61199212  0.65901503  1  -0.662489  0.059951  2.133553  0.034  -0.586591  0.078452  2.421053  0.047  -0.620441  0.071131  2.402566  0.041  -0.272623  -0.561589  0.08546  2.433504  0.053
O  O69  1  0.68943031  0.88835583  0.84116840  1  -0.662679  0.060248  2.132976  0.034  -0.586824  0.078659  2.419129  0.046  -0.620799  0.071436  2.400798  0.041  -0.272526  -0.561681  0.085564  2.431476  0.052
O  O70  1  0.54409472  0.33552737  0.21493050  1  -0.664339  0.012752  2.10225  0.007  -0.59174  0.016746  2.38279  0.008  -0.627191  0.014439  2.367643  0.006  -0.281688  -0.564381  0.018912  2.392145  0.01
O  O71  1  0.04244463  0.16412546  0.28447490  1  -0.66343  -0.009502  2.100399  -0.001  -0.589872  -0.009099  2.37907  0.002  -0.625107  -0.009032  2.363696  0.002  -0.28152  -0.562705  -0.008776  2.38891  0.003
O  O72  1  0.45571270  0.66410036  0.78516269  1  -0.665637  0.045849  2.103568  0.026  -0.593073  0.059865  2.38357  0.036  -0.628098  0.053136  2.368296  0.03  -0.283128  -0.566437  0.066427  2.393122  0.042
O  O73  1  0.95551383  0.83594805  0.71523107  1  -0.664072  0.045641  2.102212  0.026  -0.592027  0.059684  2.381468  0.036  -0.626939  0.052965  2.366061  0.03  -0.282226  -0.56544  0.066248  2.391043  0.042
O  O74  1  0.61275163  0.87974545  0.08428054  1  -0.653791  0.033322  2.098356  0.02  -0.593108  0.036718  2.381977  0.018  -0.625101  0.033468  2.36932  0.015  -0.305911  -0.569161  0.039951  2.389924  0.021
O  O75  1  0.11286656  0.61983207  0.41557973  1  -0.653915  0.036656  2.097257  0.023  -0.593539  0.044208  2.381272  0.026  -0.625521  0.039184  2.368718  0.022  -0.306295  -0.569575  0.049111  2.389073  0.031
O  O76  1  0.38716349  0.11973237  0.91567361  1  -0.655494  0.037783  2.097513  0.024  -0.594128  0.045756  2.380285  0.027  -0.626309  0.040522  2.367889  0.022  -0.306709  -0.569924  0.050944  2.387874  0.032
O  O77  1  0.88717153  0.38031779  0.58440437  1  -0.654021  0.036079  2.09838  0.023  -0.592821  0.042433  2.380942  0.025  -0.625021  0.037733  2.36881  0.021  -0.306308  -0.568633  0.04707  2.388337  0.03
