# generated using pymatgen
data_ZnH26C25N3O7
_symmetry_space_group_name_H-M   'P 1'
_cell_length_a   14.43950765
_cell_length_b   16.18229423
_cell_length_c   17.02957186
_cell_angle_alpha   88.06200396
_cell_angle_beta   89.26696571
_cell_angle_gamma   87.54980737
_symmetry_Int_Tables_number   1
_chemical_formula_structural   ZnH26C25N3O7
_chemical_formula_sum   'Zn2 H52 C50 N6 O14'
_cell_volume   3973.03551405
_cell_formula_units_Z   2
loop_
 _symmetry_equiv_pos_site_id
 _symmetry_equiv_pos_as_xyz
  1  'x, y, z'
loop_
 _atom_site_type_symbol
 _atom_site_label
 _atom_site_symmetry_multiplicity
 _atom_site_fract_x
 _atom_site_fract_y
 _atom_site_fract_z
 _atom_site_occupancy
 _atom_site_pbe_bader_charge
 _atom_site_pbe_bader_spin_density
 _atom_site_pbe_cm5_charge
 _atom_site_pbe_ddec_charge
 _atom_site_pbe_ddec_spin_density
 _atom_site_pbe_ddec_sum_bond_order
 _atom_site_pbe_magmom
Zn  Zn0  1  0.50091466  0.58833649  0.50139573  1  1.309546  0  0.683816  0.887489  0  2.322449  0
Zn  Zn1  1  0.50274992  0.40268500  0.49511254  1  1.315137  0  0.682753  0.880934  0  2.328003  0
H  H2  1  0.48162873  0.62092457  0.74466446  1  0.099326  0  0.101316  0.110576  0  1.007576  0
H  H3  1  0.35584951  0.87485793  0.57762751  1  0.115956  0  0.114243  0.139007  0  1.013948  0
H  H4  1  0.55755654  0.78373698  0.09117251  1  0.03253  0  0.106604  0.073731  0  0.954099  0
H  H5  1  0.58011994  0.72601699  0.18009488  1  0.042554  0  0.097401  0.054994  0  1.001497  0
H  H6  1  0.39737951  0.81763131  0.13229846  1  0.042006  0  0.093562  0.088359  0  0.968687  0
H  H7  1  0.40765036  0.75199761  0.21687763  1  0.022056  0  0.096248  0.095956  0  0.97778  0
H  H8  1  0.52765866  0.84075035  0.27207492  1  0.02027  0  0.081408  0.104979  0  1.029626  0
H  H9  1  0.42602163  0.90196238  0.25008009  1  0.031134  0  0.087975  0.116573  0  0.999635  0
H  H10  1  0.52387378  0.90622139  0.18617100  1  0.005343  0  0.082797  0.103785  0  1.0078  0
H  H11  1  0.50347169  0.21280488  0.90471933  1  0.048646  0  0.10651  0.073863  0  0.955496  0
H  H12  1  0.53755599  0.26386765  0.81545130  1  0.051572  0  0.101321  0.063352  0  0.981667  0
H  H13  1  0.45277908  0.39127895  0.25362344  1  0.088547  0  0.101207  0.107383  0  1.005083  0
H  H14  1  0.33922291  0.22012587  0.86450995  1  0.03075  0  0.094071  0.090091  0  0.966575  0
H  H15  1  0.36723550  0.27431959  0.77620729  1  0.029343  0  0.092819  0.086524  0  0.999485  0
H  H16  1  0.46640594  0.15254929  0.73154784  1  0.008752  0  0.085522  0.112996  0  1.005246  0
H  H17  1  0.35263477  0.12094155  0.75445715  1  0.012975  0  0.083618  0.106347  0  1.016472  0
H  H18  1  0.44365419  0.09789031  0.82152324  1  0.020164  0  0.085477  0.108579  0  1.0037  0
H  H19  1  0.75939105  0.69130338  0.43650824  1  0.093213  0  0.115128  0.090288  0  0.955011  0
H  H20  1  0.72634454  0.79478334  0.46144427  1  0.036679  0  0.101784  0.061705  0  0.982784  0
H  H21  1  0.71251425  0.72461626  0.29677618  1  0.038608  0  0.098075  0.09524  0  0.970317  0
H  H22  1  0.68888751  0.82907646  0.32021300  1  0.011382  0  0.08767  0.075974  0  0.996914  0
H  H23  1  0.85714062  0.84021192  0.36113992  1  0.026536  0  0.085008  0.107377  0  1.006459  0
H  H24  1  0.46463141  0.61257619  0.89297912  1  0.111511  0  0.104733  0.107485  0  1.018195  0
H  H25  1  0.84947859  0.81165088  0.26182512  1  0.047284  0  0.091017  0.119306  0  0.997901  0
H  H26  1  0.87957955  0.73571012  0.33576230  1  0.022598  0  0.092116  0.118918  0  0.995459  0
H  H27  1  0.27825834  0.29074382  0.64382809  1  0.047454  0  0.116367  0.089604  0  0.950219  0
H  H28  1  0.30565047  0.18409417  0.62901034  1  0.036478  0  0.095756  0.051845  0  1.004086  0
H  H29  1  0.24541508  0.31091466  0.49924764  1  0.088765  0  0.096079  0.105675  0  1.001836  0
H  H30  1  0.26122135  0.20300796  0.48756953  1  0.022745  0  0.085905  0.078697  0  0.987011  0
H  H31  1  0.12870596  0.17819146  0.58507995  1  -0.008677  0  0.080674  0.100443  0  1.011672  0
H  H32  1  0.09197943  0.24090750  0.50286301  1  0.040345  0  0.09199  0.122745  0  0.993007  0
H  H33  1  0.11214986  0.28713129  0.59342226  1  0.019017  0  0.087819  0.113988  0  1.00385  0
H  H34  1  0.62173582  0.33504312  0.28123323  1  0.088806  0  0.113008  0.09108  0  0.966137  0
H  H35  1  0.43707195  0.40230173  0.10567774  1  0.122133  0  0.105302  0.109635  0  1.014698  0
H  H36  1  0.58856710  0.23024890  0.28868093  1  0.060775  0  0.100341  0.057813  0  0.989641  0
H  H37  1  0.78269857  0.29042691  0.32261146  1  0.054243  0  0.101688  0.101583  0  0.957535  0
H  H38  1  0.75166571  0.18598263  0.32787797  1  0.034226  0  0.088841  0.077846  0  0.984599  0
H  H39  1  0.71291086  0.19386611  0.18246959  1  0.016246  0  0.084698  0.106221  0  1.006443  0
H  H40  1  0.82954442  0.21922965  0.19749453  1  0.036992  0  0.090817  0.118524  0  0.998002  0
H  H41  1  0.74403150  0.29883219  0.17737671  1  0.035646  0  0.09212  0.119493  0  0.994329  0
H  H42  1  0.23526226  0.67216808  0.58600492  1  0.09579  0  0.113255  0.087841  0  0.965822  0
H  H43  1  0.24907791  0.77974354  0.56539452  1  0.036709  0  0.100885  0.058755  0  0.988767  0
H  H44  1  0.28764074  0.68941684  0.72426949  1  0.029532  0  0.101091  0.101785  0  0.964689  0
H  H45  1  0.29615838  0.79695767  0.70582232  1  0.012554  0  0.089504  0.079484  0  0.980279  0
H  H46  1  0.50689179  0.64873347  0.25738937  1  0.104042  0  0.105739  0.122651  0  1.036168  0
H  H47  1  0.12364050  0.80909911  0.67540895  1  -0.016634  0  0.083633  0.104515  0  1.008651  0
H  H48  1  0.14300656  0.76658686  0.77151845  1  0.02856  0  0.092082  0.120941  0  0.994986  0
H  H49  1  0.11615945  0.70099684  0.69436573  1  0.013859  0  0.091228  0.117658  0  0.995008  0
H  H50  1  0.48075433  0.35719689  0.73831879  1  0.094705  0  0.106304  0.125071  0  1.031851  0
H  H51  1  0.60240038  0.88644329  0.43302368  1  0.120127  0  0.110344  0.131804  0  1.045532  0
H  H52  1  0.39742031  0.10491152  0.55956298  1  0.107072  0  0.110927  0.131116  0  1.045339  0
H  H53  1  0.61120229  0.12074284  0.38149524  1  0.10228  0  0.115297  0.140606  0  1.010422  0
C  C54  1  0.49437113  0.51480081  0.34915086  1  1.548665  0  0.214517  0.59536  0  4.164898  0
C  C55  1  0.55191786  0.85005693  0.46502568  1  0.054338  0  -0.114018  -0.368649  0  3.965977  0
C  C56  1  0.50452991  0.10407361  0.46975742  1  0.324092  0  0.095307  0.243049  0  4.080825  0
C  C57  1  0.47708868  0.88910313  0.50406238  1  0.290794  0  0.097488  0.246822  0  4.084912  0
C  C58  1  0.56353924  0.15101898  0.42244483  1  0.025687  0  -0.101284  -0.344469  0  3.929947  0
C  C59  1  0.41126141  0.84327457  0.54510506  1  -0.018083  0  -0.102803  -0.347071  0  3.932476  0
C  C60  1  0.56215359  0.23667557  0.43300331  1  1.061624  0  0.228539  0.440623  0  4.061481  0
C  C61  1  0.42226188  0.75674177  0.54507961  1  1.150101  0  0.229186  0.440553  0  4.06685  0
C  C62  1  0.68075650  0.48195479  0.50359849  1  1.751941  0  0.215844  0.64648  0  4.281004  0
C  C63  1  0.32094331  0.48871186  0.49857591  1  1.732381  0  0.214497  0.641444  0  4.290213  0
C  C64  1  0.78073874  0.48093405  0.50931073  1  0.147481  0  -0.010957  -0.11977  0  3.848795  0
C  C65  1  0.49364721  0.49257803  0.64751596  1  1.557843  0  0.214665  0.593143  0  4.165615  0
C  C66  1  0.22089749  0.48940962  0.50565069  1  0.079269  0  -0.01295  -0.130603  0  3.860378  0
C  C67  1  0.86542761  0.48348923  0.51258542  1  -0.285757  0  -0.037097  -0.018786  0  4.317198  0
C  C68  1  0.13599932  0.48906374  0.51060741  1  -0.251543  0  -0.036058  -0.016838  0  4.32023  0
C  C69  1  0.95796534  0.48598880  0.51445383  1  -0.158982  0  -0.020073  -0.019275  0  4.253469  0
C  C70  1  0.04333258  0.48779518  0.51383214  1  0.027147  0  -0.023795  -0.0263  0  4.255323  0
C  C71  1  0.48321011  0.51979975  0.26193803  1  -0.06179  0  -0.015944  0.005432  0  3.984663  0
C  C72  1  0.48271364  0.48864285  0.73499584  1  -0.035646  0  -0.014317  0.009046  0  3.973266  0
C  C73  1  0.46246925  0.44928608  0.22079396  1  0.001473  0  -0.100341  -0.123841  0  4.030863  0
C  C74  1  0.47731490  0.56196120  0.77702922  1  0.027578  0  -0.098608  -0.11953  0  4.02041  0
C  C75  1  0.45319910  0.45540451  0.13997186  1  -0.092452  0  -0.089009  -0.133151  0  3.99879  0
C  C76  1  0.48454309  0.60277040  0.14046013  1  0.431063  0  0.094858  0.208311  0  4.01516  0
C  C77  1  0.46767722  0.55738156  0.85793661  1  -0.072678  0  -0.088643  -0.131423  0  3.998545  0
C  C78  1  0.46543042  0.53091717  0.09832345  1  0.4676  0  0.077935  0.069668  0  4.030117  0
C  C79  1  0.46412399  0.48045108  0.89895371  1  0.400061  0  0.07781  0.069868  0  4.030413  0
C  C80  1  0.52556453  0.74514354  0.13758172  1  0.440303  0  -0.063204  0.036089  0  3.899809  0
C  C81  1  0.44630816  0.79375005  0.17749537  1  -0.011526  0  -0.169478  -0.14267  0  3.973734  0
C  C82  1  0.48288202  0.86456822  0.22388486  1  -0.054683  0  -0.243204  -0.347854  0  3.983461  0
C  C83  1  0.48009780  0.25754768  0.85828625  1  0.408561  0  -0.063265  0.03487  0  3.898184  0
C  C84  1  0.39378189  0.22728917  0.81934998  1  -0.011868  0  -0.169661  -0.142558  0  3.978881  0
C  C85  1  0.41527636  0.14527168  0.77949631  1  -0.041313  0  -0.242755  -0.348958  0  3.98837  0
C  C86  1  0.71434356  0.74553324  0.42007492  1  0.389977  0  -0.054251  0.044491  0  3.845824  0
C  C87  1  0.46817718  0.40630306  0.85600281  1  0.380457  0  0.09422  0.207581  0  4.017608  0
C  C88  1  0.73287872  0.77370297  0.33547843  1  -0.004704  0  -0.167146  -0.138662  0  3.986842  0
C  C89  1  0.83534353  0.79139096  0.32281298  1  -0.073083  0  -0.239663  -0.351614  0  3.980809  0
C  C90  1  0.30197736  0.24610812  0.59998161  1  0.411498  0  -0.055508  0.043971  0  3.846813  0
C  C91  1  0.23815545  0.25033573  0.52936665  1  -0.040946  0  -0.173154  -0.146501  0  3.968963  0
C  C92  1  0.13739817  0.23826673  0.55419206  1  -0.033808  0  -0.2416  -0.348052  0  3.982071  0
C  C93  1  0.63704751  0.27458339  0.31080370  1  0.374038  0  -0.054958  0.040917  0  3.848533  0
C  C94  1  0.73723148  0.24592961  0.29687349  1  -0.043552  0  -0.166059  -0.138097  0  3.991923  0
C  C95  1  0.75708727  0.23903632  0.20876120  1  -0.062638  0  -0.239336  -0.351378  0  3.978915  0
C  C96  1  0.27272600  0.72646616  0.60303279  1  0.387971  0  -0.054579  0.043201  0  3.848423  0
C  C97  1  0.25788494  0.74264141  0.68978037  1  0.009095  0  -0.165904  -0.138096  0  3.984476  0
C  C98  1  0.49286870  0.59593912  0.22221111  1  0.038878  0  -0.11035  -0.249978  0  3.996604  0
C  C99  1  0.15454639  0.75564271  0.70881779  1  -0.006103  0  -0.239073  -0.350645  0  3.979329  0
C  C100  1  0.47733738  0.41168759  0.77408789  1  0.05156  0  -0.10872  -0.246929  0  3.987738  0
C  C101  1  0.44684875  0.22734729  0.52976400  1  1.075435  0  0.224878  0.441067  0  4.059183  0
C  C102  1  0.55662314  0.76372490  0.46783381  1  1.061435  0  0.224368  0.437944  0  4.078721  0
C  C103  1  0.44345170  0.14188545  0.52332913  1  0.018404  0  -0.111882  -0.36246  0  3.963669  0
N  N104  1  0.46203208  0.53994716  0.01639122  1  -0.535013  0  -0.160021  -0.127666  0  3.302305  0
N  N105  1  0.46239730  0.47170502  0.98102763  1  -0.475445  0  -0.160338  -0.129776  0  3.30331  0
N  N106  1  0.50583139  0.27354143  0.48625122  1  -1.190704  0  -0.319356  -0.385923  0  3.380328  0
N  N107  1  0.49283071  0.71832818  0.50638497  1  -1.23522  0  -0.322925  -0.3918  0  3.39168  0
N  N108  1  0.51481473  0.01693683  0.46165166  1  -0.442357  0  -0.132525  -0.107937  0  3.211736  0
N  N109  1  0.46355948  0.97622467  0.50788999  1  -0.445648  0  -0.132539  -0.106907  0  3.228622  0
O  O110  1  0.48284130  0.58249001  0.38496973  1  -1.158812  0  -0.320073  -0.543866  0  2.343345  0
O  O111  1  0.46406436  0.33366092  0.89839017  1  -1.054192  0  -0.181396  -0.204017  0  2.559811  0
O  O112  1  0.62168029  0.71661336  0.43195035  1  -1.069886  0  -0.158141  -0.195161  0  2.562144  0
O  O113  1  0.39440953  0.27207645  0.57970821  1  -1.060782  0  -0.160907  -0.202368  0  2.541409  0
O  O114  1  0.61626810  0.28869198  0.39291951  1  -1.071655  0  -0.158454  -0.196111  0  2.548638  0
O  O115  1  0.36858061  0.70449750  0.58487092  1  -1.057391  0  -0.152608  -0.186617  0  2.575325  0
O  O116  1  0.48026063  0.42672960  0.61132907  1  -1.169424  0  -0.315309  -0.550429  0  2.367341  0
O  O117  1  0.51487633  0.44386209  0.38009097  1  -1.160548  0  -0.313861  -0.556944  0  2.371144  0
O  O118  1  0.51491596  0.56218438  0.61659638  1  -1.159866  0  -0.3189  -0.546269  0  2.353346  0
O  O119  1  0.64241502  0.55228652  0.48690754  1  -1.13539  0  -0.304583  -0.542635  0  2.295572  0
O  O120  1  0.35988309  0.42065203  0.47815633  1  -1.135048  0  -0.304894  -0.532297  0  2.280305  0
O  O121  1  0.64290057  0.41311982  0.51528972  1  -1.138241  0  -0.311052  -0.533247  0  2.269028  0
O  O122  1  0.35840849  0.55557197  0.51388989  1  -1.141068  0  -0.301216  -0.542345  0  2.297468  0
O  O123  1  0.49623707  0.67415971  0.09749776  1  -1.067114  0  -0.181263  -0.202688  0  2.555183  0
