# generated using pymatgen
data_ZnH27C19NO9
_symmetry_space_group_name_H-M   'P 1'
_cell_length_a   10.42666883
_cell_length_b   10.87561137
_cell_length_c   10.88050000
_cell_angle_alpha   85.23207284
_cell_angle_beta   74.99107081
_cell_angle_gamma   67.62831650
_symmetry_Int_Tables_number   1
_chemical_formula_structural   ZnH27C19NO9
_chemical_formula_sum   'Zn2 H54 C38 N2 O18'
_cell_volume   1101.85826969
_cell_formula_units_Z   2
loop_
 _symmetry_equiv_pos_site_id
 _symmetry_equiv_pos_as_xyz
  1  'x, y, z'
loop_
 _atom_site_type_symbol
 _atom_site_label
 _atom_site_symmetry_multiplicity
 _atom_site_fract_x
 _atom_site_fract_y
 _atom_site_fract_z
 _atom_site_occupancy
 _atom_site_hle17_bader_spin_density
 _atom_site_hle17_ddec_charge
 _atom_site_hle17_ddec_spin_density
 _atom_site_hle17_ddec_sum_bond_order
 _atom_site_hle17_magmom
 _atom_site_hse06_10hf_bader_spin_density
 _atom_site_hse06_10hf_ddec_charge
 _atom_site_hse06_10hf_ddec_spin_density
 _atom_site_hse06_10hf_ddec_sum_bond_order
 _atom_site_hse06_10hf_magmom
 _atom_site_hse06_bader_spin_density
 _atom_site_hse06_ddec_charge
 _atom_site_hse06_ddec_spin_density
 _atom_site_hse06_ddec_sum_bond_order
 _atom_site_hse06_magmom
 _atom_site_pbe_bader_charge
 _atom_site_pbe_bader_spin_density
 _atom_site_pbe_cm5_charge
 _atom_site_pbe_ddec_charge
 _atom_site_pbe_ddec_spin_density
 _atom_site_pbe_ddec_sum_bond_order
 _atom_site_pbe_magmom
Zn  Zn0  1  0.15492492  0.44741080  0.96312048  1  0  1.090579  0  1.87403  0  0  0.931938  0  2.350575  0  0  0.983678  0  2.281323  0  1.324461  0  0.672114  0.895494  0  2.397515  0
Zn  Zn1  1  0.84507722  0.55258858  0.03687802  1  0  1.090623  0  1.874001  0  0  0.931986  0  2.350554  0  0  0.983724  0  2.281296  0  1.322346  0  0.672109  0.895544  0  2.397494  0
H  H2  1  0.94339717  0.87526921  0.19687070  1  0  0.123713  0  0.951595  0  0  0.130819  0  1.017868  0  0  0.134853  0  1.015077  0  0.089495  0  0.109559  0.128101  0  1.019491  0
H  H3  1  0.05660199  0.12473017  0.80313039  1  0  0.123698  0  0.951639  0  0  0.130829  0  1.017885  0  0  0.134863  0  1.015094  0  0.089491  0  0.109565  0.128111  0  1.019508  0
H  H4  1  0.20501333  0.93390054  0.66602608  1  0  0.051312  0  0.944061  0  0  0.061577  0  1.016711  0  0  0.062646  0  1.014826  0  0.054641  0  0.099556  0.060548  0  1.01852  0
H  H5  1  0.79498643  0.06609984  0.33397478  1  0  0.051346  0  0.944047  0  0  0.061579  0  1.016707  0  0  0.062648  0  1.014822  0  0.054645  0  0.09956  0.06055  0  1.018513  0
H  H6  1  0.04028755  0.02071991  0.62160706  1  0  0.045095  0  0.926435  0  0  0.058783  0  0.993863  0  0  0.059241  0  0.992941  0  0.042184  0  0.095475  0.058909  0  0.993645  0
H  H7  1  0.95971122  0.97928047  0.37839405  1  0  0.045119  0  0.926455  0  0  0.058794  0  0.993864  0  0  0.059252  0  0.992942  0  0.041941  0  0.09548  0.05892  0  0.993646  0
H  H8  1  0.05131497  0.80385887  0.54390209  1  0  0.080156  0  0.939297  0  0  0.097013  0  1.003267  0  0  0.097403  0  1.00382  0  0.046736  0  0.09496  0.0968  0  1.002615  0
H  H9  1  0.94868579  0.19614151  0.45609852  1  0  0.08017  0  0.939211  0  0  0.097022  0  1.003194  0  0  0.097415  0  1.003749  0  0.046711  0  0.094956  0.096808  0  1.002542  0
H  H10  1  0.20128646  0.84306808  0.46244849  1  0  0.073817  0  0.944973  0  0  0.090519  0  1.011145  0  0  0.090718  0  1.012038  0  0.057964  0  0.09486  0.090464  0  1.010207  0
H  H11  1  0.79871430  0.15693230  0.53755120  1  0  0.073826  0  0.944966  0  0  0.090531  0  1.011136  0  0  0.090733  0  1.012029  0  0.057964  0  0.094873  0.090476  0  1.010197  0
H  H12  1  0.19418458  0.65199641  0.68720117  1  0  0.060517  0  0.937227  0  0  0.071211  0  1.004834  0  0  0.072135  0  1.004494  0  0.058438  0  0.096839  0.070458  0  1.005204  0
H  H13  1  0.80581518  0.34800397  0.31279876  1  0  0.060531  0  0.937219  0  0  0.071224  0  1.004832  0  0  0.072146  0  1.004493  0  0.058445  0  0.096843  0.070471  0  1.005201  0
H  H14  1  0.26607785  0.60180023  0.52382182  1  0  0.035114  0  0.927676  0  0  0.048996  0  0.994375  0  0  0.049067  0  0.99475  0  0.040109  0  0.089497  0.048918  0  0.994156  0
H  H15  1  0.73392231  0.39819916  0.47617902  1  0  0.035093  0  0.92773  0  0  0.048987  0  0.994421  0  0  0.04906  0  0.994794  0  0.040104  0  0.089495  0.04891  0  0.994198  0
H  H16  1  0.48735655  0.48365946  0.61421495  1  0  0.070625  0  0.955259  0  0  0.086625  0  1.025389  0  0  0.087918  0  1.024257  0  0.061379  0  0.089922  0.085628  0  1.02618  0
H  H17  1  0.51264361  0.51633993  0.38578405  1  0  0.070607  0  0.9553  0  0  0.08662  0  1.02541  0  0  0.087913  0  1.024278  0  0.061397  0  0.089922  0.085622  0  1.026201  0
H  H18  1  0.39846434  0.57419855  0.76126980  1  0  0.079199  0  0.957442  0  0  0.092727  0  1.02942  0  0  0.094778  0  1.027405  0  0.07165  0  0.090324  0.091233  0  1.030818  0
H  H19  1  0.60153642  0.42580183  0.23872989  1  0  0.07917  0  0.957459  0  0  0.092688  0  1.029454  0  0  0.094739  0  1.027439  0  0.07165  0  0.090314  0.091194  0  1.030851  0
H  H20  1  0.55720902  0.59387028  0.66322249  1  0  0.08048  0  0.938836  0  0  0.099334  0  1.001871  0  0  0.099609  0  1.001845  0  0.039622  0  0.095956  0.09911  0  1.001838  0
H  H21  1  0.44279075  0.40613010  0.33677652  1  0  0.080489  0  0.938814  0  0  0.099345  0  1.001847  0  0  0.099621  0  1.00182  0  0.039623  0  0.095963  0.099122  0  1.001813  0
H  H22  1  0.83472183  0.69148705  0.64389792  1  0  0.119732  0  0.944547  0  0  0.129609  0  1.006988  0  0  0.13319  0  1.004854  0  0.091636  0  0.110562  0.126964  0  1.008809  0
H  H23  1  0.16527734  0.30851233  0.35610225  1  0  0.119748  0  0.944547  0  0  0.129629  0  1.006982  0  0  0.133208  0  1.00485  0  0.091608  0  0.110552  0.126984  0  1.008802  0
H  H24  1  0.31893940  0.33212815  0.60925192  1  0  0.057874  0  0.930553  0  0  0.069578  0  0.998893  0  0  0.070847  0  0.997601  0  0.066752  0  0.100122  0.068547  0  0.999966  0
H  H25  1  0.68106036  0.66787222  0.39074802  1  0  0.057906  0  0.93051  0  0  0.069591  0  0.998868  0  0  0.070861  0  0.997576  0  0.066753  0  0.100117  0.06856  0  0.999941  0
H  H26  1  0.36773007  0.21376760  0.48366592  1  0  0.045464  0  0.919784  0  0  0.060272  0  0.981779  0  0  0.061094  0  0.980937  0  0.037266  0  0.094801  0.059547  0  0.982592  0
H  H27  1  0.63226969  0.78623278  0.51633401  1  0  0.045483  0  0.919772  0  0  0.060288  0  0.981764  0  0  0.061111  0  0.980921  0  0.037269  0  0.094805  0.059563  0  0.982577  0
H  H28  1  0.30522580  0.15782932  0.77069598  1  0  0.100189  0  0.926817  0  0  0.115653  0  0.986503  0  0  0.117045  0  0.986755  0  0.075468  0  0.099194  0.114568  0  0.98655  0
H  H29  1  0.69477356  0.84217205  0.22930397  1  0  0.100173  0  0.926802  0  0  0.115633  0  0.986496  0  0  0.117027  0  0.986751  0  0.075477  0  0.099185  0.114548  0  0.986543  0
H  H30  1  0.35842508  0.03761407  0.64747960  1  0  0.072094  0  0.937934  0  0  0.08852  0  1.001437  0  0  0.089589  0  1.001015  0  0.000482  0  0.091611  0.087468  0  1.002244  0
H  H31  1  0.64157369  0.96238631  0.35252058  1  0  0.072086  0  0.937929  0  0  0.08851  0  1.001432  0  0  0.089582  0  1.001014  0  0.000507  0  0.091613  0.087458  0  1.002238  0
H  H32  1  0.59124561  0.07149090  0.56666588  1  0  0.034649  0  0.930747  0  0  0.050011  0  0.995618  0  0  0.050037  0  0.995846  0  0.013958  0  0.09205  0.049816  0  0.995741  0
H  H33  1  0.40875415  0.92850948  0.43333406  1  0  0.03465  0  0.930749  0  0  0.050012  0  0.99562  0  0  0.050038  0  0.995848  0  0.013957  0  0.092049  0.049816  0  0.995744  0
H  H34  1  0.53729158  0.19137996  0.69060400  1  0  0.038475  0  0.922749  0  0  0.053468  0  0.986708  0  0  0.054189  0  0.986052  0  0.02491  0  0.092804  0.052786  0  0.987397  0
H  H35  1  0.46270819  0.80862042  0.30939502  1  0  0.038477  0  0.922751  0  0  0.053468  0  0.986714  0  0  0.054189  0  0.986058  0  0.024912  0  0.092803  0.052785  0  0.987405  0
H  H36  1  0.78922838  0.93051932  0.64971662  1  0  0.064655  0  0.949363  0  0  0.081187  0  1.020635  0  0  0.082122  0  1.019742  0  0.036645  0  0.087761  0.080334  0  1.021533  0
H  H37  1  0.21077039  0.06948106  0.35028448  1  0  0.064645  0  0.949386  0  0  0.08117  0  1.020665  0  0  0.082106  0  1.019772  0  0.036638  0  0.087765  0.080312  0  1.021568  0
H  H38  1  0.75182504  0.88577983  0.81399122  1  0  0.096397  0  0.94402  0  0  0.112378  0  1.011063  0  0  0.113342  0  1.010066  0  0.082317  0  0.099468  0.11163  0  1.011905  0
H  H39  1  0.24817333  0.11422154  0.18600990  1  0  0.096435  0  0.944032  0  0  0.112398  0  1.011087  0  0  0.113362  0  1.010093  0  0.0823  0  0.099475  0.11165  0  1.011929  0
H  H40  1  0.73808523  0.05211850  0.77258632  1  0  0.060164  0  0.961159  0  0  0.074879  0  1.036314  0  0  0.07592  0  1.035715  0  0.015584  0  0.085382  0.074094  0  1.036665  0
H  H41  1  0.26191354  0.94788188  0.22741386  1  0  0.060151  0  0.961189  0  0  0.074865  0  1.036343  0  0  0.075907  0  1.035745  0  0.015556  0  0.085366  0.07408  0  1.036695  0
H  H42  1  0.38066267  0.23909293  0.05341602  1  0  0.057179  0  0.920975  0  0  0.067268  0  0.986317  0  0  0.069193  0  0.980976  0  0.131107  0  0.133026  0.06573  0  0.990106  0
H  H43  1  0.61933709  0.76090745  0.94658208  1  0  0.057195  0  0.920972  0  0  0.067282  0  0.986318  0  0  0.069207  0  0.980978  0  0.131094  0  0.133019  0.065742  0  0.990107  0
H  H44  1  0.74461434  0.25767074  0.82844817  1  0  0.092821  0  0.932567  0  0  0.113826  0  0.996954  0  0  0.113816  0  0.997129  0  0.058115  0  0.101913  0.113717  0  0.996758  0
H  H45  1  0.25538641  0.74232964  0.17155152  1  0  0.092797  0  0.932607  0  0  0.113824  0  0.996958  0  0  0.113814  0  0.997132  0  0.058121  0  0.101905  0.113713  0  0.996763  0
H  H46  1  0.70728141  0.36982079  0.95432056  1  0  0.121748  0  0.955141  0  0  0.138575  0  1.021146  0  0  0.139774  0  1.020785  0  0.109127  0  0.107691  0.137555  0  1.021589  0
H  H47  1  0.29271935  0.63017959  0.04567913  1  0  0.121771  0  0.95511  0  0  0.13858  0  1.021134  0  0  0.139778  0  1.020774  0  0.109135  0  0.107696  0.13756  0  1.021575  0
H  H48  1  0.58951135  0.40876944  0.84935137  1  0  0.111214  0  0.951759  0  0  0.131239  0  1.012627  0  0  0.132453  0  1.012126  0  0.065812  0  0.111314  0.130208  0  1.013147  0
H  H49  1  0.41048940  0.59123094  0.15064924  1  0  0.111248  0  0.951834  0  0  0.131267  0  1.012695  0  0  0.132482  0  1.012195  0  0.065803  0  0.111327  0.130235  0  1.013216  0
H  H50  1  0.56401260  0.11902287  0.12315651  1  0  0.116766  0  0.962415  0  0  0.129759  0  1.033089  0  0  0.1319  0  1.031173  0  0.107862  0  0.109604  0.128061  0  1.03456  0
H  H51  1  0.43598717  0.88097751  0.87684251  1  0  0.11674  0  0.962379  0  0  0.12973  0  1.033066  0  0  0.131871  0  1.031152  0  0.107861  0  0.10959  0.12803  0  1.034538  0
H  H52  1  0.67872809  0.20534340  0.12938180  1  0  0.110768  0  0.932654  0  0  0.130276  0  0.993062  0  0  0.130793  0  0.993565  0  0.074321  0  0.107064  0.129754  0  0.992843  0
H  H53  1  0.32127208  0.79465599  0.87061812  1  0  0.110764  0  0.932676  0  0  0.130267  0  0.993093  0  0  0.130784  0  0.993597  0  0.074312  0  0.107071  0.129744  0  0.992874  0
H  H54  1  0.73259953  0.08106472  0.00958698  1  0  0.098378  0  0.967365  0  0  0.114918  0  1.035908  0  0  0.114102  0  1.039088  0  0.066425  0  0.100152  0.115173  0  1.034034  0
H  H55  1  0.26740063  0.91893467  0.99041294  1  0  0.098374  0  0.9674  0  0  0.114918  0  1.035933  0  0  0.114117  0  1.039101  0  0.066422  0  0.100164  0.115173  0  1.034058  0
C  C56  1  0.98309441  0.74442600  0.98281525  1  0  0.707191  0  3.86388  0  0  0.652129  0  4.161389  0  0  0.688503  0  4.150388  0  1.594237  0  0.223254  0.627248  0  4.168452  0
C  C57  1  0.01690774  0.25557339  0.01718417  1  0  0.70703  0  3.864187  0  0  0.652081  0  4.161515  0  0  0.688453  0  4.150515  0  1.594243  0  0.223254  0.627198  0  4.168575  0
C  C58  1  0.96768081  0.93114783  0.11192666  1  0  -0.20298  0  3.755205  0  0  -0.231809  0  4.013209  0  0  -0.233701  0  4.029406  0  0.036475  0  -0.10365  -0.230403  0  4.001654  0
C  C59  1  0.03231796  0.06885255  0.88807444  1  0  -0.202959  0  3.755271  0  0  -0.231814  0  4.013281  0  0  -0.233709  0  4.029479  0  0.036458  0  -0.103662  -0.23041  0  4.001731  0
C  C60  1  0.98777140  0.87891198  0.99230273  1  0  -0.12939  0  3.774662  0  0  -0.116739  0  4.021722  0  0  -0.121383  0  4.037551  0  -0.015264  0  -0.024741  -0.112924  0  4.010398  0
C  C61  1  0.01222637  0.12108840  0.00769770  1  0  -0.129422  0  3.77479  0  0  -0.116793  0  4.021818  0  0  -0.121436  0  4.037653  0  -0.015255  0  -0.02477  -0.112977  0  4.010493  0
C  C62  1  0.01934828  0.94669149  0.88034970  1  0  0.227362  0  3.844063  0  0  0.205727  0  4.113992  0  0  0.216144  0  4.129254  0  0.429929  0  0.07405  0.19855  0  4.103303  0
C  C63  1  0.98065089  0.05330789  0.11965139  1  0  0.227416  0  3.844075  0  0  0.205764  0  4.114004  0  0  0.216175  0  4.129275  0  0.429927  0  0.074087  0.19859  0  4.103313  0
C  C64  1  0.10847882  0.92390506  0.65211653  1  0  0.107359  0  3.613339  0  0  0.045038  0  3.888886  0  0  0.053483  0  3.893735  0  0.414556  0  -0.065477  0.039211  0  3.885412  0
C  C65  1  0.89152094  0.07609532  0.34788432  1  0  0.107241  0  3.613406  0  0  0.045001  0  3.888838  0  0  0.053448  0  3.893691  0  0.414788  0  -0.065472  0.039176  0  3.885364  0
C  C66  1  0.14871004  0.81410496  0.55526761  1  0  -0.175724  0  3.715403  0  0  -0.223903  0  3.982595  0  0  -0.225516  0  3.994736  0  -0.055406  0  -0.169162  -0.222556  0  3.973718  0
C  C67  1  0.85128912  0.18589443  0.44473348  1  0  -0.175701  0  3.715309  0  0  -0.223904  0  3.982503  0  0  -0.225533  0  3.994662  0  -0.055392  0  -0.169185  -0.222561  0  3.973633  0
C  C68  1  0.24573505  0.68001776  0.59318648  1  0  0.08942  0  3.64026  0  0  0.036125  0  3.908773  0  0  0.042569  0  3.915697  0  0.4281  0  -0.0782  0.031845  0  3.903918  0
C  C69  1  0.75426471  0.31998262  0.40681437  1  0  0.089421  0  3.640264  0  0  0.03612  0  3.908792  0  0  0.042564  0  3.915722  0  0.428101  0  -0.078204  0.031841  0  3.903935  0
C  C70  1  0.45879431  0.57927833  0.66267925  1  0  -0.095112  0  3.71081  0  0  -0.186063  0  3.97947  0  0  -0.180659  0  3.98339  0  0.361911  0  -0.15209  -0.189509  0  3.976494  0
C  C71  1  0.54120545  0.42072205  0.33732160  1  0  -0.09507  0  3.710835  0  0  -0.186023  0  3.979499  0  0  -0.180621  0  3.983421  0  0.361904  0  -0.15209  -0.189468  0  3.976522  0
C  C72  1  0.98742439  0.49169084  0.76797274  1  0  0.693847  0  3.87385  0  0  0.641687  0  4.162399  0  0  0.677921  0  4.152561  0  1.596645  0  0.2208  0.61665  0  4.168993  0
C  C73  1  0.01257955  0.50830655  0.23202641  1  0  0.693922  0  3.873784  0  0  0.641763  0  4.162328  0  0  0.677999  0  4.152492  0  1.596693  0  0.220824  0.616727  0  4.168924  0
C  C74  1  0.90597408  0.60748764  0.58026566  1  0  -0.1731  0  3.744401  0  0  -0.206013  0  3.999559  0  0  -0.208285  0  4.017792  0  0.023458  0  -0.094043  -0.204644  0  3.987643  0
C  C75  1  0.09402508  0.39251175  0.41973358  1  0  -0.173275  0  3.744429  0  0  -0.2062  0  3.999619  0  0  -0.208473  0  4.017852  0  0.023509  0  -0.094101  -0.20483  0  3.987703  0
C  C76  1  0.99117027  0.49166002  0.63022293  1  0  -0.121746  0  3.749282  0  0  -0.10688  0  3.986936  0  0  -0.113351  0  4.006104  0  -0.006992  0  -0.019278  -0.102086  0  3.973965  0
C  C77  1  0.00882890  0.50833937  0.36977723  1  0  -0.121685  0  3.749272  0  0  -0.106819  0  3.986929  0  0  -0.11329  0  4.006099  0  -0.007033  0  -0.019242  -0.102026  0  3.973958  0
C  C78  1  0.08475414  0.38239295  0.54981772  1  0  0.236733  0  3.821287  0  0  0.221239  0  4.088423  0  0  0.22937  0  4.105571  0  0.451578  0  0.077967  0.215558  0  4.076844  0
C  C79  1  0.91524602  0.61760643  0.45018219  1  0  0.236635  0  3.821396  0  0  0.221138  0  4.088538  0  0  0.229265  0  4.105691  0  0.451569  0  0.077922  0.215458  0  4.076958  0
C  C80  1  0.31027457  0.24006155  0.58420924  1  0  0.111803  0  3.600748  0  0  0.051916  0  3.879699  0  0  0.058872  0  3.884678  0  0.400619  0  -0.066633  0.047361  0  3.876171  0
C  C81  1  0.68972519  0.75993883  0.41578978  1  0  0.111725  0  3.600793  0  0  0.051849  0  3.879743  0  0  0.058811  0  3.884723  0  0.400615  0  -0.066651  0.047295  0  3.876215  0
C  C82  1  0.36868329  0.12897658  0.67248221  1  0  -0.174053  0  3.697473  0  0  -0.21828  0  3.961687  0  0  -0.220789  0  3.97425  0  0.010339  0  -0.1696  -0.216337  0  3.952957  0
C  C83  1  0.63131548  0.87102379  0.32751797  1  0  -0.174002  0  3.697507  0  0  -0.218206  0  3.961687  0  0  -0.220736  0  3.97428  0  0.010305  0  -0.169597  -0.216264  0  3.952957  0
C  C84  1  0.52475721  0.10092838  0.66471288  1  0  0.102627  0  3.659926  0  0  0.051076  0  3.925478  0  0  0.057433  0  3.933419  0  0.464521  0  -0.070686  0.046918  0  3.919777  0
C  C85  1  0.47524256  0.89907200  0.33528706  1  0  0.102621  0  3.659977  0  0  0.051069  0  3.925537  0  0  0.05743  0  3.933481  0  0.464522  0  -0.070679  0.046911  0  3.919836  0
C  C86  1  0.72048347  0.96495902  0.74592648  1  0  -0.084652  0  3.713114  0  0  -0.179508  0  3.988232  0  0  -0.173418  0  3.991937  0  0.401508  0  -0.152154  -0.183458  0  3.985671  0
C  C87  1  0.27951629  0.03504136  0.25407253  1  0  -0.084674  0  3.713189  0  0  -0.179508  0  3.988309  0  0  -0.173413  0  3.992005  0  0.401537  0  -0.152162  -0.183453  0  3.985749  0
C  C88  1  0.43528001  0.29479353  0.98514898  1  0  0.40012  0  3.765978  0  0  0.32441  0  4.04406  0  0  0.353301  0  4.044681  0  1.353313  0  0.186875  0.304986  0  4.043109  0
C  C89  1  0.56471935  0.70520784  0.01485005  1  0  0.400041  0  3.766146  0  0  0.324326  0  4.044233  0  0  0.353215  0  4.044853  0  1.353316  0  0.186867  0.304908  0  4.043277  0
C  C90  1  0.65813718  0.32937047  0.89852212  1  0  -0.173109  0  3.625352  0  0  -0.27281  0  3.866292  0  0  -0.269146  0  3.876011  0  0.261396  0  -0.133837  -0.274954  0  3.859914  0
C  C91  1  0.34186457  0.67062991  0.10147824  1  0  -0.173186  0  3.625523  0  0  -0.272879  0  3.866451  0  0  -0.269215  0  3.87617  0  0.261386  0  -0.133871  -0.275017  0  3.860073  0
C  C92  1  0.64051716  0.16104247  0.06620676  1  0  -0.184877  0  3.631979  0  0  -0.283684  0  3.877073  0  0  -0.28143  0  3.889461  0  0.246961  0  -0.133661  -0.284844  0  3.868779  0
C  C93  1  0.35948161  0.83895791  0.93379342  1  0  -0.184812  0  3.631933  0  0  -0.283619  0  3.877023  0  0  -0.281375  0  3.889399  0  0.246667  0  -0.133651  -0.28477  0  3.868721  0
N  N94  1  0.57216203  0.26260533  0.98250113  1  0  -0.070418  0  3.506476  0  0  0.034676  0  3.737796  0  0  0.014796  0  3.76331  0  -1.224229  0  -0.271932  0.047814  0  3.720167  0
N  N95  1  0.42784052  0.73739306  0.01749828  1  0  -0.070383  0  3.506614  0  0  0.034708  0  3.737944  0  0  0.014828  0  3.763463  0  -1.223908  0  -0.27192  0.047838  0  3.720315  0
O  O96  1  0.10403596  0.64922978  0.95428351  1  0  -0.637003  0  2.071963  0  0  -0.575568  0  2.342132  0  0  -0.603919  0  2.326686  0  -1.174966  0  -0.307779  -0.55585  0  2.351798  0
O  O97  1  0.89596340  0.35077160  0.04571828  1  0  -0.636958  0  2.071974  0  0  -0.575563  0  2.342093  0  0  -0.603916  0  2.32665  0  -1.174951  0  -0.307797  -0.555853  0  2.351783  0
O  O98  1  0.86045025  0.73716334  0.00678270  1  0  -0.630111  0  2.044166  0  0  -0.569817  0  2.304202  0  0  -0.599041  0  2.290847  0  -1.155808  0  -0.309165  -0.549949  0  2.313104  0
O  O99  1  0.13954971  0.26283406  0.99321743  1  0  -0.630037  0  2.044312  0  0  -0.569795  0  2.304301  0  0  -0.599015  0  2.290946  0  -1.155821  0  -0.309164  -0.549926  0  2.313203  0
O  O100  1  0.03314414  0.88588922  0.76975851  1  0  -0.29456  0  2.338613  0  0  -0.215722  0  2.57395  0  0  -0.234852  0  2.578569  0  -1.078504  0  -0.182723  -0.202709  0  2.570533  0
O  O101  1  0.96685562  0.11411116  0.23024234  1  0  -0.294548  0  2.338631  0  0  -0.215707  0  2.573928  0  0  -0.234834  0  2.578549  0  -1.078503  0  -0.182747  -0.202699  0  2.570517  0
O  O102  1  0.37796139  0.68900385  0.59793631  1  0  -0.297484  0  2.257532  0  0  -0.224806  0  2.513918  0  0  -0.240215  0  2.515574  0  -1.063921  0  -0.250088  -0.213928  0  2.51243  0
O  O103  1  0.62203838  0.31099653  0.40206454  1  0  -0.297493  0  2.25754  0  0  -0.224817  0  2.51393  0  0  -0.240224  0  2.515585  0  -1.063923  0  -0.250071  -0.21394  0  2.512442  0
O  O104  1  0.10865586  0.44904174  0.79433053  1  0  -0.626957  0  2.104576  0  0  -0.560385  0  2.37157  0  0  -0.589557  0  2.35743  0  -1.159654  0  -0.304061  -0.540456  0  2.381026  0
O  O105  1  0.89134371  0.55095665  0.20566778  1  0  -0.627012  0  2.104443  0  0  -0.560443  0  2.371438  0  0  -0.589604  0  2.357272  0  -1.15955  0  -0.30407  -0.540513  0  2.380895  0
O  O106  1  0.86506539  0.53830293  0.84542011  1  0  -0.64097  0  2.055384  0  0  -0.577397  0  2.310208  0  0  -0.606721  0  2.297176  0  -1.166434  0  -0.317021  -0.556758  0  2.318597  0
O  O107  1  0.13493477  0.46169645  0.15458073  1  0  -0.640974  0  2.05546  0  0  -0.577401  0  2.31029  0  0  -0.606725  0  2.297258  0  -1.16654  0  -0.317029  -0.556763  0  2.31868  0
O  O108  1  0.15997736  0.26396776  0.60027562  1  0  -0.327636  0  2.258086  0  0  -0.265471  0  2.504907  0  0  -0.279831  0  2.504836  0  -1.086976  0  -0.211013  -0.255417  0  2.504421  0
O  O109  1  0.84002181  0.73603162  0.39972363  1  0  -0.327632  0  2.258114  0  0  -0.265465  0  2.504928  0  0  -0.279823  0  2.504856  0  -1.086958  0  -0.211006  -0.255412  0  2.504442  0
O  O110  1  0.57402406  0.99636656  0.75003626  1  0  -0.292608  0  2.271286  0  0  -0.217561  0  2.522889  0  0  -0.232636  0  2.523445  0  -1.070562  0  -0.246396  -0.206715  0  2.521754  0
O  O111  1  0.42597471  0.00363382  0.24996392  1  0  -0.292608  0  2.271308  0  0  -0.21757  0  2.522905  0  0  -0.232645  0  2.523459  0  -1.070555  0  -0.246389  -0.20672  0  2.521765  0
O  O112  1  0.37017723  0.38263859  0.91536539  1  0  -0.533053  0  2.101888  0  0  -0.462468  0  2.36869  0  0  -0.489298  0  2.357129  0  -1.16025  0  -0.30308  -0.444161  0  2.376234  0
O  O113  1  0.62982591  0.61736080  0.08463379  1  0  -0.533027  0  2.10194  0  0  -0.462428  0  2.368724  0  0  -0.489255  0  2.35716  0  -1.160237  0  -0.303065  -0.444122  0  2.376265  0
