# generated using pymatgen
data_MnH17C19SN3O7
_symmetry_space_group_name_H-M   'P 1'
_cell_length_a   8.51462246
_cell_length_b   11.59682805
_cell_length_c   27.27517520
_cell_angle_alpha   101.02787910
_cell_angle_beta   89.99981052
_cell_angle_gamma   90.00041028
_symmetry_Int_Tables_number   1
_chemical_formula_structural   MnH17C19SN3O7
_chemical_formula_sum   'Mn4 H68 C76 S4 N12 O28'
_cell_volume   2643.48961938
_cell_formula_units_Z   4
loop_
 _symmetry_equiv_pos_site_id
 _symmetry_equiv_pos_as_xyz
  1  'x, y, z'
loop_
 _atom_site_type_symbol
 _atom_site_label
 _atom_site_symmetry_multiplicity
 _atom_site_fract_x
 _atom_site_fract_y
 _atom_site_fract_z
 _atom_site_occupancy
 _atom_site_pbe_bader_charge
 _atom_site_pbe_bader_spin_density
 _atom_site_pbe_cm5_charge
 _atom_site_pbe_ddec_charge
 _atom_site_pbe_ddec_spin_density
 _atom_site_pbe_ddec_sum_bond_order
 _atom_site_pbe_magmom
Mn  Mn0  1  0.36628813  0.74490315  0.80281907  1  1.508728  4.551294  0.596534  0.917118  4.680412  2.360039  4.479
Mn  Mn1  1  0.86629564  0.75509788  0.69717898  1  1.50877  4.55124  0.596403  0.917041  4.680376  2.360208  4.479
Mn  Mn2  1  0.63371357  0.25509619  0.19718175  1  1.508822  4.551245  0.596483  0.917054  4.68039  2.360203  4.479
Mn  Mn3  1  0.13370959  0.24490501  0.30281920  1  1.508695  4.551238  0.596433  0.917064  4.680361  2.36019  4.479
H  H4  1  0.11059131  0.75635746  0.85494303  1  0.658875  0.000985  0.283287  0.362115  0.001167  0.998039  0.002
H  H5  1  0.61059691  0.74364577  0.64505987  1  0.659624  0.000984  0.283359  0.362155  0.001166  0.99797  0.002
H  H6  1  0.88941039  0.24364367  0.14505610  1  0.659333  0.000986  0.283272  0.362118  0.001167  0.998023  0.002
H  H7  1  0.38940949  0.25636139  0.35494930  1  0.659209  0.000988  0.283267  0.362095  0.001168  0.998012  0.002
H  H8  1  0.03371801  0.76754190  0.80184389  1  0.647071  0.002167  0.293724  0.382087  0.000905  0.963709  0.003
H  H9  1  0.53372529  0.73246277  0.69815408  1  0.647105  0.002166  0.293779  0.382108  0.000903  0.963678  0.003
H  H10  1  0.96628722  0.23246010  0.19815605  1  0.647073  0.002168  0.293705  0.382056  0.000906  0.963757  0.003
H  H11  1  0.46629756  0.26754453  0.30184300  1  0.646938  0.002172  0.293701  0.38209  0.000908  0.963675  0.003
H  H12  1  0.96202820  0.89299234  0.90137095  1  0.522681  8.9e-05  0.305094  0.293581  7.8e-05  0.995536  0.0
H  H13  1  0.46202736  0.60700566  0.59862675  1  0.522648  8.9e-05  0.305067  0.293555  7.8e-05  0.995517  0.0
H  H14  1  0.03797703  0.10700174  0.09862907  1  0.522717  8.9e-05  0.305124  0.293579  7.8e-05  0.995531  0.0
H  H15  1  0.53797434  0.39299460  0.40137157  1  0.522679  8.9e-05  0.305079  0.293537  7.8e-05  0.995557  0.0
H  H16  1  0.76180151  0.75917931  0.88039663  1  0.084141  0.001059  0.127859  0.132137  0.000513  0.928807  0.0
H  H17  1  0.26180411  0.74082034  0.61960032  1  0.084103  0.001059  0.127863  0.132104  0.000513  0.928773  0.0
H  H18  1  0.23820606  0.24081303  0.11960141  1  0.084181  0.001059  0.127873  0.132109  0.000513  0.928866  0.0
H  H19  1  0.73820229  0.25918605  0.38039962  1  0.08421  0.001059  0.12788  0.132147  0.000513  0.928831  0.0
H  H20  1  0.63029303  0.87222583  0.87549629  1  0.085121  0.001128  0.113383  0.105277  0.000522  1.034662  0.001
H  H21  1  0.13029212  0.62777576  0.62450462  1  0.085208  0.001129  0.113367  0.105209  0.000523  1.03463  0.001
H  H22  1  0.36971102  0.12776824  0.12450446  1  0.085069  0.001128  0.113405  0.105312  0.000522  1.034558  0.001
H  H23  1  0.86970723  0.37223151  0.37549539  1  0.085152  0.001129  0.113368  0.105266  0.000522  1.034668  0.001
H  H24  1  0.88774816  0.12050158  0.99554666  1  0.141019  6.1e-05  0.108275  0.11862  2.1e-05  1.005243  0.0
H  H25  1  0.38774511  0.37949457  0.50445413  1  0.141091  6.1e-05  0.108261  0.118589  2.1e-05  1.005221  0.0
H  H26  1  0.11225236  0.87949339  0.00445270  1  0.141043  6.1e-05  0.108263  0.118585  2.1e-05  1.005209  0.0
H  H27  1  0.61225424  0.62050215  0.49554500  1  0.141111  6.1e-05  0.108272  0.118606  2.1e-05  1.005207  0.0
H  H28  1  0.41456985  0.18897875  0.04707501  1  0.086926  0.000308  0.104555  0.102592  -9e-06  1.022577  0.0
H  H29  1  0.91456230  0.31102734  0.45292825  1  0.086842  0.000308  0.104565  0.102617  -9e-06  1.022564  0.0
H  H30  1  0.58543420  0.81102150  0.95292405  1  0.08687  0.000308  0.104547  0.102589  -9e-06  1.022635  0.0
H  H31  1  0.08543823  0.68897024  0.54707352  1  0.086835  0.000308  0.104534  0.102579  -9e-06  1.022528  0.0
H  H32  1  0.31656871  0.14410253  0.95887928  1  0.063459  2.4e-05  0.105979  0.113012  -1e-06  0.985775  0.0
H  H33  1  0.81656241  0.35590203  0.54112375  1  0.063423  2.4e-05  0.106008  0.113037  -1e-06  0.985584  0.0
H  H34  1  0.68343181  0.85589420  0.04111949  1  0.063441  2.4e-05  0.106028  0.113015  -1e-06  0.98571  0.0
H  H35  1  0.18343577  0.64409731  0.45887706  1  0.063371  2.4e-05  0.105987  0.112984  -1e-06  0.98572  0.0
H  H36  1  0.50853153  0.09086363  0.88892036  1  0.122464  5.1e-05  0.102551  0.102214  -0.000115  1.043096  0.0
H  H37  1  0.00852882  0.40913502  0.61108213  1  0.122586  5.1e-05  0.102542  0.102204  -0.000116  1.043108  0.0
H  H38  1  0.49147017  0.90912695  0.11107789  1  0.122522  5.1e-05  0.102591  0.102226  -0.000115  1.04313  0.0
H  H39  1  0.99147288  0.59086695  0.38891927  1  0.122429  5.1e-05  0.102545  0.102193  -0.000116  1.043173  0.0
H  H40  1  0.55099390  0.92396882  0.74821752  1  0.172289  0.001033  0.12259  0.098513  0.000106  1.020891  0.001
H  H41  1  0.05098880  0.57603503  0.75178219  1  0.172205  0.001033  0.122613  0.09859  0.000106  1.02095  0.001
H  H42  1  0.44900193  0.07602963  0.25178432  1  0.172292  0.001033  0.122593  0.098531  0.000106  1.020872  0.001
H  H43  1  0.94899998  0.42397401  0.24821650  1  0.172254  0.001034  0.122635  0.098679  0.000107  1.02089  0.001
H  H44  1  0.56413919  0.13720088  0.74846732  1  0.08951  0.000613  0.10702  0.11104  0.000316  1.017978  0.0
H  H45  1  0.06413338  0.36280597  0.75153397  1  0.089542  0.000613  0.10703  0.111049  0.000316  1.018002  0.0
H  H46  1  0.43586134  0.86279670  0.25153335  1  0.089507  0.000613  0.107006  0.111009  0.000316  1.017984  0.0
H  H47  1  0.93586128  0.63720043  0.24846524  1  0.089374  0.000613  0.106977  0.110929  0.000316  1.01809  0.0
H  H48  1  0.16975966  0.18098407  0.85108430  1  0.12488  0.000595  0.108391  0.121913  0.000336  1.027498  0.0
H  H49  1  0.66975304  0.31901363  0.64891831  1  0.12478  0.000595  0.108343  0.121869  0.000337  1.027489  0.0
H  H50  1  0.83024086  0.81901880  0.14891644  1  0.124792  0.000595  0.108362  0.121874  0.000337  1.027457  0.0
H  H51  1  0.33023340  0.68098661  0.35108148  1  0.124872  0.000595  0.108339  0.121844  0.000337  1.027461  0.0
H  H52  1  0.17997186  0.96864005  0.84877099  1  0.113007  0.001282  0.118393  0.083826  0.000787  1.032098  0.001
H  H53  1  0.67996004  0.53135649  0.65123202  1  0.112573  0.001282  0.118455  0.083939  0.000787  1.032149  0.001
H  H54  1  0.82002280  0.03136105  0.15123071  1  0.112964  0.001282  0.118344  0.083701  0.000787  1.032072  0.001
H  H55  1  0.32002287  0.46864465  0.34876601  1  0.112721  0.001283  0.118391  0.083763  0.000788  1.032117  0.001
H  H56  1  0.46457725  0.29810422  0.72628608  1  0.079742  0.000612  0.109466  0.117136  0.000343  1.007467  0.0
H  H57  1  0.96457991  0.20189847  0.77371407  1  0.07975  0.000612  0.10949  0.117181  0.000343  1.007569  0.0
H  H58  1  0.53542445  0.70189690  0.27371305  1  0.079725  0.000611  0.109463  0.117117  0.000343  1.007525  0.0
H  H59  1  0.03541944  0.79810703  0.22628726  1  0.07943  0.000612  0.10947  0.117159  0.000343  1.007491  0.0
H  H60  1  0.47360393  0.51455016  0.73359980  1  0.134904  0.001067  0.119896  0.091733  0.000328  1.02018  0.0
H  H61  1  0.97360826  0.98545400  0.76640134  1  0.134726  0.001067  0.119891  0.091658  0.000328  1.020179  0.0
H  H62  1  0.52639660  0.48545181  0.26640161  1  0.134718  0.001067  0.119893  0.091681  0.000328  1.020225  0.0
H  H63  1  0.02639344  0.01455147  0.23360219  1  0.134904  0.001067  0.119894  0.091641  0.000328  1.020165  0.0
H  H64  1  0.28417051  0.57113857  0.87580184  1  0.085081  0.001485  0.122009  0.091786  0.0007  0.989768  0.001
H  H65  1  0.78416287  0.92886288  0.62420146  1  0.085132  0.001485  0.122025  0.091828  0.0007  0.98981  0.001
H  H66  1  0.71583002  0.42885902  0.12419883  1  0.085077  0.001485  0.122001  0.091766  0.0007  0.989813  0.001
H  H67  1  0.21583883  0.07113557  0.37580075  1  0.085101  0.001486  0.121995  0.091767  0.000701  0.98975  0.001
H  H68  1  0.27412791  0.35680260  0.87622364  1  0.056066  0.00077  0.11378  0.124301  0.000437  0.991657  0.0
H  H69  1  0.77411865  0.14319737  0.62377868  1  0.056248  0.00077  0.113768  0.124323  0.000437  0.991563  0.0
H  H70  1  0.72587614  0.64319412  0.12377622  1  0.056093  0.00077  0.113768  0.124315  0.000437  0.991518  0.0
H  H71  1  0.22588423  0.85680287  0.37622111  1  0.056358  0.00077  0.113777  0.124332  0.000437  0.991772  0.0
C  C72  1  0.73845399  0.79161176  0.80659623  1  1.610792  0.017423  0.229833  0.620385  0.017316  4.117957  0.016
C  C73  1  0.23849308  0.70838600  0.69340205  1  1.610143  0.017445  0.229663  0.620207  0.017331  4.117477  0.016
C  C74  1  0.26154536  0.20838938  0.19340180  1  1.610686  0.017428  0.229805  0.620206  0.017321  4.118081  0.016
C  C75  1  0.76153564  0.29161071  0.30659818  1  1.610523  0.017436  0.229644  0.619976  0.017328  4.117885  0.016
C  C76  1  0.74670443  0.83688156  0.86316872  1  0.298357  0.003565  -0.059707  -0.155631  0.002525  3.927466  0.002
C  C77  1  0.24670843  0.66312326  0.63683124  1  0.298689  0.003566  -0.059599  -0.155326  0.002525  3.927233  0.002
C  C78  1  0.25329845  0.16311605  0.13683048  1  0.298393  0.003565  -0.059737  -0.155522  0.002526  3.927345  0.002
C  C79  1  0.75329210  0.33688311  0.36317090  1  0.298676  0.003566  -0.059665  -0.155533  0.002526  3.92751  0.002
C  C80  1  0.70778854  0.09996976  0.93839893  1  -0.290071  0.000128  -0.023166  -0.098726  5.3e-05  4.002691  0.0
C  C81  1  0.20778861  0.40002726  0.56160176  1  -0.290096  0.000128  -0.02317  -0.09866  5.3e-05  4.002726  0.0
C  C82  1  0.29221669  0.90002520  0.06160079  1  -0.290247  0.000128  -0.023108  -0.098583  5.4e-05  4.002659  0.0
C  C83  1  0.79222014  0.59997122  0.43839789  1  -0.290205  0.000128  -0.023202  -0.098747  5.3e-05  4.002861  0.0
C  C84  1  0.76285249  0.12409793  0.98745879  1  -0.010364  0.001526  -0.077586  -0.098188  0.001195  3.951389  0.001
C  C85  1  0.26284815  0.37590023  0.51254266  1  -0.010331  0.001526  -0.077569  -0.09811  0.001196  3.951303  0.001
C  C86  1  0.23715156  0.87589878  0.01254144  1  -0.010321  0.001525  -0.077679  -0.098265  0.001195  3.951521  0.001
C  C87  1  0.73715238  0.62409737  0.48745654  1  -0.010421  0.001526  -0.077527  -0.09808  0.001195  3.951472  0.001
C  C88  1  0.65633507  0.15667175  0.02662020  1  0.027231  0.001618  -0.015999  -0.03455  0.001086  3.972578  0.001
C  C89  1  0.15632908  0.34332693  0.47338051  1  0.027235  0.001618  -0.016059  -0.034685  0.001085  3.972772  0.001
C  C90  1  0.34366546  0.84332673  0.97337944  1  0.027142  0.001619  -0.015941  -0.034476  0.001086  3.972559  0.001
C  C91  1  0.84366675  0.65666717  0.52661767  1  0.027033  0.001618  -0.016079  -0.034629  0.001086  3.972611  0.001
C  C92  1  0.49567625  0.16321452  0.01608893  1  -0.014315  0.001153  -0.076476  -0.075998  0.000713  3.949596  0.001
C  C93  1  0.99567332  0.33678760  0.48391208  1  -0.014194  0.001154  -0.076463  -0.076026  0.000714  3.949689  0.001
C  C94  1  0.50432898  0.83678484  0.98391116  1  -0.014228  0.001153  -0.076506  -0.076111  0.000713  3.949591  0.001
C  C95  1  0.00432956  0.66320826  0.51608661  1  -0.013823  0.001153  -0.076452  -0.076068  0.000714  3.949371  0.001
C  C96  1  0.44160179  0.13859051  0.96692852  1  0.015732  -0.00013  -0.086009  -0.079139  -0.000184  3.989353  0.0
C  C97  1  0.94159797  0.36141029  0.53307334  1  0.016158  -0.00013  -0.086043  -0.079091  -0.000184  3.98901  0.0
C  C98  1  0.55839874  0.86140533  0.03307127  1  0.016149  -0.00013  -0.086075  -0.079079  -0.000184  3.989254  0.0
C  C99  1  0.05840256  0.63858469  0.46692418  1  0.016186  -0.00013  -0.085959  -0.07897  -0.000184  3.989214  0.0
C  C100  1  0.54789780  0.10739053  0.92760203  1  -0.051531  0.000979  -0.081208  -0.078753  0.000693  3.967308  0.001
C  C101  1  0.04789534  0.39260834  0.57239897  1  -0.05219  0.000979  -0.0812  -0.078804  0.000694  3.967351  0.001
C  C102  1  0.45210742  0.89260356  0.07239761  1  -0.051745  0.000979  -0.081275  -0.078874  0.000693  3.967446  0.001
C  C103  1  0.95210871  0.60739102  0.42760075  1  -0.052022  0.000979  -0.081245  -0.078793  0.000693  3.967598  0.001
C  C104  1  0.71627653  0.18750800  0.07941920  1  1.521226  0.006647  0.21397  0.57474  0.006095  4.202382  0.006
C  C105  1  0.21627315  0.31249361  0.42058243  1  1.521339  0.00665  0.213941  0.57477  0.006097  4.202256  0.006
C  C106  1  0.28372634  0.81249137  0.92058015  1  1.521286  0.006646  0.214001  0.574829  0.006094  4.202362  0.006
C  C107  1  0.78372268  0.68750750  0.57941744  1  1.521343  0.006649  0.213983  0.57484  0.006096  4.202305  0.006
C  C108  1  0.46912081  0.98420785  0.77076416  1  0.421942  0.008222  0.054525  0.108694  0.006064  3.912002  0.005
C  C109  1  0.96911506  0.51579894  0.72923647  1  0.422026  0.008221  0.054511  0.108551  0.006064  3.912151  0.005
C  C110  1  0.53087737  0.01578974  0.22923651  1  0.421807  0.008224  0.054537  0.108705  0.006065  3.91197  0.005
C  C111  1  0.03087372  0.48420747  0.27076237  1  0.421949  0.008221  0.054407  0.108363  0.006063  3.912526  0.005
C  C112  1  0.47366044  0.10378633  0.77029715  1  0.020745  0.00057  -0.074679  -0.149929  3.6e-05  3.913183  0.0
C  C113  1  0.97365372  0.39621639  0.72970446  1  0.020804  0.00057  -0.074654  -0.149864  3.6e-05  3.913118  0.0
C  C114  1  0.52634008  0.89621039  0.22970308  1  0.020807  0.000571  -0.074697  -0.149887  3.7e-05  3.913223  0.0
C  C115  1  0.02632801  0.60378211  0.27029298  1  0.020489  0.000571  -0.07456  -0.149616  3.7e-05  3.913273  0.0
C  C116  1  0.36689962  0.17965547  0.79949057  1  -0.040078  0.006227  0.011648  0.099107  0.004773  3.98527  0.004
C  C117  1  0.86689481  0.32034673  0.70051074  1  -0.039766  0.006226  0.011585  0.099036  0.004773  3.985551  0.004
C  C118  1  0.63309974  0.82034300  0.20050981  1  -0.040285  0.006229  0.011664  0.099073  0.004774  3.985359  0.004
C  C119  1  0.13309163  0.67964912  0.29948832  1  -0.03977  0.006229  0.011595  0.098934  0.004775  3.984932  0.004
C  C120  1  0.25823321  0.12913685  0.82783448  1  -0.039939  0.00074  -0.082953  -0.17957  0.000174  3.941653  0.0
C  C121  1  0.75822803  0.37086303  0.67216895  1  -0.039792  0.00074  -0.082935  -0.179583  0.000174  3.941875  0.0
C  C122  1  0.74176614  0.87086689  0.17216634  1  -0.039606  0.00074  -0.082916  -0.179552  0.000174  3.94161  0.0
C  C123  1  0.24176545  0.62913279  0.32783303  1  -0.039859  0.00074  -0.082926  -0.17954  0.000174  3.941602  0.0
C  C124  1  0.26235848  0.00885825  0.82649855  1  0.479207  0.007486  0.050604  0.099692  0.005934  3.946877  0.005
C  C125  1  0.76234741  0.49114256  0.67350239  1  0.479479  0.007486  0.050588  0.099657  0.005933  3.946943  0.005
C  C126  1  0.73764088  0.99114110  0.17350153  1  0.479337  0.007485  0.050611  0.099844  0.005933  3.94682  0.005
C  C127  1  0.23763668  0.50885946  0.32649572  1  0.479715  0.007483  0.050582  0.099778  0.005932  3.946853  0.005
C  C128  1  0.37053633  0.30752086  0.80115981  1  -0.052814  0.005867  0.011578  0.099934  0.00449  3.991268  0.003
C  C129  1  0.87053499  0.19248310  0.69884201  1  -0.053264  0.005866  0.011719  0.100212  0.004488  3.990955  0.003
C  C130  1  0.62946655  0.69248025  0.19884005  1  -0.052922  0.005868  0.011564  0.099981  0.004491  3.991219  0.003
C  C131  1  0.12946437  0.80752854  0.30116020  1  -0.052878  0.005868  0.011636  0.100051  0.004491  3.990743  0.003
C  C132  1  0.42730970  0.35457187  0.76090716  1  -0.002598  0.001113  -0.078336  -0.166797  0.000501  3.928546  0.0
C  C133  1  0.92731451  0.14543061  0.73909522  1  -0.002763  0.001113  -0.078364  -0.166974  0.000501  3.928536  0.0
C  C134  1  0.57268966  0.64542835  0.23909373  1  -0.002569  0.001114  -0.078344  -0.166822  0.000501  3.928505  0.0
C  C135  1  0.07268132  0.85458193  0.26090560  1  -0.001978  0.001114  -0.078468  -0.167062  0.000501  3.928896  0.0
C  C136  1  0.43168979  0.47568947  0.76446772  1  0.480034  0.00729  0.057474  0.113314  0.005551  3.923686  0.005
C  C137  1  0.93169229  0.02431480  0.73553407  1  0.480322  0.007286  0.057528  0.113547  0.005548  3.923581  0.005
C  C138  1  0.56831191  0.52431250  0.23553442  1  0.48035  0.007288  0.057514  0.113467  0.00555  3.923582  0.005
C  C139  1  0.06831059  0.97569068  0.26446872  1  0.479905  0.007285  0.057607  0.113646  0.005546  3.923959  0.005
C  C140  1  0.32468420  0.50716656  0.84363966  1  0.524994  0.006833  0.055841  0.103271  0.005083  3.953108  0.004
C  C141  1  0.82467920  0.99283335  0.65636200  1  0.524897  0.006832  0.055846  0.103264  0.005084  3.953043  0.004
C  C142  1  0.67531868  0.49283191  0.15636108  1  0.524956  0.006834  0.055878  0.103339  0.005085  3.953024  0.004
C  C143  1  0.17532368  0.00716687  0.34363889  1  0.524761  0.006831  0.055805  0.103252  0.005082  3.953407  0.004
C  C144  1  0.31777902  0.38736896  0.84337921  1  -0.01946  0.001093  -0.083049  -0.182492  0.000488  3.951807  0.0
C  C145  1  0.81777734  0.11263297  0.65662434  1  -0.019523  0.001094  -0.083259  -0.182817  0.000489  3.951752  0.0
C  C146  1  0.68222150  0.61263038  0.15662234  1  -0.019432  0.001093  -0.083078  -0.182609  0.000489  3.951762  0.0
C  C147  1  0.18222789  0.88737688  0.34338029  1  -0.019833  0.001094  -0.083108  -0.182656  0.000489  3.952293  0.0
S  S148  1  0.84511354  0.06067733  0.88890151  1  2.970777  0.000251  0.55239  1.083653  0.000227  5.987176  0.0
S  S149  1  0.34511230  0.43932652  0.61109923  1  2.970772  0.000251  0.552396  1.083543  0.000228  5.987407  0.0
S  S150  1  0.15488699  0.93932027  0.11109843  1  2.97025  0.000251  0.552346  1.083611  0.000227  5.987382  0.0
S  S151  1  0.65488000  0.56067809  0.38890202  1  2.970506  0.000251  0.552275  1.083497  0.000227  5.987216  0.0
N  N152  1  0.87199156  0.91931337  0.88086770  1  -1.355  0.001192  -0.465578  -0.472962  0.000367  3.522171  0.0
N  N153  1  0.37199025  0.58068417  0.61913152  1  -1.355426  0.001192  -0.465579  -0.473063  0.000366  3.522507  0.0
N  N154  1  0.12801132  0.08068247  0.11913246  1  -1.355017  0.001192  -0.465623  -0.473024  0.000367  3.522445  0.0
N  N155  1  0.62801028  0.41931345  0.38086659  1  -1.355392  0.001192  -0.465565  -0.472885  0.000367  3.522335  0.0
N  N156  1  0.36607534  0.93664336  0.79869095  1  -1.260348  0.049894  -0.315522  -0.253586  0.033605  3.494741  0.015
N  N157  1  0.86607036  0.56335587  0.70131062  1  -1.260335  0.049892  -0.315581  -0.253635  0.033607  3.49497  0.015
N  N158  1  0.63392166  0.06335510  0.20130979  1  -1.260417  0.049895  -0.315495  -0.253621  0.033604  3.494775  0.015
N  N159  1  0.13391373  0.43664878  0.29868771  1  -1.260542  0.049903  -0.315471  -0.253498  0.033606  3.49495  0.015
N  N160  1  0.38156324  0.55145391  0.80506656  1  -1.24365  0.050562  -0.312237  -0.235682  0.034123  3.468839  0.019
N  N161  1  0.88156327  0.94855066  0.69493654  1  -1.243672  0.050569  -0.31226  -0.235709  0.034123  3.468748  0.019
N  N162  1  0.61843846  0.44854631  0.19493543  1  -1.243859  0.050582  -0.312276  -0.235741  0.034125  3.468651  0.019
N  N163  1  0.11844078  0.05145041  0.30506699  1  -1.243597  0.050559  -0.312226  -0.235629  0.034123  3.468829  0.019
O  O164  1  0.61414061  0.73893289  0.78989834  1  -1.215357  0.063678  -0.305986  -0.551674  0.044471  2.342246  0.028
O  O165  1  0.11413424  0.76109148  0.71010265  1  -1.21468  0.063702  -0.306062  -0.551961  0.044491  2.340887  0.028
O  O166  1  0.38585874  0.26107439  0.21010057  1  -1.215377  0.063681  -0.305924  -0.551569  0.044471  2.34208  0.028
O  O167  1  0.88586042  0.23891753  0.28989897  1  -1.215136  0.063683  -0.305876  -0.551552  0.04447  2.341699  0.028
O  O168  1  0.85634316  0.80569339  0.77949213  1  -1.211481  0.066653  -0.297508  -0.549033  0.047631  2.360559  0.034
O  O169  1  0.35633250  0.69430937  0.72050387  1  -1.211591  0.066657  -0.297381  -0.548707  0.047626  2.361275  0.034
O  O170  1  0.14366089  0.19430685  0.22050693  1  -1.211429  0.066663  -0.297557  -0.549027  0.047634  2.360709  0.034
O  O171  1  0.64366803  0.30569089  0.27949372  1  -1.2115  0.066668  -0.29744  -0.548755  0.047631  2.360851  0.034
O  O172  1  0.77129383  0.08619079  0.84442471  1  -1.31428  0.000307  -0.316585  -0.540217  9e-06  2.187467  0.0
O  O173  1  0.27128718  0.41381094  0.65557630  1  -1.314339  0.000307  -0.316544  -0.540112  9e-06  2.187376  0.0
O  O174  1  0.22871257  0.91380328  0.15557567  1  -1.314182  0.000307  -0.316536  -0.540168  9e-06  2.187242  0.0
O  O175  1  0.72871687  0.58619284  0.34442159  1  -1.314116  0.000307  -0.316533  -0.540197  9e-06  2.186961  0.0
O  O176  1  0.99488429  0.11274213  0.90601385  1  -1.324241  0.000138  -0.325252  -0.552302  1.8e-05  2.167807  0.0
O  O177  1  0.49488155  0.38725719  0.59398635  1  -1.324155  0.000138  -0.325255  -0.552276  1.8e-05  2.167688  0.0
O  O178  1  0.00511741  0.88725282  0.09398660  1  -1.323937  0.000138  -0.325198  -0.55227  1.8e-05  2.167897  0.0
O  O179  1  0.50512250  0.61274570  0.40601183  1  -1.324252  0.000138  -0.32518  -0.55223  1.8e-05  2.168202  0.0
O  O180  1  0.86484683  0.19390025  0.08581756  1  -1.167064  0.005212  -0.326297  -0.565421  0.003101  2.196286  0.004
O  O181  1  0.36483875  0.30610035  0.41418309  1  -1.167077  0.005213  -0.326226  -0.565367  0.003102  2.196374  0.004
O  O182  1  0.13515252  0.80609999  0.91418223  1  -1.167043  0.005212  -0.326316  -0.565457  0.003101  2.196148  0.004
O  O183  1  0.63515825  0.69389991  0.58581524  1  -1.167131  0.005212  -0.326287  -0.565464  0.0031  2.196349  0.004
O  O184  1  0.61465245  0.20798105  0.11433402  1  -1.20713  0.053779  -0.311698  -0.570282  0.03951  2.307938  0.025
O  O185  1  0.11464218  0.29202183  0.38566635  1  -1.207136  0.053779  -0.311676  -0.570279  0.039509  2.30772  0.025
O  O186  1  0.38534925  0.79201919  0.88566613  1  -1.207196  0.053787  -0.311659  -0.570265  0.039513  2.30802  0.025
O  O187  1  0.88535482  0.70797930  0.61433242  1  -1.207114  0.05379  -0.311684  -0.570338  0.039512  2.307734  0.025
O  O188  1  0.11902980  0.72875478  0.81760726  1  -1.327125  0.065359  -0.58471  -0.780787  0.047514  2.193045  0.03
O  O189  1  0.61902705  0.77123541  0.68238612  1  -1.327925  0.06535  -0.584795  -0.780791  0.0475  2.193252  0.03
O  O190  1  0.88096838  0.27124809  0.18239275  1  -1.327578  0.065361  -0.584691  -0.780782  0.047515  2.193076  0.03
O  O191  1  0.38094999  0.22874384  0.31760386  1  -1.327299  0.065367  -0.584677  -0.780839  0.047523  2.193006  0.03
