# generated using pymatgen
data_CdH11C17N3O4
_symmetry_space_group_name_H-M   'P 1'
_cell_length_a   7.55622706
_cell_length_b   11.97908574
_cell_length_c   16.80000000
_cell_angle_alpha   98.95143740
_cell_angle_beta   90.00000000
_cell_angle_gamma   90.00000000
_symmetry_Int_Tables_number   1
_chemical_formula_structural   CdH11C17N3O4
_chemical_formula_sum   'Cd4 H44 C68 N12 O16'
_cell_volume   1502.15941049
_cell_formula_units_Z   4
loop_
 _symmetry_equiv_pos_site_id
 _symmetry_equiv_pos_as_xyz
  1  'x, y, z'
loop_
 _atom_site_type_symbol
 _atom_site_label
 _atom_site_symmetry_multiplicity
 _atom_site_fract_x
 _atom_site_fract_y
 _atom_site_fract_z
 _atom_site_occupancy
 _atom_site_hle17_bader_spin_density
 _atom_site_hle17_ddec_charge
 _atom_site_hle17_ddec_spin_density
 _atom_site_hle17_ddec_sum_bond_order
 _atom_site_hle17_magmom
 _atom_site_hse06_10hf_bader_spin_density
 _atom_site_hse06_10hf_ddec_charge
 _atom_site_hse06_10hf_ddec_spin_density
 _atom_site_hse06_10hf_ddec_sum_bond_order
 _atom_site_hse06_10hf_magmom
 _atom_site_hse06_bader_spin_density
 _atom_site_hse06_ddec_charge
 _atom_site_hse06_ddec_spin_density
 _atom_site_hse06_ddec_sum_bond_order
 _atom_site_hse06_magmom
 _atom_site_pbe_bader_charge
 _atom_site_pbe_bader_spin_density
 _atom_site_pbe_cm5_charge
 _atom_site_pbe_ddec_charge
 _atom_site_pbe_ddec_spin_density
 _atom_site_pbe_ddec_sum_bond_order
 _atom_site_pbe_magmom
Cd  Cd0  1  0.73535509  0.79130413  0.77720012  1  0  1.201732  0  1.629642  0  0  1.021676  0  2.078526  0  0  1.078648  0  2.022998  0  1.311069  0  0.788377  0.980901  0  2.116691  0
Cd  Cd1  1  0.23535555  0.70869663  0.72279934  1  0  1.201719  0  1.629657  0  0  1.021658  0  2.078549  0  0  1.078632  0  2.023019  0  1.311047  0  0.788359  0.980883  0  2.116712  0
Cd  Cd2  1  0.26464663  0.20869694  0.22279898  1  0  1.201718  0  1.629679  0  0  1.021648  0  2.078581  0  0  1.078622  0  2.023052  0  1.311058  0  0.788366  0.980874  0  2.116746  0
Cd  Cd3  1  0.76464616  0.29130359  0.27720027  1  0  1.201726  0  1.629657  0  0  1.021662  0  2.078553  0  0  1.078634  0  2.023024  0  1.311046  0  0.788372  0.980889  0  2.116717  0
H  H4  1  0.83261659  0.05846692  0.75369329  1  0  0.103362  0  0.962512  0  0  0.111011  0  1.029321  0  0  0.114206  0  1.025115  0  0.189417  0  0.134494  0.108625  0  1.032304  0
H  H5  1  0.33261706  0.44153362  0.74630716  1  0  0.103365  0  0.9625  0  0  0.11105  0  1.029271  0  0  0.114215  0  1.025103  0  0.189406  0  0.134518  0.108636  0  1.032285  0
H  H6  1  0.16738380  0.94153330  0.24630691  1  0  0.103364  0  0.96249  0  0  0.111047  0  1.029262  0  0  0.114212  0  1.025091  0  0.189416  0  0.134503  0.108635  0  1.032276  0
H  H7  1  0.66738201  0.55846661  0.25369364  1  0  0.103361  0  0.962477  0  0  0.111007  0  1.029285  0  0  0.1142  0  1.025084  0  0.189414  0  0.134498  0.10862  0  1.032269  0
H  H8  1  0.51087004  0.95356979  0.93199650  1  0  0.108975  0  0.957232  0  0  0.118711  0  1.01782  0  0  0.120834  0  1.017065  0  0.104584  0  0.120288  0.117154  0  1.018508  0
H  H9  1  0.01087183  0.54643097  0.56800415  1  0  0.109074  0  0.957202  0  0  0.1188  0  1.017787  0  0  0.120922  0  1.017032  0  0.104679  0  0.120333  0.117243  0  1.018476  0
H  H10  1  0.48913035  0.04643128  0.06800380  1  0  0.108969  0  0.957229  0  0  0.11872  0  1.01779  0  0  0.120844  0  1.017035  0  0.104627  0  0.120281  0.117162  0  1.01848  0
H  H11  1  0.98912989  0.45356926  0.43199605  1  0  0.108988  0  0.957226  0  0  0.118741  0  1.017779  0  0  0.120864  0  1.017024  0  0.104596  0  0.120286  0.117183  0  1.018469  0
H  H12  1  0.55669317  0.18805077  0.96863514  1  0  0.123217  0  0.965024  0  0  0.132213  0  1.027087  0  0  0.134629  0  1.026454  0  0.124455  0  0.123716  0.130427  0  1.027701  0
H  H13  1  0.05669099  0.31194976  0.53136650  1  0  0.12316  0  0.965156  0  0  0.132176  0  1.027191  0  0  0.134591  0  1.026559  0  0.124466  0  0.123716  0.130393  0  1.0278  0
H  H14  1  0.44330854  0.81194945  0.03136566  1  0  0.12317  0  0.965121  0  0  0.13219  0  1.027152  0  0  0.134605  0  1.02652  0  0.124467  0  0.123714  0.130406  0  1.027762  0
H  H15  1  0.94330675  0.68805046  0.46863489  1  0  0.123183  0  0.965067  0  0  0.132199  0  1.027107  0  0  0.134614  0  1.026475  0  0.124463  0  0.123715  0.130413  0  1.027721  0
H  H16  1  0.85779318  0.30756041  0.97403725  1  0  0.12474  0  0.951757  0  0  0.127505  0  1.025571  0  0  0.131181  0  1.023044  0  0.128245  0  0.112852  0.124836  0  1.027468  0
H  H17  1  0.35778967  0.19243928  0.52596310  1  0  0.124781  0  0.951721  0  0  0.127542  0  1.025542  0  0  0.131221  0  1.023014  0  0.128256  0  0.112874  0.124874  0  1.027438  0
H  H18  1  0.14220721  0.69243896  0.02596286  1  0  0.124787  0  0.951746  0  0  0.127542  0  1.025566  0  0  0.131223  0  1.023036  0  0.128263  0  0.112839  0.124872  0  1.027464  0
H  H19  1  0.64220542  0.80756095  0.47403770  1  0  0.124721  0  0.951744  0  0  0.127469  0  1.025572  0  0  0.131147  0  1.023043  0  0.128255  0  0.112813  0.1248  0  1.027469  0
H  H20  1  0.94655573  0.56350836  0.82507979  1  0  0.124374  0  0.944649  0  0  0.130769  0  1.012508  0  0  0.134304  0  1.010182  0  0.144486  0  0.110803  0.128189  0  1.014344  0
H  H21  1  0.44655487  0.93649071  0.67491948  1  0  0.124347  0  0.944705  0  0  0.130754  0  1.012541  0  0  0.134287  0  1.010212  0  0.144481  0  0.110803  0.128173  0  1.014372  0
H  H22  1  0.05344466  0.43649017  0.17491903  1  0  0.12435  0  0.944683  0  0  0.130767  0  1.012494  0  0  0.134302  0  1.010167  0  0.144474  0  0.110792  0.128187  0  1.014327  0
H  H23  1  0.55344419  0.06350952  0.32508013  1  0  0.12437  0  0.944651  0  0  0.130786  0  1.012458  0  0  0.134321  0  1.010132  0  0.144473  0  0.110791  0.128206  0  1.014293  0
H  H24  1  0.81071677  0.44039022  0.70790173  1  0  0.097619  0  0.985251  0  0  0.105522  0  1.049178  0  0  0.108356  0  1.047835  0  0.109793  0  0.10057  0.103424  0  1.050297  0
H  H25  1  0.31071724  0.05960862  0.79209793  1  0  0.097612  0  0.985313  0  0  0.105509  0  1.049248  0  0  0.108347  0  1.047895  0  0.109786  0  0.100576  0.103412  0  1.050365  0
H  H26  1  0.18928362  0.55960831  0.29209710  1  0  0.097598  0  0.985271  0  0  0.105493  0  1.049239  0  0  0.108338  0  1.047866  0  0.109801  0  0.100543  0.103395  0  1.050357  0
H  H27  1  0.68928448  0.94039160  0.20790286  1  0  0.097582  0  0.98529  0  0  0.10548  0  1.049249  0  0  0.108321  0  1.047888  0  0.109796  0  0.100538  0.103382  0  1.050368  0
H  H28  1  0.69273593  0.24881884  0.72475933  1  0  0.104772  0  0.947127  0  0  0.116157  0  1.005961  0  0  0.118816  0  1.005717  0  0.069648  0  0.105638  0.114227  0  1.006245  0
H  H29  1  0.19273640  0.25118084  0.77524162  1  0  0.10476  0  0.947126  0  0  0.116147  0  1.005962  0  0  0.118804  0  1.00572  0  0.069689  0  0.10563  0.114216  0  1.006246  0
H  H30  1  0.30726446  0.75118053  0.27524078  1  0  0.104773  0  0.947109  0  0  0.116159  0  1.005939  0  0  0.118817  0  1.005697  0  0.069654  0  0.105633  0.114229  0  1.006223  0
H  H31  1  0.80726267  0.74881938  0.22476037  1  0  0.104783  0  0.947117  0  0  0.116181  0  1.005934  0  0  0.11884  0  1.00569  0  0.069684  0  0.105652  0.114246  0  1.006224  0
H  H32  1  0.38284318  0.69610408  0.53228259  1  0  0.10769  0  0.9568  0  0  0.114945  0  1.02367  0  0  0.119006  0  1.019915  0  0.086703  0  0.105181  0.111927  0  1.026547  0
H  H33  1  0.88284271  0.80389583  0.96771678  1  0  0.107715  0  0.956826  0  0  0.114948  0  1.023706  0  0  0.119029  0  1.01993  0  0.086715  0  0.105185  0.111932  0  1.02658  0
H  H34  1  0.61715853  0.30389530  0.46771693  1  0  0.107686  0  0.956817  0  0  0.11494  0  1.023683  0  0  0.119004  0  1.019927  0  0.086698  0  0.105173  0.111923  0  1.02656  0
H  H35  1  0.11715768  0.19610355  0.03228273  1  0  0.107689  0  0.956832  0  0  0.114889  0  1.023749  0  0  0.118993  0  1.019949  0  0.086727  0  0.105171  0.111875  0  1.026619  0
H  H36  1  0.71253814  0.42962305  0.59344643  1  0  0.088286  0  0.976303  0  0  0.098211  0  1.040157  0  0  0.101132  0  1.038829  0  0.056778  0  0.100123  0.096112  0  1.041206  0
H  H37  1  0.21253861  0.07037664  0.90655392  1  0  0.088273  0  0.976288  0  0  0.0982  0  1.040139  0  0  0.101119  0  1.038812  0  0.056779  0  0.100123  0.0961  0  1.041188  0
H  H38  1  0.28746225  0.57037633  0.40655428  1  0  0.088279  0  0.97628  0  0  0.098208  0  1.04013  0  0  0.101126  0  1.038806  0  0.056793  0  0.100118  0.096109  0  1.041178  0
H  H39  1  0.78746310  0.92962358  0.09344628  1  0  0.088242  0  0.97631  0  0  0.098171  0  1.040159  0  0  0.10109  0  1.038834  0  0.056799  0  0.100105  0.096072  0  1.041208  0
H  H40  1  0.81304730  0.04937131  0.62183951  1  0  0.087432  0  0.966554  0  0  0.096176  0  1.034049  0  0  0.099352  0  1.031931  0  0.063966  0  0.097224  0.093895  0  1.035592  0
H  H41  1  0.31304777  0.45062922  0.87816034  1  0  0.087432  0  0.966604  0  0  0.096177  0  1.034107  0  0  0.099354  0  1.031984  0  0.063918  0  0.097228  0.093897  0  1.035646  0
H  H42  1  0.18695177  0.95062806  0.37816000  1  0  0.087417  0  0.966603  0  0  0.09616  0  1.034109  0  0  0.099339  0  1.031981  0  0.063913  0  0.097227  0.09388  0  1.035649  0
H  H43  1  0.68695262  0.54937269  0.12183946  1  0  0.087399  0  0.966568  0  0  0.096138  0  1.034094  0  0  0.099317  0  1.031963  0  0.063968  0  0.097203  0.093856  0  1.035637  0
H  H44  1  0.18405085  0.82641977  0.48496575  1  0  0.093207  0  0.954527  0  0  0.103953  0  1.017021  0  0  0.107543  0  1.014213  0  0.084828  0  0.100518  0.101347  0  1.019157  0
H  H45  1  0.68405038  0.67358098  0.01503371  1  0  0.093205  0  0.954503  0  0  0.103941  0  1.017007  0  0  0.107532  0  1.014201  0  0.084848  0  0.100498  0.101336  0  1.019144  0
H  H46  1  0.81594689  0.17357876  0.51503308  1  0  0.093265  0  0.954489  0  0  0.104025  0  1.016958  0  0  0.107617  0  1.014151  0  0.084852  0  0.100543  0.10142  0  1.019094  0
H  H47  1  0.31594868  0.32642008  0.98496539  1  0  0.093255  0  0.954476  0  0  0.103981  0  1.016985  0  0  0.107572  0  1.01418  0  0.084837  0  0.100524  0.101378  0  1.019116  0
C  C48  1  0.74808631  0.06165034  0.80604469  1  0  0.170298  0  3.659254  0  0  0.107518  0  3.9265  0  0  0.121926  0  3.939054  0  0.946581  0  0.144267  0.098328  0  3.91761  0
C  C49  1  0.24808677  0.43835020  0.69395575  1  0  0.170403  0  3.659208  0  0  0.10759  0  3.926445  0  0  0.122021  0  3.939018  0  0.94617  0  0.144256  0.098425  0  3.917567  0
C  C50  1  0.25191408  0.93834988  0.19395551  1  0  0.170317  0  3.659173  0  0  0.107511  0  3.926407  0  0  0.121943  0  3.93898  0  0.946185  0  0.144256  0.098341  0  3.917532  0
C  C51  1  0.75191229  0.56165003  0.30604505  1  0  0.170344  0  3.659158  0  0  0.107582  0  3.926389  0  0  0.121989  0  3.938948  0  0.94658  0  0.144265  0.098391  0  3.917503  0
C  C52  1  0.58517829  0.01119394  0.90125801  1  0  0.023066  0  3.746461  0  0  -0.011978  0  4.015981  0  0  -0.008593  0  4.035791  0  0.473352  0  0.005281  -0.014257  0  4.00259  0
C  C53  1  0.08517743  0.48880659  0.59874244  1  0  0.022905  0  3.746489  0  0  -0.012121  0  4.015998  0  0  -0.008732  0  4.035805  0  0.473285  0  0.005207  -0.014399  0  4.002611  0
C  C54  1  0.41482343  0.98880628  0.09874279  1  0  0.023031  0  3.746482  0  0  -0.012001  0  4.01598  0  0  -0.008614  0  4.035792  0  0.473336  0  0.005262  -0.014279  0  4.002591  0
C  C55  1  0.91482296  0.51119363  0.40125717  1  0  0.022983  0  3.74657  0  0  -0.01205  0  4.016069  0  0  -0.008664  0  4.03588  0  0.473324  0  0.005245  -0.014328  0  4.002679  0
C  C56  1  0.60595585  0.12624747  0.91964609  1  0  -0.069513  0  3.640624  0  0  -0.10774  0  3.897893  0  0  -0.107402  0  3.91688  0  0.260014  0  0.001379  -0.107918  0  3.885182  0
C  C57  1  0.10595367  0.37375306  0.58035436  1  0  -0.069402  0  3.640681  0  0  -0.107656  0  3.89795  0  0  -0.107317  0  3.916936  0  0.260416  0  0.001379  -0.107836  0  3.885243  0
C  C58  1  0.39404586  0.87375275  0.08035411  1  0  -0.069465  0  3.640647  0  0  -0.107719  0  3.897914  0  0  -0.107382  0  3.916902  0  0.260413  0  0.001371  -0.107898  0  3.885206  0
C  C59  1  0.89404407  0.62624632  0.41964635  1  0  -0.069448  0  3.640683  0  0  -0.107701  0  3.897946  0  0  -0.107362  0  3.916933  0  0.260052  0  0.001375  -0.107878  0  3.885235  0
C  C60  1  0.77043079  0.26719597  0.84995655  1  0  0.177456  0  3.810126  0  0  0.174053  0  4.053741  0  0  0.178339  0  4.077365  0  0.290532  0  0.092654  0.171154  0  4.037711  0
C  C61  1  0.27042994  0.23280372  0.65004380  1  0  0.177353  0  3.810334  0  0  0.173986  0  4.053901  0  0  0.178269  0  4.077532  0  0.290538  0  0.092609  0.171088  0  4.037869  0
C  C62  1  0.22956960  0.73280340  0.15004296  1  0  0.177354  0  3.810249  0  0  0.17396  0  4.053837  0  0  0.178245  0  4.077465  0  0.290532  0  0.092607  0.171062  0  4.037807  0
C  C63  1  0.72956648  0.76719651  0.34995759  1  0  0.177434  0  3.810137  0  0  0.174029  0  4.053737  0  0  0.178313  0  4.077364  0  0.29068  0  0.092636  0.171131  0  4.037706  0
C  C64  1  0.84593011  0.33538047  0.91556012  1  0  -0.19968  0  3.684635  0  0  -0.228749  0  3.93282  0  0  -0.233187  0  3.954367  0  -0.04286  0  -0.080754  -0.225731  0  3.918363  0
C  C65  1  0.34592793  0.16462006  0.58444033  1  0  -0.199675  0  3.684626  0  0  -0.228765  0  3.932798  0  0  -0.233204  0  3.954351  0  -0.042833  0  -0.080774  -0.225746  0  3.918342  0
C  C66  1  0.15406895  0.66461975  0.08443949  1  0  -0.199657  0  3.684597  0  0  -0.228727  0  3.932717  0  0  -0.233171  0  3.954269  0  -0.042884  0  -0.080698  -0.225708  0  3.918261  0
C  C67  1  0.65406716  0.83538016  0.41556047  1  0  -0.199616  0  3.684668  0  0  -0.228658  0  3.932815  0  0  -0.233098  0  3.954366  0  -0.042892  0  -0.08068  -0.22564  0  3.918359  0
C  C68  1  0.90944064  0.44252828  0.90531930  1  0  0.165292  0  3.823074  0  0  0.173504  0  4.069769  0  0  0.173208  0  4.095521  0  0.369787  0  0.089955  0.1737  0  4.052371  0
C  C69  1  0.40944111  0.05747141  0.59468105  1  0  0.165283  0  3.823021  0  0  0.173511  0  4.069701  0  0  0.173213  0  4.095452  0  0.369767  0  0.089953  0.173707  0  4.0523  0
C  C70  1  0.09055710  0.55747110  0.09468022  1  0  0.165241  0  3.823169  0  0  0.173517  0  4.069783  0  0  0.173222  0  4.095536  0  0.369796  0  0.089901  0.173713  0  4.052386  0
C  C71  1  0.59055531  0.94252881  0.40531974  1  0  0.165299  0  3.823072  0  0  0.173531  0  4.069737  0  0  0.173236  0  4.095489  0  0.36981  0  0.08993  0.173727  0  4.05234  0
C  C72  1  0.89708395  0.47955718  0.83041386  1  0  -0.107871  0  3.659673  0  0  -0.133335  0  3.91208  0  0  -0.137075  0  3.933764  0  -0.094835  0  -0.073096  -0.1308  0  3.89739  0
C  C73  1  0.39708309  0.02044251  0.66958590  1  0  -0.107856  0  3.659712  0  0  -0.133321  0  3.912107  0  0  -0.13707  0  3.933819  0  -0.094846  0  -0.073077  -0.130798  0  3.897449  0
C  C74  1  0.10291512  0.52044219  0.16958506  1  0  -0.107864  0  3.659734  0  0  -0.133351  0  3.912173  0  0  -0.137092  0  3.933858  0  -0.09481  0  -0.073037  -0.130815  0  3.897478  0
C  C75  1  0.60291465  0.97955772  0.33041490  1  0  -0.107888  0  3.659671  0  0  -0.133354  0  3.912105  0  0  -0.137094  0  3.933789  0  -0.094794  0  -0.073031  -0.130817  0  3.897411  0
C  C76  1  0.82132524  0.40953801  0.76527222  1  0  -0.041903  0  3.760785  0  0  -0.055553  0  4.012495  0  0  -0.056804  0  4.0343  0  0.023194  0  -0.088171  -0.05459  0  3.997678  0
C  C77  1  0.32132571  0.09046083  0.73472804  1  0  -0.041883  0  3.760847  0  0  -0.05552  0  4.012558  0  0  -0.056772  0  4.034361  0  0.023196  0  -0.088183  -0.054559  0  3.997736  0
C  C78  1  0.17867383  0.59046052  0.23472661  1  0  -0.041823  0  3.760774  0  0  -0.055505  0  4.01252  0  0  -0.056754  0  4.034336  0  0.023216  0  -0.088166  -0.054541  0  3.997702  0
C  C79  1  0.67867336  0.90953854  0.26527266  1  0  -0.041815  0  3.760769  0  0  -0.055502  0  4.012527  0  0  -0.056754  0  4.03434  0  0.023215  0  -0.088174  -0.054538  0  3.997708  0
C  C80  1  0.75663025  0.30338740  0.77455820  1  0  -0.146649  0  3.722722  0  0  -0.167967  0  3.97219  0  0  -0.171917  0  3.993329  0  -0.046962  0  -0.087903  -0.16522  0  3.957795  0
C  C81  1  0.25662940  0.19661228  0.72544275  1  0  -0.146603  0  3.722808  0  0  -0.167947  0  3.972277  0  0  -0.171894  0  3.993417  0  -0.047018  0  -0.087874  -0.165199  0  3.95788  0
C  C82  1  0.24337014  0.69661282  0.22544141  1  0  -0.146625  0  3.722781  0  0  -0.167938  0  3.972262  0  0  -0.171889  0  3.993406  0  -0.046938  0  -0.087873  -0.165192  0  3.957868  0
C  C83  1  0.74336967  0.80338709  0.27455915  1  0  -0.146659  0  3.722735  0  0  -0.16798  0  3.972213  0  0  -0.171931  0  3.993356  0  -0.047108  0  -0.087897  -0.165229  0  3.957821  0
C  C84  1  0.61293817  0.64670910  0.64440057  1  0  0.636484  0  3.901569  0  0  0.584612  0  4.186925  0  0  0.619788  0  4.180837  0  1.540616  0  0.200533  0.560698  0  4.190198  0
C  C85  1  0.11293732  0.85329081  0.85559939  1  0  0.636503  0  3.901498  0  0  0.584662  0  4.18685  0  0  0.619838  0  4.180762  0  1.540632  0  0.200548  0.560748  0  4.190123  0
C  C86  1  0.38706486  0.35329112  0.35559845  1  0  0.63655  0  3.901591  0  0  0.584704  0  4.186883  0  0  0.61988  0  4.180796  0  1.54065  0  0.200594  0.560789  0  4.190156  0
C  C87  1  0.88706440  0.14670773  0.14440122  1  0  0.636508  0  3.901479  0  0  0.584694  0  4.186801  0  0  0.619869  0  4.180713  0  1.540632  0  0.200561  0.560779  0  4.190074  0
C  C88  1  0.55417207  0.57057492  0.57019833  1  0  -0.05787  0  3.757349  0  0  -0.033649  0  3.987914  0  0  -0.040742  0  4.01077  0  -0.060808  0  -0.015852  -0.029001  0  3.972494  0
C  C89  1  0.05417121  0.92942498  0.92980222  1  0  -0.057747  0  3.757088  0  0  -0.033607  0  3.98775  0  0  -0.040699  0  4.010607  0  -0.06083  0  -0.015833  -0.028959  0  3.97233  0
C  C90  1  0.44582964  0.42942614  0.42980256  1  0  -0.057923  0  3.757314  0  0  -0.033679  0  3.987825  0  0  -0.040771  0  4.01068  0  -0.060813  0  -0.015892  -0.02903  0  3.972404  0
C  C91  1  0.94583050  0.07057439  0.07019789  1  0  -0.057648  0  3.757079  0  0  -0.033554  0  3.987786  0  0  -0.040649  0  4.010653  0  -0.060891  0  -0.015828  -0.028906  0  3.972366  0
C  C92  1  0.43496840  0.61056500  0.51714643  1  0  -0.069731  0  3.717079  0  0  -0.094275  0  3.968385  0  0  -0.094951  0  3.98776  0  -0.024909  0  -0.08386  -0.093665  0  3.955301  0
C  C93  1  0.93496793  0.88943491  0.98285472  1  0  -0.069842  0  3.717096  0  0  -0.094337  0  3.968423  0  0  -0.095028  0  3.987788  0  -0.024768  0  -0.083863  -0.093727  0  3.955342  0
C  C94  1  0.56503331  0.38943523  0.48285437  1  0  -0.069695  0  3.717066  0  0  -0.094245  0  3.968367  0  0  -0.094923  0  3.987742  0  -0.024745  0  -0.083832  -0.093635  0  3.955284  0
C  C95  1  0.06503246  0.11056446  0.01714598  1  0  -0.069848  0  3.717139  0  0  -0.094305  0  3.968475  0  0  -0.095015  0  3.987831  0  -0.02475  0  -0.083856  -0.093695  0  3.955392  0
C  C96  1  0.61836019  0.45965975  0.55254558  1  0  -0.07012  0  3.730126  0  0  -0.094632  0  3.980084  0  0  -0.095293  0  4.000385  0  0.012798  0  -0.085209  -0.094095  0  3.966311  0
C  C97  1  0.11835933  0.04033909  0.94745408  1  0  -0.070105  0  3.73009  0  0  -0.09459  0  3.980052  0  0  -0.095252  0  4.000364  0  0.012815  0  -0.085217  -0.094052  0  3.96628  0
C  C98  1  0.38163888  0.54033878  0.44745622  1  0  -0.070075  0  3.730102  0  0  -0.0946  0  3.980043  0  0  -0.095262  0  4.000345  0  0.012912  0  -0.085177  -0.094062  0  3.966268  0
C  C99  1  0.88164238  0.95966029  0.05254543  1  0  -0.070075  0  3.730068  0  0  -0.094552  0  3.980043  0  0  -0.095215  0  4.00035  0  0.012797  0  -0.085177  -0.094014  0  3.96627  0
C  C100  1  0.99993951  0.85746551  0.62561495  1  0  0.660616  0  3.916461  0  0  0.610144  0  4.208634  0  0  0.645943  0  4.200142  0  1.602183  0  0.204661  0.585805  0  4.213523  0
C  C101  1  0.49993866  0.64253525  0.87438511  1  0  0.66062  0  3.916484  0  0  0.610144  0  4.208661  0  0  0.645944  0  4.200168  0  1.602175  0  0.204672  0.585805  0  4.213552  0
C  C102  1  0.00006088  0.14253472  0.37438526  1  0  0.660627  0  3.916466  0  0  0.610166  0  4.208632  0  0  0.645965  0  4.200142  0  1.602036  0  0.204669  0.585827  0  4.213523  0
C  C103  1  0.50006173  0.35746582  0.12561400  1  0  0.660653  0  3.916475  0  0  0.610176  0  4.208651  0  0  0.645976  0  4.200158  0  1.602037  0  0.20465  0.585836  0  4.213543  0
C  C104  1  0.99804968  0.93009006  0.55996410  1  0  -0.060137  0  3.738109  0  0  -0.035326  0  3.9681  0  0  -0.04216  0  3.99039  0  -0.066377  0  -0.018678  -0.030818  0  3.953009  0
C  C105  1  0.49805147  0.56990985  0.94003466  1  0  -0.060145  0  3.738132  0  0  -0.035324  0  3.968115  0  0  -0.042157  0  3.990407  0  -0.066309  0  -0.018669  -0.030817  0  3.953028  0
C  C106  1  0.00194674  0.06990762  0.44003403  1  0  -0.060204  0  3.738161  0  0  -0.035402  0  3.968178  0  0  -0.042236  0  3.990471  0  -0.06618  0  -0.018635  -0.030896  0  3.953092  0
C  C107  1  0.50194892  0.43009207  0.05996454  1  0  -0.060241  0  3.738322  0  0  -0.035411  0  3.96829  0  0  -0.042244  0  3.990582  0  -0.06624  0  -0.01871  -0.030904  0  3.953202  0
C  C108  1  0.89681265  0.02923050  0.56882876  1  0  -0.068957  0  3.743128  0  0  -0.094338  0  3.996054  0  0  -0.094953  0  4.01649  0  0.007832  0  -0.089281  -0.093822  0  3.982172  0
C  C109  1  0.39681312  0.47076919  0.93117041  1  0  -0.068976  0  3.743276  0  0  -0.094373  0  3.996205  0  0  -0.094991  0  4.016644  0  0.007877  0  -0.08929  -0.09386  0  3.982326  0
C  C110  1  0.10318509  0.97076718  0.43116997  1  0  -0.068907  0  3.743241  0  0  -0.094298  0  3.996173  0  0  -0.094913  0  4.016612  0  0.007852  0  -0.089301  -0.093782  0  3.982292  0
C  C111  1  0.60318595  0.52923272  0.06882879  1  0  -0.068916  0  3.743133  0  0  -0.094309  0  3.996058  0  0  -0.094924  0  4.016498  0  0.007837  0  -0.089267  -0.093794  0  3.982178  0
C  C112  1  0.10127938  0.90168859  0.49040887  1  0  -0.080604  0  3.757019  0  0  -0.10538  0  4.011376  0  0  -0.106351  0  4.031429  0  -0.058245  0  -0.091454  -0.104607  0  3.997737  0
C  C113  1  0.60128024  0.59831217  0.00958999  1  0  -0.08052  0  3.756857  0  0  -0.105291  0  4.011206  0  0  -0.106263  0  4.031259  0  -0.058313  0  -0.091386  -0.104519  0  3.997568  0
C  C114  1  0.89871836  0.09831079  0.50959064  1  0  -0.080635  0  3.75695  0  0  -0.105429  0  4.011323  0  0  -0.106401  0  4.031375  0  -0.058266  0  -0.091468  -0.104656  0  3.997685  0
C  C115  1  0.39872015  0.40168974  0.99040862  1  0  -0.080622  0  3.757024  0  0  -0.105383  0  4.011368  0  0  -0.106355  0  4.03142  0  -0.05824  0  -0.091457  -0.10461  0  3.99773  0
N  N116  1  0.70911448  0.15718081  0.85816199  1  0  -0.094532  0  3.618947  0  0  -0.004404  0  3.828181  0  0  -0.019419  0  3.854751  0  -1.246921  0  -0.226605  0.005534  0  3.810044  0
N  N117  1  0.20911362  0.34281972  0.64183846  1  0  -0.094571  0  3.618989  0  0  -0.004443  0  3.828218  0  0  -0.019458  0  3.854786  0  -1.247295  0  -0.226585  0.005495  0  3.810076  0
N  N118  1  0.29088591  0.84281941  0.14183822  1  0  -0.094507  0  3.618897  0  0  -0.004383  0  3.828136  0  0  -0.019398  0  3.854701  0  -1.247311  0  -0.226587  0.005556  0  3.809994  0
N  N119  1  0.79088412  0.65718050  0.35816234  1  0  -0.094619  0  3.618796  0  0  -0.004498  0  3.828055  0  0  -0.019515  0  3.854627  0  -1.246942  0  -0.226637  0.00544  0  3.809918  0
N  N120  1  0.67477062  0.97247002  0.83086485  1  0  -0.385546  0  3.264648  0  0  -0.308123  0  3.549274  0  0  -0.330957  0  3.567398  0  -1.206595  0  -0.356963  -0.292424  0  3.536415  0
N  N121  1  0.17477108  0.52752989  0.66913570  1  0  -0.385599  0  3.264642  0  0  -0.308186  0  3.549281  0  0  -0.331017  0  3.567394  0  -1.206203  0  -0.356962  -0.292487  0  3.536415  0
N  N122  1  0.32522977  0.02753020  0.16913595  1  0  -0.385532  0  3.264621  0  0  -0.308129  0  3.549274  0  0  -0.330962  0  3.567389  0  -1.206208  0  -0.356943  -0.292429  0  3.536407  0
N  N123  1  0.82522930  0.47247033  0.33086390  1  0  -0.38553  0  3.264637  0  0  -0.308132  0  3.549276  0  0  -0.330966  0  3.567399  0  -1.206604  0  -0.356943  -0.292433  0  3.536417  0
N  N124  1  0.98859787  0.51937148  0.96744841  1  0  -0.142373  0  3.001305  0  0  -0.117538  0  3.281488  0  0  -0.116955  0  3.289794  0  -0.439467  0  -0.139929  -0.117816  0  3.275819  0
N  N125  1  0.48859702  0.98062843  0.53255155  1  0  -0.142341  0  3.001293  0  0  -0.11751  0  3.281467  0  0  -0.116925  0  3.289772  0  -0.439448  0  -0.13992  -0.117786  0  3.275798  0
N  N126  1  0.01140119  0.48062875  0.03255120  1  0  -0.142484  0  3.001377  0  0  -0.117657  0  3.281539  0  0  -0.117074  0  3.289843  0  -0.482894  0  -0.139976  -0.117935  0  3.27587  0
N  N127  1  0.51139940  0.01937179  0.46744865  1  0  -0.14251  0  3.001289  0  0  -0.117672  0  3.281466  0  0  -0.117089  0  3.289769  0  -0.482893  0  -0.139973  -0.117948  0  3.275796  0
O  O128  1  0.51865699  0.73496766  0.67055868  1  0  -0.683723  0  2.049373  0  0  -0.606641  0  2.315513  0  0  -0.637699  0  2.300325  0  -1.172684  0  -0.334517  -0.584686  0  2.325127  0
O  O129  1  0.01865746  0.76503141  0.82944059  1  0  -0.683789  0  2.049417  0  0  -0.6067  0  2.315539  0  0  -0.637759  0  2.300354  0  -1.172688  0  -0.334534  -0.584745  0  2.325153  0
O  O130  1  0.48134604  0.26503172  0.32944084  1  0  -0.683751  0  2.049431  0  0  -0.606685  0  2.315564  0  0  -0.637744  0  2.300375  0  -1.172692  0  -0.334539  -0.584736  0  2.325191  0
O  O131  1  0.98134558  0.23496797  0.17055892  1  0  -0.68377  0  2.049383  0  0  -0.60669  0  2.315492  0  0  -0.637751  0  2.30031  0  -1.172696  0  -0.334536  -0.584746  0  2.325131  0
O  O132  1  0.75433811  0.62509532  0.67945615  1  0  -0.598477  0  1.970745  0  0  -0.534075  0  2.209152  0  0  -0.56224  0  2.200694  0  -1.14095  0  -0.302971  -0.514382  0  2.214324  0
O  O133  1  0.25433857  0.87490459  0.82054322  1  0  -0.598483  0  1.970713  0  0  -0.534084  0  2.209101  0  0  -0.562252  0  2.200645  0  -1.140948  0  -0.302972  -0.514391  0  2.214272  0
O  O134  1  0.24566493  0.37490575  0.32054236  1  0  -0.598495  0  1.970794  0  0  -0.534096  0  2.209165  0  0  -0.562263  0  2.200707  0  -1.140912  0  -0.302975  -0.514402  0  2.214337  0
O  O135  1  0.74566446  0.12509478  0.17945749  1  0  -0.598531  0  1.970795  0  0  -0.534123  0  2.209155  0  0  -0.562285  0  2.200692  0  -1.140919  0  -0.302978  -0.514429  0  2.214329  0
O  O136  1  0.89809106  0.88569712  0.68527455  1  0  -0.661655  0  2.033888  0  0  -0.599052  0  2.288204  0  0  -0.62763  0  2.277456  0  -1.194764  0  -0.329203  -0.578927  0  2.29484  0
O  O137  1  0.39809153  0.61430363  0.81472491  1  0  -0.661672  0  2.033897  0  0  -0.599068  0  2.288223  0  0  -0.627644  0  2.27747  0  -1.194771  0  -0.329215  -0.578939  0  2.294853  0
O  O138  1  0.10191065  0.11430395  0.31472575  1  0  -0.661649  0  2.033864  0  0  -0.599053  0  2.28818  0  0  -0.627629  0  2.277429  0  -1.194759  0  -0.329214  -0.578923  0  2.294811  0
O  O139  1  0.60191018  0.38569659  0.18527410  1  0  -0.661655  0  2.033876  0  0  -0.599046  0  2.288191  0  0  -0.627627  0  2.277446  0  -1.194748  0  -0.329192  -0.578918  0  2.294826  0
O  O140  1  0.10662464  0.77343151  0.61596542  1  0  -0.659221  0  2.004287  0  0  -0.593878  0  2.26461  0  0  -0.622834  0  2.251821  0  -1.182996  0  -0.334059  -0.573475  0  2.272669  0
O  O141  1  0.60662417  0.72656840  0.88403395  1  0  -0.659231  0  2.004321  0  0  -0.59389  0  2.264648  0  0  -0.622848  0  2.251861  0  -1.183009  0  -0.334068  -0.573488  0  2.27271  0
O  O142  1  0.89337575  0.22656871  0.38403478  1  0  -0.659229  0  2.00431  0  0  -0.593887  0  2.264621  0  0  -0.622843  0  2.251832  0  -1.183004  0  -0.334079  -0.573484  0  2.272682  0
O  O143  1  0.39337489  0.27343267  0.11596338  1  0  -0.659237  0  2.00431  0  0  -0.593883  0  2.26462  0  0  -0.622843  0  2.251839  0  -1.182984  0  -0.334042  -0.57348  0  2.27268  0
