# generated using pymatgen
data_CdH10C7SN2O5
_symmetry_space_group_name_H-M   'P 1'
_cell_length_a   8.34646083
_cell_length_b   8.73567981
_cell_length_c   14.92800000
_cell_angle_alpha   90.00000000
_cell_angle_beta   90.00000000
_cell_angle_gamma   90.00000000
_symmetry_Int_Tables_number   1
_chemical_formula_structural   CdH10C7SN2O5
_chemical_formula_sum   'Cd4 H40 C28 S4 N8 O20'
_cell_volume   1088.43047467
_cell_formula_units_Z   4
loop_
 _symmetry_equiv_pos_site_id
 _symmetry_equiv_pos_as_xyz
  1  'x, y, z'
loop_
 _atom_site_type_symbol
 _atom_site_label
 _atom_site_symmetry_multiplicity
 _atom_site_fract_x
 _atom_site_fract_y
 _atom_site_fract_z
 _atom_site_occupancy
 _atom_site_hle17_bader_spin_density
 _atom_site_hle17_ddec_charge
 _atom_site_hle17_ddec_spin_density
 _atom_site_hle17_ddec_sum_bond_order
 _atom_site_hle17_magmom
 _atom_site_hse06_10hf_bader_spin_density
 _atom_site_hse06_10hf_ddec_charge
 _atom_site_hse06_10hf_ddec_spin_density
 _atom_site_hse06_10hf_ddec_sum_bond_order
 _atom_site_hse06_10hf_magmom
 _atom_site_hse06_bader_spin_density
 _atom_site_hse06_ddec_charge
 _atom_site_hse06_ddec_spin_density
 _atom_site_hse06_ddec_sum_bond_order
 _atom_site_hse06_magmom
 _atom_site_pbe_bader_charge
 _atom_site_pbe_bader_spin_density
 _atom_site_pbe_cm5_charge
 _atom_site_pbe_ddec_charge
 _atom_site_pbe_ddec_spin_density
 _atom_site_pbe_ddec_sum_bond_order
 _atom_site_pbe_magmom
Cd  Cd0  1  0.60278603  0.23340828  0.56127814  1  0  1.100721  0  1.753029  0  0  0.914194  0  2.201098  0  0  0.968631  0  2.150564  0  1.262337  0  0.732876  0.876409  0  2.234033  0
Cd  Cd1  1  0.39721267  0.73340944  0.43872186  1  0  1.100732  0  1.753075  0  0  0.914207  0  2.20113  0  0  0.968646  0  2.150598  0  1.262351  0  0.732884  0.876422  0  2.234063  0
Cd  Cd2  1  0.60278603  0.73340944  0.93872186  1  0  1.10073  0  1.753043  0  0  0.914222  0  2.201098  0  0  0.968659  0  2.150564  0  1.262359  0  0.732891  0.876436  0  2.234032  0
Cd  Cd3  1  0.39721507  0.23340828  0.06127880  1  0  1.100724  0  1.753009  0  0  0.914226  0  2.201058  0  0  0.968662  0  2.150525  0  1.262339  0  0.732888  0.876439  0  2.233992  0
H  H4  1  0.22374394  0.23519406  0.85210611  1  0  0.307556  0  0.930666  0  0  0.285184  0  0.995153  0  0  0.294768  0  0.98749  0  0.555195  0  0.306412  0.278237  0  1.000959  0
H  H5  1  0.77625477  0.73519407  0.14789389  1  0  0.307578  0  0.930642  0  0  0.285202  0  0.995131  0  0  0.294783  0  0.987473  0  0.555188  0  0.306425  0.278254  0  1.000938  0
H  H6  1  0.22374394  0.73519293  0.64789389  1  0  0.307561  0  0.930651  0  0  0.285178  0  0.995149  0  0  0.294763  0  0.987485  0  0.555195  0  0.306415  0.27823  0  1.000956  0
H  H7  1  0.77625477  0.23519520  0.35210745  1  0  0.307566  0  0.930649  0  0  0.285194  0  0.99514  0  0  0.294774  0  0.987479  0  0.555165  0  0.306414  0.278247  0  1.000946  0
H  H8  1  0.81055913  0.98017901  0.60931672  1  0  0.425323  0  0.880161  0  0  0.392786  0  0.94674  0  0  0.404466  0  0.929924  0  0.634928  0  0.283403  0.38483  0  0.957973  0
H  H9  1  0.18944077  0.48017900  0.39068328  1  0  0.425308  0  0.880184  0  0  0.392771  0  0.946768  0  0  0.404452  0  0.929949  0  0.634921  0  0.283398  0.384815  0  0.958  0
H  H10  1  0.81055913  0.48017900  0.89068261  1  0  0.425302  0  0.88019  0  0  0.392769  0  0.946768  0  0  0.404449  0  0.92995  0  0.634931  0  0.283398  0.384813  0  0.958001  0
H  H11  1  0.18944197  0.98017901  0.10931739  1  0  0.425316  0  0.880174  0  0  0.392782  0  0.946752  0  0  0.404463  0  0.929934  0  0.634933  0  0.28341  0.384826  0  0.957984  0
H  H12  1  0.63770263  0.91630762  0.60252077  1  0  0.425966  0  0.877667  0  0  0.393406  0  0.944268  0  0  0.405011  0  0.927388  0  0.623268  0  0.285139  0.38541  0  0.955531  0
H  H13  1  0.36229727  0.41630761  0.39747923  1  0  0.42596  0  0.877678  0  0  0.393395  0  0.944287  0  0  0.404999  0  0.927408  0  0.623267  0  0.285133  0.385399  0  0.95555  0
H  H14  1  0.63770263  0.41630761  0.89747923  1  0  0.425926  0  0.877705  0  0  0.393361  0  0.944318  0  0  0.404966  0  0.927438  0  0.623269  0  0.285122  0.385364  0  0.955582  0
H  H15  1  0.36229727  0.91630533  0.10252077  1  0  0.425966  0  0.877692  0  0  0.393403  0  0.944298  0  0  0.405008  0  0.927418  0  0.623253  0  0.285145  0.385406  0  0.955561  0
H  H16  1  0.67650350  0.59123161  0.71929729  1  0  0.142785  0  0.939689  0  0  0.153776  0  1.00522  0  0  0.156572  0  1.003902  0  0.112048  0  0.108746  0.151639  0  1.006318  0
H  H17  1  0.32349640  0.09123274  0.28070204  1  0  0.142778  0  0.939706  0  0  0.153756  0  1.005253  0  0  0.156551  0  1.003937  0  0.112029  0  0.108739  0.151618  0  1.00635  0
H  H18  1  0.67650470  0.09123503  0.78070204  1  0  0.142774  0  0.939692  0  0  0.153769  0  1.00522  0  0  0.156563  0  1.003903  0  0.112021  0  0.10875  0.151638  0  1.00632  0
H  H19  1  0.32349520  0.59123390  0.21929863  1  0  0.142761  0  0.939698  0  0  0.15375  0  1.005235  0  0  0.156546  0  1.003919  0  0.112027  0  0.108735  0.151619  0  1.006335  0
H  H20  1  0.82517970  0.67605729  0.65105975  1  0  0.141076  0  0.943217  0  0  0.149006  0  1.010939  0  0  0.152575  0  1.009049  0  0.113408  0  0.10721  0.146974  0  1.011179  0
H  H21  1  0.17482140  0.17605842  0.34894092  1  0  0.141079  0  0.943242  0  0  0.149003  0  1.010962  0  0  0.152571  0  1.009076  0  0.113414  0  0.107206  0.14697  0  1.011203  0
H  H22  1  0.82517850  0.17605957  0.84893958  1  0  0.14111  0  0.943315  0  0  0.149028  0  1.011048  0  0  0.152601  0  1.009151  0  0.113378  0  0.107215  0.147002  0  1.011291  0
H  H23  1  0.17482021  0.67605729  0.15105908  1  0  0.141066  0  0.9433  0  0  0.149004  0  1.011009  0  0  0.152568  0  1.00913  0  0.113396  0  0.107216  0.146973  0  1.011263  0
H  H24  1  0.02044220  0.53130496  0.55851554  1  0  0.142623  0  0.943674  0  0  0.154195  0  1.002025  0  0  0.157365  0  1.000484  0  0.122677  0  0.108323  0.151753  0  1.003513  0
H  H25  1  0.97955651  0.03130838  0.44148312  1  0  0.142651  0  0.943553  0  0  0.154218  0  1.001921  0  0  0.157389  0  1.000378  0  0.122657  0  0.108371  0.15178  0  1.003401  0
H  H26  1  0.02044220  0.03131067  0.94148446  1  0  0.142652  0  0.943585  0  0  0.154222  0  1.001949  0  0  0.15739  0  1.000415  0  0.122617  0  0.108357  0.15178  0  1.00344  0
H  H27  1  0.97955770  0.53130725  0.05851554  1  0  0.142666  0  0.943535  0  0  0.154231  0  1.001902  0  0  0.157401  0  1.000361  0  0.122668  0  0.108365  0.151789  0  1.003392  0
H  H28  1  0.08402963  0.34613792  0.58845927  1  0  0.135454  0  0.934587  0  0  0.148689  0  0.992914  0  0  0.151079  0  0.992653  0  0.124018  0  0.10879  0.147075  0  0.993036  0
H  H29  1  0.91596788  0.84614251  0.41153939  1  0  0.135454  0  0.934576  0  0  0.148698  0  0.992889  0  0  0.151089  0  0.992627  0  0.123987  0  0.108782  0.147089  0  0.993005  0
H  H30  1  0.08402843  0.84614365  0.91154073  1  0  0.135503  0  0.934535  0  0  0.148742  0  0.992852  0  0  0.151133  0  0.99259  0  0.124109  0  0.108774  0.147129  0  0.992976  0
H  H31  1  0.91597267  0.34613906  0.08845927  1  0  0.135451  0  0.934581  0  0  0.148681  0  0.99292  0  0  0.151071  0  0.99266  0  0.124047  0  0.108759  0.147068  0  0.993042  0
H  H32  1  0.47007948  0.35161316  0.77494641  1  0  0.091987  0  0.947144  0  0  0.103514  0  1.008524  0  0  0.105549  0  1.006559  0  0.151421  0  0.133287  0.101789  0  1.010162  0
H  H33  1  0.52991922  0.85161432  0.22505359  1  0  0.091947  0  0.947129  0  0  0.10346  0  1.008552  0  0  0.105509  0  1.006552  0  0.151402  0  0.133242  0.101736  0  1.01019  0
H  H34  1  0.47007948  0.85161432  0.72505292  1  0  0.091961  0  0.947117  0  0  0.103483  0  1.00852  0  0  0.105514  0  1.006554  0  0.151421  0  0.133261  0.101758  0  1.010158  0
H  H35  1  0.52991922  0.35161431  0.27494708  1  0  0.091974  0  0.947148  0  0  0.103494  0  1.008552  0  0  0.105533  0  1.006572  0  0.151398  0  0.133272  0.10177  0  1.010189  0
H  H36  1  0.06932040  0.05867088  0.74438639  1  0  0.104365  0  0.982681  0  0  0.109686  0  1.053869  0  0  0.112945  0  1.051742  0  0.151069  0  0.112388  0.107262  0  1.055568  0
H  H37  1  0.93067830  0.55867089  0.25561361  1  0  0.104334  0  0.982667  0  0  0.109651  0  1.053867  0  0  0.112911  0  1.05174  0  0.151108  0  0.112375  0.107227  0  1.055565  0
H  H38  1  0.06932160  0.55866974  0.75561361  1  0  0.104308  0  0.982693  0  0  0.109608  0  1.053908  0  0  0.11288  0  1.051767  0  0.151094  0  0.112361  0.107184  0  1.055606  0
H  H39  1  0.93067950  0.05867088  0.24438773  1  0  0.10437  0  0.982616  0  0  0.109662  0  1.053838  0  0  0.112928  0  1.051704  0  0.151083  0  0.112384  0.107238  0  1.055536  0
H  H40  1  0.24624928  0.06214285  0.58687031  1  0  0.099524  0  0.987468  0  0  0.108616  0  1.049216  0  0  0.110422  0  1.049238  0  0.105915  0  0.110528  0.107084  0  1.049682  0
H  H41  1  0.75374822  0.56214515  0.41313036  1  0  0.099532  0  0.987454  0  0  0.108625  0  1.049201  0  0  0.110432  0  1.049219  0  0.105949  0  0.110537  0.107092  0  1.049669  0
H  H42  1  0.24625168  0.56214515  0.91313103  1  0  0.099524  0  0.987448  0  0  0.108617  0  1.049199  0  0  0.110423  0  1.049218  0  0.10594  0  0.11053  0.107084  0  1.049667  0
H  H43  1  0.75374822  0.06214170  0.08687165  1  0  0.099549  0  0.987484  0  0  0.108645  0  1.049225  0  0  0.110451  0  1.049245  0  0.105953  0  0.110552  0.107112  0  1.049693  0
C  C44  1  0.61194201  0.60742496  0.58002613  1  0  0.70458  0  3.864537  0  0  0.651646  0  4.165384  0  0  0.685098  0  4.160262  0  1.586205  0  0.201401  0.628953  0  4.167566  0
C  C45  1  0.38806029  0.10742610  0.41997320  1  0  0.704626  0  3.864514  0  0  0.651681  0  4.165354  0  0  0.68513  0  4.160238  0  1.586222  0  0.20142  0.628991  0  4.167527  0
C  C46  1  0.61194321  0.10742724  0.91997320  1  0  0.704547  0  3.864532  0  0  0.651645  0  4.165331  0  0  0.685095  0  4.160212  0  1.586223  0  0.201416  0.628971  0  4.167496  0
C  C47  1  0.38805669  0.60742496  0.08002680  1  0  0.704535  0  3.864554  0  0  0.651628  0  4.16536  0  0  0.68508  0  4.160239  0  1.586224  0  0.201384  0.628952  0  4.167528  0
C  C48  1  0.73620306  0.58313836  0.65356980  1  0  -0.33352  0  3.636662  0  0  -0.366621  0  3.894329  0  0  -0.372634  0  3.900233  0  -0.144643  0  -0.15716  -0.362748  0  3.889993  0
C  C49  1  0.26379804  0.08313949  0.34642953  1  0  -0.333564  0  3.63675  0  0  -0.366664  0  3.894426  0  0  -0.372678  0  3.900334  0  -0.144613  0  -0.157175  -0.362783  0  3.890076  0
C  C50  1  0.73620426  0.08314293  0.84642819  1  0  -0.333491  0  3.636705  0  0  -0.366621  0  3.894425  0  0  -0.37263  0  3.900314  0  -0.144643  0  -0.157181  -0.362781  0  3.890122  0
C  C51  1  0.26379564  0.58314065  0.15357114  1  0  -0.333461  0  3.636649  0  0  -0.366588  0  3.894349  0  0  -0.372601  0  3.900252  0  -0.144616  0  -0.157168  -0.362746  0  3.890041  0
C  C52  1  0.97928573  0.41251054  0.56571008  1  0  -0.326778  0  3.61818  0  0  -0.357472  0  3.872969  0  0  -0.362364  0  3.878007  0  -0.187328  0  -0.157359  -0.354353  0  3.870213  0
C  C53  1  0.02071417  0.91251284  0.43428792  1  0  -0.326831  0  3.618122  0  0  -0.357536  0  3.872926  0  0  -0.362427  0  3.877963  0  -0.187356  0  -0.157421  -0.35442  0  3.870174  0
C  C54  1  0.97928453  0.91251513  0.93428992  1  0  -0.326871  0  3.618127  0  0  -0.357552  0  3.872876  0  0  -0.362444  0  3.877913  0  -0.187403  0  -0.157369  -0.354437  0  3.870127  0
C  C55  1  0.02071537  0.41251054  0.06570941  1  0  -0.326785  0  3.618103  0  0  -0.357448  0  3.87285  0  0  -0.362341  0  3.877891  0  -0.187341  0  -0.157335  -0.354332  0  3.870099  0
C  C56  1  0.93460452  0.34773367  0.47368033  1  0  0.702507  0  3.867145  0  0  0.649436  0  4.176633  0  0  0.682459  0  4.170412  0  1.582469  0  0.206652  0.627223  0  4.180078  0
C  C57  1  0.06539418  0.84773597  0.52631766  1  0  0.702483  0  3.867182  0  0  0.649417  0  4.176659  0  0  0.682441  0  4.170437  0  1.582457  0  0.206707  0.627202  0  4.180107  0
C  C58  1  0.93460452  0.84773712  0.02631900  1  0  0.702459  0  3.867188  0  0  0.649404  0  4.176657  0  0  0.682427  0  4.170435  0  1.582448  0  0.206663  0.627191  0  4.180102  0
C  C59  1  0.06539658  0.34773367  0.97368100  1  0  0.702476  0  3.867219  0  0  0.649413  0  4.176697  0  0  0.682437  0  4.170477  0  1.582453  0  0.206662  0.627201  0  4.180142  0
C  C60  1  0.38642367  0.27336854  0.74362473  1  0  0.206502  0  3.695159  0  0  0.147589  0  3.96434  0  0  0.160876  0  3.97949  0  0.971582  0  0.133444  0.139307  0  3.952954  0
C  C61  1  0.61357504  0.77336740  0.25637460  1  0  0.206521  0  3.695141  0  0  0.147598  0  3.964321  0  0  0.160888  0  3.979476  0  0.971589  0  0.133484  0.139314  0  3.952936  0
C  C62  1  0.38642367  0.77336740  0.75637527  1  0  0.206506  0  3.695123  0  0  0.147591  0  3.964312  0  0  0.160884  0  3.979465  0  0.971595  0  0.133476  0.139307  0  3.952927  0
C  C63  1  0.61357504  0.27336854  0.24362540  1  0  0.206505  0  3.695176  0  0  0.147586  0  3.964357  0  0  0.160877  0  3.979512  0  0.971582  0  0.133441  0.139305  0  3.95297  0
C  C64  1  0.17698639  0.12123040  0.72660973  1  0  -0.005419  0  3.689376  0  0  -0.043957  0  3.95444  0  0  -0.041821  0  3.97226  0  0.304398  0  -0.000587  -0.044993  0  3.941467  0
C  C65  1  0.82301351  0.62123385  0.27339161  1  0  -0.005367  0  3.689388  0  0  -0.043909  0  3.954456  0  0  -0.041777  0  3.972284  0  0.304416  0  -0.000581  -0.044943  0  3.941477  0
C  C66  1  0.17698759  0.62123271  0.77339228  1  0  -0.005366  0  3.689412  0  0  -0.043885  0  3.954483  0  0  -0.041762  0  3.972299  0  0.304428  0  -0.000558  -0.04492  0  3.941505  0
C  C67  1  0.82301351  0.12123384  0.22660973  1  0  -0.005403  0  3.689467  0  0  -0.043911  0  3.954525  0  0  -0.041783  0  3.972342  0  0.304425  0  -0.000588  -0.044944  0  3.941549  0
C  C68  1  0.26461635  0.12430630  0.64858521  1  0  -0.020382  0  3.765489  0  0  -0.052007  0  4.030244  0  0  -0.050579  0  4.051484  0  0.37492  0  -0.017519  -0.053203  0  4.016672  0
C  C69  1  0.73538355  0.62430974  0.35141546  1  0  -0.020385  0  3.765515  0  0  -0.052005  0  4.03027  0  0  -0.050578  0  4.051513  0  0.374905  0  -0.017505  -0.053201  0  4.016699  0
C  C70  1  0.26461635  0.62431089  0.85141613  1  0  -0.020385  0  3.765488  0  0  -0.052006  0  4.03024  0  0  -0.050579  0  4.051484  0  0.374884  0  -0.017516  -0.053202  0  4.016669  0
C  C71  1  0.73538355  0.12430859  0.14858588  1  0  -0.020466  0  3.765669  0  0  -0.052097  0  4.030419  0  0  -0.05067  0  4.051664  0  0.37493  0  -0.017544  -0.053292  0  4.016846  0
S  S72  1  0.83714525  0.39989446  0.65746651  1  0  0.053708  0  2.440095  0  0  0.075259  0  2.790289  0  0  0.07105  0  2.787  0  0.012794  0  0.012714  0.075583  0  2.792992  0
S  S73  1  0.16285346  0.89989562  0.34253349  1  0  0.053764  0  2.44015  0  0  0.075307  0  2.790342  0  0  0.071099  0  2.787053  0  0.012774  0  0.012731  0.075629  0  2.793046  0
S  S74  1  0.83714644  0.89989791  0.84253349  1  0  0.053688  0  2.440121  0  0  0.075241  0  2.790323  0  0  0.071033  0  2.787027  0  0.012813  0  0.012705  0.075576  0  2.793039  0
S  S75  1  0.16285346  0.39989446  0.15746651  1  0  0.053683  0  2.440092  0  0  0.075236  0  2.790276  0  0  0.071027  0  2.786985  0  0.012767  0  0.012703  0.075571  0  2.79299  0
N  N76  1  0.39514832  0.21977912  0.65998392  1  0  -0.410984  0  3.273067  0  0  -0.330558  0  3.554373  0  0  -0.353003  0  3.572949  0  -1.210932  0  -0.369473  -0.315774  0  3.541392  0
N  N77  1  0.60484918  0.71978142  0.34001608  1  0  -0.410983  0  3.273143  0  0  -0.330548  0  3.554444  0  0  -0.352997  0  3.573024  0  -1.210975  0  -0.369489  -0.315764  0  3.541464  0
N  N78  1  0.39514952  0.71978256  0.84001675  1  0  -0.411016  0  3.273139  0  0  -0.330593  0  3.554453  0  0  -0.353038  0  3.573025  0  -1.210996  0  -0.369517  -0.315809  0  3.541474  0
N  N79  1  0.60485038  0.21978026  0.15998459  1  0  -0.410923  0  3.273137  0  0  -0.33049  0  3.554432  0  0  -0.352938  0  3.573011  0  -1.210947  0  -0.36945  -0.315706  0  3.541451  0
N  N80  1  0.25634218  0.21553904  0.78560624  1  0  -0.275655  0  3.460187  0  0  -0.20667  0  3.695504  0  0  -0.223194  0  3.710892  0  -1.291881  0  -0.375921  -0.195536  0  3.683959  0
N  N81  1  0.74365652  0.71553905  0.21439309  1  0  -0.275666  0  3.460159  0  0  -0.206675  0  3.695489  0  0  -0.2232  0  3.710877  0  -1.291895  0  -0.375921  -0.195539  0  3.68394  0
N  N82  1  0.25634338  0.71553790  0.71439376  1  0  -0.275594  0  3.460149  0  0  -0.206609  0  3.695479  0  0  -0.223134  0  3.710868  0  -1.291877  0  -0.375895  -0.195471  0  3.683931  0
N  N83  1  0.74365652  0.21554018  0.28560691  1  0  -0.27567  0  3.4602  0  0  -0.206688  0  3.695521  0  0  -0.223208  0  3.71091  0  -1.291903  0  -0.375916  -0.195557  0  3.68398  0
O  O84  1  0.55907888  0.49787768  0.53351554  1  0  -0.643512  0  2.046129  0  0  -0.576029  0  2.298349  0  0  -0.604389  0  2.288467  0  -1.182618  0  -0.321073  -0.555622  0  2.303674  0
O  O85  1  0.44092222  0.99787769  0.46648446  1  0  -0.643571  0  2.046166  0  0  -0.576057  0  2.298354  0  0  -0.604415  0  2.288473  0  -1.182615  0  -0.32109  -0.555651  0  2.303678  0
O  O86  1  0.55908128  0.99787769  0.96648379  1  0  -0.643503  0  2.046145  0  0  -0.576049  0  2.298376  0  0  -0.604408  0  2.288494  0  -1.182572  0  -0.321066  -0.555645  0  2.303691  0
O  O87  1  0.44091862  0.49787654  0.03351688  1  0  -0.643504  0  2.046141  0  0  -0.576046  0  2.298364  0  0  -0.604404  0  2.288479  0  -1.182592  0  -0.321068  -0.555641  0  2.303681  0
O  O88  1  0.56367604  0.74480065  0.56802988  1  0  -0.63546  0  2.022063  0  0  -0.557952  0  2.256457  0  0  -0.587349  0  2.246525  0  -1.169025  0  -0.314455  -0.536225  0  2.26108  0
O  O89  1  0.43632506  0.24480064  0.43196945  1  0  -0.635448  0  2.022031  0  0  -0.55791  0  2.256393  0  0  -0.587301  0  2.246457  0  -1.169061  0  -0.314435  -0.53619  0  2.261026  0
O  O90  1  0.56367604  0.24480178  0.93197012  1  0  -0.635444  0  2.022068  0  0  -0.557932  0  2.256446  0  0  -0.587328  0  2.246515  0  -1.169053  0  -0.314462  -0.536202  0  2.261051  0
O  O91  1  0.43632266  0.74479951  0.06803055  1  0  -0.635432  0  2.02207  0  0  -0.55792  0  2.256437  0  0  -0.587314  0  2.246503  0  -1.169036  0  -0.314437  -0.536191  0  2.261043  0
O  O92  1  0.81977980  0.25085512  0.46577237  1  0  -0.657909  0  2.063611  0  0  -0.582959  0  2.309566  0  0  -0.611998  0  2.298275  0  -1.17717  0  -0.326352  -0.563107  0  2.316665  0
O  O93  1  0.18021770  0.75085742  0.53422629  1  0  -0.6579  0  2.063635  0  0  -0.582924  0  2.309554  0  0  -0.611968  0  2.298272  0  -1.177113  0  -0.326379  -0.563073  0  2.316655  0
O  O94  1  0.81978220  0.75085628  0.03422696  1  0  -0.657878  0  2.063645  0  0  -0.582918  0  2.309569  0  0  -0.611959  0  2.29828  0  -1.177128  0  -0.326353  -0.563066  0  2.316668  0
O  O95  1  0.18021890  0.25085283  0.96577304  1  0  -0.657884  0  2.063693  0  0  -0.582955  0  2.309658  0  0  -0.611991  0  2.298357  0  -1.177198  0  -0.326359  -0.563103  0  2.316756  0
O  O96  1  0.01984554  0.38772598  0.40831592  1  0  -0.619452  0  1.957208  0  0  -0.56584  0  2.186872  0  0  -0.590949  0  2.178456  0  -1.191058  0  -0.313881  -0.548236  0  2.191165  0
O  O97  1  0.98015197  0.88772828  0.59168274  1  0  -0.61945  0  1.957204  0  0  -0.565852  0  2.186871  0  0  -0.590967  0  2.178464  0  -1.191056  0  -0.313909  -0.548244  0  2.19116  0
O  O98  1  0.01984674  0.88772599  0.09168408  1  0  -0.619441  0  1.957189  0  0  -0.565854  0  2.186857  0  0  -0.590963  0  2.178442  0  -1.191073  0  -0.313912  -0.548248  0  2.191149  0
O  O99  1  0.98015436  0.38772140  0.90831525  1  0  -0.61946  0  1.957149  0  0  -0.565861  0  2.186821  0  0  -0.590968  0  2.178405  0  -1.191048  0  -0.313909  -0.548256  0  2.191115  0
O  O100  1  0.69735546  0.00775784  0.62474745  1  0  -0.855611  0  1.879875  0  0  -0.796924  0  2.08609  0  0  -0.820597  0  2.051261  0  -1.233977  0  -0.597535  -0.779742  0  2.108133  0
O  O101  1  0.30264444  0.50775785  0.37525322  1  0  -0.855592  0  1.879892  0  0  -0.796906  0  2.086093  0  0  -0.820579  0  2.051259  0  -1.23397  0  -0.597527  -0.779723  0  2.108133  0
O  O102  1  0.69735665  0.50775900  0.87525255  1  0  -0.855546  0  1.879889  0  0  -0.796868  0  2.086085  0  0  -0.820542  0  2.051259  0  -1.233969  0  -0.597514  -0.779686  0  2.108127  0
O  O103  1  0.30264444  0.00775669  0.12474745  1  0  -0.855617  0  1.879902  0  0  -0.796922  0  2.086084  0  0  -0.820595  0  2.05125  0  -1.233971  0  -0.597549  -0.779739  0  2.108125  0
