# generated using pymatgen
data_Ag6H82C77(NO)12
_symmetry_space_group_name_H-M   'P 1'
_cell_length_a   12.07394752
_cell_length_b   15.42857674
_cell_length_c   24.96435992
_cell_angle_alpha   90.00002031
_cell_angle_beta   90.00037287
_cell_angle_gamma   101.56396742
_symmetry_Int_Tables_number   1
_chemical_formula_structural   Ag6H82C77(NO)12
_chemical_formula_sum   'Ag12 H164 C154 N24 O24'
_cell_volume   4556.05923845
_cell_formula_units_Z   2
loop_
 _symmetry_equiv_pos_site_id
 _symmetry_equiv_pos_as_xyz
  1  'x, y, z'
loop_
 _atom_site_type_symbol
 _atom_site_label
 _atom_site_symmetry_multiplicity
 _atom_site_fract_x
 _atom_site_fract_y
 _atom_site_fract_z
 _atom_site_occupancy
 _atom_site_pbe_bader_charge
 _atom_site_pbe_bader_spin_density
 _atom_site_pbe_cm5_charge
 _atom_site_pbe_ddec_charge
 _atom_site_pbe_ddec_spin_density
 _atom_site_pbe_ddec_sum_bond_order
 _atom_site_pbe_magmom
Ag  Ag0  1  0.73259221  0.76904388  0.11899047  1  0.577418  0  0.443107  0.365547  0  1.783689  0
Ag  Ag1  1  0.26741287  0.23095513  0.61899088  1  0.577483  0  0.443127  0.365552  0  1.783791  0
Ag  Ag2  1  0.32894128  0.79371755  0.58768120  1  0.563276  0  0.481478  0.341024  0  2.028501  0
Ag  Ag3  1  0.67105991  0.20628402  0.08767928  1  0.563263  0  0.481441  0.340959  0  2.028546  0
Ag  Ag4  1  0.44094524  0.40994912  0.03870031  1  0.570043  0  0.438573  0.354946  0  1.787373  0
Ag  Ag5  1  0.55905328  0.59005430  0.53870092  1  0.570052  0  0.438549  0.354912  0  1.787484  0
Ag  Ag6  1  0.24036228  0.64544430  0.08450331  1  0.563242  0  0.462105  0.328797  0  1.951801  0
Ag  Ag7  1  0.75963884  0.35455396  0.58450330  1  0.563341  0  0.462108  0.328819  0  1.951806  0
Ag  Ag8  1  0.40754760  0.94486839  0.65786700  1  0.562758  0  0.463251  0.320029  0  2.039336  0
Ag  Ag9  1  0.59245392  0.05513404  0.15786680  1  0.562777  0  0.463247  0.320038  0  2.039264  0
Ag  Ag10  1  0.04139191  0.63405387  0.16160492  1  0.558843  0  0.450577  0.310611  0  1.994515  0
Ag  Ag11  1  0.95860567  0.36594593  0.66160514  1  0.558818  0  0.450578  0.310605  0  1.994456  0
H  H12  1  0.33178103  0.63137581  0.49023427  1  0.019364  0  0.089811  0.086491  0  1.016982  0
H  H13  1  0.66822005  0.36862691  0.99023197  1  0.01934  0  0.089822  0.086527  0  1.016979  0
H  H14  1  0.24300156  0.70574916  0.50713783  1  0.03617  0  0.082737  0.074596  0  1.054207  0
H  H15  1  0.75699601  0.29425219  0.00713620  1  0.036029  0  0.082737  0.074616  0  1.054272  0
H  H16  1  0.64386198  0.25623516  0.32775789  1  0.037337  0  0.1084  0.116861  0  1.000318  0
H  H17  1  0.35614729  0.74377238  0.82775829  1  0.037396  0  0.10838  0.116837  0  1.000309  0
H  H18  1  0.63956545  0.93547625  0.35934419  1  0.042351  0  0.097117  0.098573  0  0.979367  0
H  H19  1  0.36043113  0.06452544  0.85934286  1  0.042281  0  0.09712  0.09859  0  0.979312  0
H  H20  1  0.54095097  0.00613825  0.35389096  1  0.033062  0  0.093598  0.093655  0  0.989326  0
H  H21  1  0.45904453  0.99386276  0.85389094  1  0.033117  0  0.093598  0.09369  0  0.989321  0
H  H22  1  0.84257655  0.15037022  0.49434609  1  0.0233  0  0.098004  0.104949  0  0.986332  0
H  H23  1  0.15742174  0.84962788  0.99434308  1  0.02333  0  0.098008  0.104936  0  0.986306  0
H  H24  1  0.75816148  0.23133543  0.49152674  1  0.057231  0  0.091469  0.087669  0  1.036255  0
H  H25  1  0.24183942  0.76866331  0.99152598  1  0.05723  0  0.091451  0.087654  0  1.036176  0
H  H26  1  0.53524990  0.60618485  0.33295557  1  0.062636  0  0.099598  0.103245  0  1.019966  0
H  H27  1  0.46475124  0.39381345  0.83295624  1  0.062594  0  0.099579  0.103239  0  1.019966  0
H  H28  1  0.74121112  0.58332675  0.29407446  1  0.072086  0  0.108063  0.117639  0  0.993569  0
H  H29  1  0.25878964  0.41667209  0.79407329  1  0.07214  0  0.108038  0.117628  0  0.993573  0
H  H30  1  0.05082046  0.66414700  0.82726390  1  0.032606  0  0.089975  0.086059  0  0.989606  0
H  H31  1  0.94917798  0.33585393  0.32726288  1  0.032629  0  0.089977  0.086025  0  0.98961  0
H  H32  1  0.13259694  0.58399853  0.81381605  1  0.035637  0  0.085903  0.077147  0  0.995982  0
H  H33  1  0.86740296  0.41600236  0.31381519  1  0.035638  0  0.085919  0.077156  0  0.995962  0
H  H34  1  0.21841381  0.81721169  0.14469351  1  0.170297  0  0.11386  0.095489  0  1.041674  0
H  H35  1  0.78158833  0.18278740  0.64469313  1  0.170257  0  0.113895  0.095555  0  1.041604  0
H  H36  1  0.16076564  0.38160208  0.05798896  1  0.057011  0  0.104959  0.099907  0  1.013485  0
H  H37  1  0.83923150  0.61840140  0.55799246  1  0.057147  0  0.104979  0.099978  0  1.01344  0
H  H38  1  0.11767466  0.26894976  0.07622168  1  0.031962  0  0.092075  0.083743  0  0.984892  0
H  H39  1  0.88231877  0.73105444  0.57622494  1  0.031802  0  0.092114  0.083772  0  0.984913  0
H  H40  1  0.32578890  0.61908447  0.31809486  1  0.049066  0  0.099906  0.102693  0  1.043723  0
H  H41  1  0.67421155  0.38091511  0.81809258  1  0.049047  0  0.099912  0.102711  0  1.043734  0
H  H42  1  0.78445137  0.02537084  0.22835438  1  0.132979  0  0.121674  0.100897  0  0.986451  0
H  H43  1  0.21554647  0.97462650  0.72835198  1  0.132945  0  0.121639  0.100876  0  0.98652  0
H  H44  1  0.74682985  0.91756241  0.02554129  1  0.063887  0  0.112531  0.112081  0  0.973897  0
H  H45  1  0.25317428  0.08244096  0.52554282  1  0.063691  0  0.112538  0.112067  0  0.973957  0
H  H46  1  0.88150136  0.99037788  0.03166824  1  0.026101  0  0.095776  0.087615  0  0.982014  0
H  H47  1  0.11850235  0.00962352  0.53166774  1  0.02615  0  0.095795  0.087626  0  0.981945  0
H  H48  1  0.30424169  0.62513472  0.64793865  1  0.144979  0  0.11274  0.092319  0  1.034858  0
H  H49  1  0.69575984  0.37486503  0.14793643  1  0.144966  0  0.112723  0.092329  0  1.034843  0
H  H50  1  0.63399083  0.44166680  0.31390655  1  0.015263  0  0.090852  0.087394  0  1.00044  0
H  H51  1  0.36601207  0.55833607  0.81390534  1  0.015326  0  0.090831  0.087377  0  1.000459  0
H  H52  1  0.64206993  0.37244463  0.25832812  1  0.044131  0  0.096318  0.096673  0  1.017566  0
H  H53  1  0.35793167  0.62755610  0.75832490  1  0.044107  0  0.096376  0.096695  0  1.01756  0
H  H54  1  0.93525198  0.64687486  0.94016304  1  0.142511  0  0.106665  0.133074  0  1.025831  0
H  H55  1  0.06474986  0.35312374  0.44016444  1  0.142468  0  0.10664  0.13306  0  1.025808  0
H  H56  1  0.56770741  0.74911083  0.21878007  1  0.092316  0  0.100042  0.103747  0  1.040996  0
H  H57  1  0.43229795  0.25089045  0.71878020  1  0.092374  0  0.100067  0.103831  0  1.040974  0
H  H58  1  0.52926217  0.44499566  0.16849309  1  0.126293  0  0.109455  0.126483  0  1.029259  0
H  H59  1  0.47073699  0.55500350  0.66849261  1  0.126303  0  0.109474  0.126515  0  1.029212  0
H  H60  1  0.95463225  0.93194775  0.12854886  1  0.040671  0  0.108674  0.112728  0  0.975684  0
H  H61  1  0.04536849  0.06804997  0.62854854  1  0.040685  0  0.108696  0.112683  0  0.975709  0
H  H62  1  0.04135692  0.92296646  0.07102341  1  0.023094  0  0.090164  0.074165  0  1.006501  0
H  H63  1  0.95864965  0.07703439  0.57102157  1  0.023115  0  0.090162  0.07418  0  1.006567  0
H  H64  1  0.58190312  0.57861261  0.11305735  1  0.125318  0  0.122737  0.097441  0  0.990519  0
H  H65  1  0.41809940  0.42138638  0.61305708  1  0.125325  0  0.122735  0.097409  0  0.990547  0
H  H66  1  0.23794953  0.59027335  0.22666117  1  0.179819  0  0.113022  0.099593  0  1.05109  0
H  H67  1  0.76205542  0.40972596  0.72666117  1  0.179892  0  0.113026  0.099593  0  1.051152  0
H  H68  1  0.29144368  0.48142056  0.52896460  1  0.082071  0  0.105117  0.108495  0  1.040941  0
H  H69  1  0.70855699  0.51857885  0.02896206  1  0.081935  0  0.105119  0.108543  0  1.040993  0
H  H70  1  0.23646130  0.77246718  0.41716396  1  0.027833  0  0.09605  0.099377  0  0.979838  0
H  H71  1  0.76353476  0.22753269  0.91716394  1  0.027856  0  0.096046  0.099377  0  0.979882  0
H  H72  1  0.34342093  0.71347559  0.40005173  1  0.000768  0  0.09141  0.090624  0  1.002814  0
H  H73  1  0.65657888  0.28652687  0.90004978  1  0.000754  0  0.091416  0.090635  0  1.002831  0
H  H74  1  0.79867568  0.26138926  0.39507451  1  0.034395  0  0.096202  0.099858  0  0.992753  0
H  H75  1  0.20133365  0.73861184  0.89507241  1  0.034423  0  0.096149  0.099838  0  0.99276  0
H  H76  1  0.88754228  0.18310077  0.39321399  1  0.060174  0  0.100745  0.106638  0  0.968535  0
H  H77  1  0.11246169  0.81689571  0.89321283  1  0.06026  0  0.100804  0.10669  0  0.968532  0
H  H78  1  0.55737966  0.19929095  0.52364341  1  0.087829  0  0.111534  0.123509  0  0.988903  0
H  H79  1  0.44261829  0.80070779  0.02364449  1  0.087668  0  0.111552  0.123496  0  0.98892  0
H  H80  1  0.34847501  0.37106476  0.16686127  1  0.040857  0  0.1054  0.097836  0  1.014328  0
H  H81  1  0.65152114  0.62893241  0.66686618  1  0.040681  0  0.105438  0.097933  0  1.014292  0
H  H82  1  0.19867312  0.34850183  0.16093298  1  0.007946  0  0.090925  0.075904  0  1.013851  0
H  H83  1  0.80132291  0.65149202  0.66094037  1  0.007882  0  0.090995  0.076059  0  1.013766  0
H  H84  1  0.17045059  0.53239200  0.71247723  1  0.068596  0  0.100967  0.10487  0  1.039233  0
H  H85  1  0.82955202  0.46760860  0.21247466  1  0.068647  0  0.100994  0.104912  0  1.039202  0
H  H86  1  0.03948251  0.64397203  0.53785289  1  0.107263  0  0.109713  0.127282  0  1.004418  0
H  H87  1  0.96051746  0.35602742  0.03785312  1  0.107365  0  0.109698  0.127266  0  1.004392  0
H  H88  1  0.40843243  0.50529122  0.27275914  1  0.02631  0  0.09361  0.096092  0  0.990217  0
H  H89  1  0.59156921  0.49470889  0.77275703  1  0.026683  0  0.093655  0.096168  0  0.990198  0
H  H90  1  0.31097451  0.41456272  0.29959123  1  0.022922  0  0.099582  0.104962  0  0.970832  0
H  H91  1  0.68902734  0.58543680  0.79959065  1  0.022902  0  0.099577  0.104946  0  0.970841  0
H  H92  1  0.38733382  0.99912662  0.42185331  1  0.089878  0  0.110203  0.119556  0  0.981614  0
H  H93  1  0.61266564  0.00087656  0.92185196  1  0.089918  0  0.110155  0.119492  0  0.981551  0
H  H94  1  0.40975044  0.41002920  0.48558935  1  0.124658  0  0.113776  0.09446  0  1.022329  0
H  H95  1  0.59025537  0.58997283  0.98558765  1  0.12467  0  0.113762  0.094459  0  1.022364  0
H  H96  1  0.30947979  0.94006032  0.51084405  1  0.123271  0  0.116311  0.092169  0  1.024791  0
H  H97  1  0.69051965  0.05994170  0.01084375  1  0.12331  0  0.116296  0.092192  0  1.024771  0
H  H98  1  0.59519454  0.64857851  0.42731819  1  0.167379  0  0.111328  0.098774  0  1.0501  0
H  H99  1  0.40480745  0.35142138  0.92731826  1  0.167415  0  0.111317  0.098773  0  1.0501  0
H  H100  1  0.34261546  0.36014517  0.39743076  1  0.169308  0  0.105482  0.134135  0  1.031141  0
H  H101  1  0.65738511  0.63985397  0.89742888  1  0.169333  0  0.105445  0.134065  0  1.031207  0
H  H102  1  0.94571162  0.77154020  0.02524276  1  0.068196  0  0.108024  0.108235  0  1.031554  0
H  H103  1  0.05429283  0.22846119  0.52524490  1  0.068363  0  0.108011  0.108196  0  1.03165  0
H  H104  1  0.92131610  0.85865778  0.98375599  1  0.038032  0  0.090051  0.077787  0  0.997758  0
H  H105  1  0.07868370  0.14134029  0.48375779  1  0.038089  0  0.090065  0.07779  0  0.997733  0
H  H106  1  0.15607867  0.46423763  0.90478095  1  0.086621  0  0.109214  0.12373  0  0.989181  0
H  H107  1  0.84392432  0.53576087  0.40478084  1  0.086676  0  0.109215  0.123761  0  0.989194  0
H  H108  1  0.61722609  0.81653470  0.43183749  1  0.133518  0  0.110392  0.135073  0  1.009627  0
H  H109  1  0.38277068  0.18346720  0.93183665  1  0.133471  0  0.110403  0.135151  0  1.009708  0
H  H110  1  0.52655549  0.76300043  0.51641591  1  0.136323  0  0.112858  0.082015  0  1.060504  0
H  H111  1  0.47344321  0.23700161  0.01641577  1  0.136316  0  0.112881  0.082046  0  1.060419  0
H  H112  1  0.57098663  0.20337352  0.23600978  1  0.136956  0  0.117671  0.105351  0  1.01108  0
H  H113  1  0.42901717  0.79663045  0.73601002  1  0.136921  0  0.11766  0.105341  0  1.011106  0
H  H114  1  0.97543725  0.50614565  0.75145567  1  0.063484  0  0.092978  0.093058  0  1.027116  0
H  H115  1  0.02456060  0.49385374  0.25145456  1  0.063474  0  0.092992  0.093091  0  1.027023  0
H  H116  1  0.90472944  0.59471421  0.76124472  1  0.021638  0  0.096098  0.100108  0  0.979025  0
H  H117  1  0.09527155  0.40528719  0.26124502  1  0.021816  0  0.096102  0.100094  0  0.978998  0
H  H118  1  0.89461422  0.54511059  0.86297092  1  0.046957  0  0.098145  0.101763  0  0.977395  0
H  H119  1  0.10538569  0.45488779  0.36297167  1  0.047018  0  0.098117  0.101728  0  0.977417  0
H  H120  1  0.97752971  0.46483171  0.84940691  1  0.042762  0  0.094334  0.096936  0  0.996591  0
H  H121  1  0.02247284  0.53516795  0.34940861  1  0.04277  0  0.094332  0.096896  0  0.996668  0
H  H122  1  0.11338678  0.81932348  0.64526215  1  0.142391  0  0.116789  0.101566  0  1.012666  0
H  H123  1  0.88660954  0.18067231  0.14526170  1  0.142177  0  0.116806  0.101538  0  1.012602  0
H  H124  1  0.42857661  0.11378236  0.59131567  1  0.135389  0  0.111071  0.0833  0  1.050273  0
H  H125  1  0.57142235  0.88622319  0.09131798  1  0.135473  0  0.111078  0.083345  0  1.050223  0
H  H126  1  0.43909982  0.35897025  0.23874188  1  0.025535  0  0.093167  0.09003  0  1.003253  0
H  H127  1  0.56090151  0.64103042  0.73874130  1  0.0255  0  0.093156  0.090006  0  1.003265  0
H  H128  1  0.46091194  0.32523311  0.30451928  1  0.043988  0  0.094751  0.090414  0  0.974595  0
H  H129  1  0.53909097  0.67476709  0.80451824  1  0.044068  0  0.094764  0.090404  0  0.974636  0
H  H130  1  0.79427551  0.71021761  0.23027641  1  0.129665  0  0.119742  0.09849  0  0.993609  0
H  H131  1  0.20572618  0.28978171  0.73027504  1  0.129675  0  0.119772  0.098511  0  0.993631  0
H  H132  1  0.93991815  0.53797613  0.60716071  1  0.130594  0  0.109062  0.082005  0  1.05284  0
H  H133  1  0.06008100  0.46202616  0.10716131  1  0.13064  0  0.109071  0.082046  0  1.052836  0
H  H134  1  0.97429769  0.73710498  0.71195658  1  0.060037  0  0.106752  0.11339  0  0.995615  0
H  H135  1  0.02570075  0.26289232  0.21195784  1  0.060006  0  0.106751  0.113376  0  0.995654  0
H  H136  1  0.44887197  0.65302027  0.15040800  1  0.132509  0  0.111636  0.082194  0  1.043574  0
H  H137  1  0.55113042  0.34697950  0.65040893  1  0.132541  0  0.111644  0.082183  0  1.04359  0
H  H138  1  0.20352705  0.56969230  0.41643445  1  0.023266  0  0.08898  0.083388  0  0.996578  0
H  H139  1  0.79647313  0.43030756  0.91643297  1  0.023584  0  0.088976  0.083368  0  0.996619  0
H  H140  1  0.10218995  0.63191652  0.43672963  1  0.038734  0  0.097466  0.1055  0  0.973583  0
H  H141  1  0.89781135  0.36808339  0.93672966  1  0.038718  0  0.097449  0.105479  0  0.973606  0
H  H142  1  0.32429522  0.91878953  0.21440066  1  0.066728  0  0.109617  0.119502  0  0.978886  0
H  H143  1  0.67570473  0.08120711  0.71440193  1  0.066658  0  0.109576  0.119452  0  0.978888  0
H  H144  1  0.86815090  0.07141593  0.31880827  1  0.090726  0  0.112824  0.122761  0  0.979594  0
H  H145  1  0.13184691  0.92858299  0.81880560  1  0.090751  0  0.112789  0.122695  0  0.979596  0
H  H146  1  0.72426151  0.06374291  0.42199595  1  0.021989  0  0.090898  0.085923  0  0.986878  0
H  H147  1  0.27574106  0.93625630  0.92199573  1  0.02199  0  0.090944  0.085978  0  0.986932  0
H  H148  1  0.63436988  0.14086830  0.42160966  1  0.039749  0  0.08965  0.083278  0  0.981539  0
H  H149  1  0.36563286  0.85913157  0.92161132  1  0.039694  0  0.089664  0.083302  0  0.981498  0
H  H150  1  0.77039571  0.00662190  0.54039601  1  0.093919  0  0.108041  0.116409  0  0.991143  0
H  H151  1  0.22960564  0.99337953  0.04039125  1  0.094032  0  0.108047  0.1164  0  0.99112  0
H  H152  1  0.00641146  0.74763152  0.25845775  1  0.110232  0  0.115634  0.098361  0  1.003893  0
H  H153  1  0.99358977  0.25236457  0.75846046  1  0.110203  0  0.115648  0.098362  0  1.003864  0
H  H154  1  0.31654074  0.20464820  0.06692793  1  0.096743  0  0.111005  0.115563  0  1.001096  0
H  H155  1  0.68345947  0.79535067  0.56693298  1  0.096877  0  0.11099  0.115567  0  1.001015  0
H  H156  1  0.26478313  0.20627238  0.13400868  1  0.026124  0  0.089495  0.079564  0  0.988792  0
H  H157  1  0.73521309  0.79372999  0.63401430  1  0.025941  0  0.089501  0.079621  0  0.98878  0
H  H158  1  0.07670868  0.77607708  0.35307915  1  0.087063  0  0.113196  0.1289  0  0.979747  0
H  H159  1  0.92328861  0.22392128  0.85308043  1  0.087066  0  0.113194  0.128868  0  0.97979  0
H  H160  1  0.63001821  0.92775343  0.60730807  1  0.126913  0  0.112992  0.090948  0  1.032528  0
H  H161  1  0.36997866  0.07225283  0.10730436  1  0.127185  0  0.11301  0.09103  0  1.032393  0
H  H162  1  0.25754254  0.51152884  0.98998779  1  0.125205  0  0.116266  0.08904  0  1.007131  0
H  H163  1  0.74245834  0.48846991  0.48998615  1  0.125263  0  0.116246  0.089013  0  1.007145  0
H  H164  1  0.39158758  0.87579210  0.32464272  1  0.021346  0  0.090832  0.087474  0  0.980313  0
H  H165  1  0.60841065  0.12420816  0.82464379  1  0.021396  0  0.090862  0.087473  0  0.980269  0
H  H166  1  0.49095017  0.80664815  0.32940967  1  0.028148  0  0.090726  0.087234  0  0.978974  0
H  H167  1  0.50904864  0.19335411  0.82941043  1  0.028135  0  0.090724  0.087221  0  0.978963  0
H  H168  1  0.04515846  0.68361899  0.02479389  1  0.128687  0  0.113033  0.089966  0  1.056292  0
H  H169  1  0.95484098  0.31637910  0.52479489  1  0.128631  0  0.113025  0.089953  0  1.056343  0
H  H170  1  0.17526786  0.37762126  0.59314470  1  0.114279  0  0.106662  0.070405  0  1.049997  0
H  H171  1  0.82473175  0.62238033  0.09314215  1  0.114257  0  0.106667  0.070413  0  1.049956  0
H  H172  1  0.51443018  0.96961576  0.25624462  1  0.028629  0  0.088295  0.081684  0  1.029184  0
H  H173  1  0.48556560  0.03038498  0.75624487  1  0.028669  0  0.088281  0.081654  0  1.02929  0
H  H174  1  0.61224986  0.89848890  0.25971251  1  0.045209  0  0.098545  0.105681  0  0.972106  0
H  H175  1  0.38774996  0.10151449  0.75971127  1  0.045136  0  0.098553  0.105676  0  0.972146  0
C  C176  1  0.24314946  0.63895688  0.49138497  1  0.009524  0  -0.161845  -0.196285  0  3.950106  0
C  C177  1  0.75685012  0.36104319  0.99138495  1  0.009701  0  -0.161838  -0.196328  0  3.950146  0
C  C178  1  0.67740613  0.20470252  0.30710530  1  -0.003622  0  -0.087742  -0.194939  0  3.957968  0
C  C179  1  0.32259816  0.79529967  0.80710400  1  -0.003813  0  -0.087743  -0.194903  0  3.9578  0
C  C180  1  0.62793679  0.50300424  0.23768669  1  0.0324  0  0.010056  0.161903  0  3.941454  0
C  C181  1  0.37206666  0.49699511  0.73768549  1  0.032382  0  0.010116  0.161996  0  3.941395  0
C  C182  1  0.19756783  0.29263989  0.99794782  1  1.616761  0  0.16256  0.587454  0  4.292081  0
C  C183  1  0.80239942  0.70736291  0.49795683  1  1.617169  0  0.162457  0.587236  0  4.292177  0
C  C184  1  0.54933155  0.93783794  0.36266758  1  -0.020043  0  -0.158007  -0.20802  0  3.972706  0
C  C185  1  0.45066556  0.06216243  0.86266734  1  -0.020102  0  -0.157998  -0.208051  0  3.972778  0
C  C186  1  0.75654188  0.16039697  0.48620755  1  0.007728  0  -0.159819  -0.205103  0  3.945459  0
C  C187  1  0.24346029  0.83960375  0.98620681  1  0.00769  0  -0.159804  -0.205071  0  3.945517  0
C  C188  1  0.50492501  0.56106454  0.36587445  1  -0.084068  0  -0.098531  -0.20351  0  3.988521  0
C  C189  1  0.49507678  0.43893451  0.86587402  1  -0.084038  0  -0.098574  -0.203576  0  3.988591  0
C  C190  1  0.70379782  0.57950672  0.25412185  1  -0.130186  0  -0.091098  -0.203598  0  3.981901  0
C  C191  1  0.29620421  0.42049267  0.75412079  1  -0.130247  0  -0.091043  -0.203576  0  3.981787  0
C  C192  1  0.04491738  0.59425522  0.81625899  1  -0.043146  0  -0.156982  -0.121032  0  3.911428  0
C  C193  1  0.95508239  0.40574502  0.31625841  1  -0.043163  0  -0.157008  -0.120989  0  3.911367  0
C  C194  1  0.29558712  0.80475956  0.16304739  1  0.452724  0  0.039195  0.083015  0  3.946518  0
C  C195  1  0.70441245  0.19523826  0.66304677  1  0.452728  0  0.039116  0.08283  0  3.946666  0
C  C196  1  0.18751455  0.31761102  0.05784319  1  0.211364  0  -0.085055  -0.220389  0  3.884406  0
C  C197  1  0.81247960  0.68239048  0.55784862  1  0.211348  0  -0.085071  -0.220321  0  3.884445  0
C  C198  1  0.17668703  0.57297963  0.52909622  1  -0.103176  0  0.014488  0.172148  0  3.937807  0
C  C199  1  0.82331364  0.42701979  0.02909602  1  -0.103171  0  0.014486  0.172151  0  3.937833  0
C  C200  1  0.25405943  0.64820500  0.30667847  1  -0.042102  0  -0.091948  -0.192765  0  3.959476  0
C  C201  1  0.74594034  0.35179256  0.80667842  1  -0.042169  0  -0.091933  -0.192806  0  3.959522  0
C  C202  1  0.75632735  0.07626119  0.25225161  1  0.446534  0  0.046362  0.08381  0  3.948486  0
C  C203  1  0.24367168  0.92373953  0.75224969  1  0.446488  0  0.046383  0.083787  0  3.948478  0
C  C204  1  0.45518422  0.84193544  0.22267625  1  -0.105685  0  0.011428  0.168363  0  3.962124  0
C  C205  1  0.54481340  0.15806453  0.72267552  1  -0.105665  0  0.011388  0.168302  0  3.962174  0
C  C206  1  0.81945871  0.93890580  0.05258796  1  0.27859  0  -0.078613  -0.222184  0  3.929014  0
C  C207  1  0.18054678  0.06109500  0.55258886  1  0.27823  0  -0.078682  -0.222192  0  3.928991  0
C  C208  1  0.22923888  0.64627286  0.66326759  1  0.455725  0  0.03865  0.078567  0  3.94282  0
C  C209  1  0.77076121  0.35372694  0.16326600  1  0.455722  0  0.03871  0.078668  0  3.942757  0
C  C210  1  0.59860561  0.42363667  0.27384939  1  -0.001143  0  -0.16009  -0.210524  0  3.953859  0
C  C211  1  0.40139604  0.57636345  0.77384789  1  -0.001103  0  -0.160119  -0.21055  0  3.953795  0
C  C212  1  0.00681317  0.61521137  0.94886999  1  -0.062489  0  -0.086494  -0.184693  0  3.908746  0
C  C213  1  0.99318696  0.38478659  0.44887072  1  -0.062293  0  -0.086525  -0.184808  0  3.908723  0
C  C214  1  0.48973730  0.76599630  0.20415470  1  0.03387  0  -0.091023  -0.190059  0  3.964008  0
C  C215  1  0.51026585  0.23400362  0.70415507  1  0.033794  0  -0.091069  -0.190217  0  3.964189  0
C  C216  1  0.58486246  0.50290134  0.18553547  1  -0.043739  0  -0.081819  -0.171293  0  3.893082  0
C  C217  1  0.41513960  0.49709852  0.68553601  1  -0.043809  0  -0.081866  -0.171389  0  3.893148  0
C  C218  1  0.97172924  0.88766978  0.09655167  1  0.271289  0  -0.079394  -0.206056  0  3.877059  0
C  C219  1  0.02827322  0.11232983  0.59655130  1  0.270955  0  -0.079378  -0.205992  0  3.877093  0
C  C220  1  0.61606926  0.57744053  0.15345099  1  0.426323  0  0.047689  0.087279  0  3.949962  0
C  C221  1  0.38393349  0.42255726  0.65345101  1  0.426021  0  0.047698  0.087313  0  3.949878  0
C  C222  1  0.20697804  0.63226117  0.25601897  1  0.465007  0  0.036891  0.078152  0  3.940553  0
C  C223  1  0.79302402  0.36773823  0.75601907  1  0.465079  0  0.036921  0.07825  0  3.940388  0
C  C224  1  0.21335118  0.49641862  0.54480627  1  0.029574  0  -0.085517  -0.179119  0  3.92605  0
C  C225  1  0.78664641  0.50358085  0.04480597  1  0.029682  0  -0.085479  -0.179147  0  3.926029  0
C  C226  1  0.25156987  0.71040081  0.39974515  1  0.034252  0  -0.159288  -0.201507  0  3.950674  0
C  C227  1  0.74842925  0.28959900  0.89974429  1  0.034184  0  -0.159289  -0.201538  0  3.950841  0
C  C228  1  0.79984229  0.19132751  0.38749129  1  -0.017306  0  -0.157915  -0.212405  0  3.957813  0
C  C229  1  0.20016211  0.80867094  0.88748961  1  -0.017635  0  -0.157888  -0.212391  0  3.957733  0
C  C230  1  0.57717661  0.13888299  0.54046221  1  -0.087298  0  -0.084127  -0.188794  0  3.950128  0
C  C231  1  0.42282325  0.86111911  0.04046284  1  -0.087043  0  -0.084093  -0.188726  0  3.950172  0
C  C232  1  0.27826941  0.37694276  0.13984224  1  0.28429  0  -0.079163  -0.213105  0  3.918253  0
C  C233  1  0.72172753  0.62305566  0.63984737  1  0.284387  0  -0.079224  -0.213316  0  3.918386  0
C  C234  1  0.20814597  0.69980247  0.34343520  1  -0.056784  0  0.011855  0.162692  0  3.975265  0
C  C235  1  0.79185201  0.30019586  0.84343448  1  -0.056741  0  0.01185  0.162684  0  3.975373  0
C  C236  1  0.15566925  0.59651949  0.69945145  1  -0.056264  0  -0.090045  -0.189478  0  3.96439  0
C  C237  1  0.84433283  0.40347975  0.19944931  1  -0.056244  0  -0.090079  -0.189548  0  3.964534  0
C  C238  1  0.07415087  0.58689291  0.55026464  1  -0.021154  0  -0.083606  -0.176653  0  3.916317  0
C  C239  1  0.92584845  0.41310657  0.05026556  1  -0.021336  0  -0.083591  -0.17661  0  3.916438  0
C  C240  1  0.40046775  0.44811646  0.29990863  1  0.013885  0  -0.157976  -0.203483  0  3.944219  0
C  C241  1  0.59953244  0.55188307  0.79990735  1  0.013463  0  -0.157967  -0.2035  0  3.944287  0
C  C242  1  0.42092341  0.94684075  0.44168523  1  0.024332  0  -0.087723  -0.191129  0  3.961045  0
C  C243  1  0.57907368  0.05316184  0.94168419  1  0.024322  0  -0.08766  -0.190957  0  3.96084  0
C  C244  1  0.43626699  0.45348563  0.45134497  1  0.479477  0  0.042606  0.089194  0  3.936287  0
C  C245  1  0.56373634  0.54651498  0.95134399  1  0.479631  0  0.042539  0.089033  0  3.936343  0
C  C246  1  0.37679103  0.91472949  0.49084724  1  0.42305  0  0.040031  0.079162  0  3.953621  0
C  C247  1  0.62320806  0.08527190  0.99084635  1  0.4231  0  0.040038  0.079056  0  3.953487  0
C  C248  1  0.76116457  0.16698223  0.33141088  1  -0.012837  0  0.012876  0.163863  0  3.975067  0
C  C249  1  0.23883723  0.83301871  0.83140852  1  -0.012555  0  0.012934  0.163859  0  3.975037  0
C  C250  1  0.43430728  0.47880310  0.35587888  1  0.004424  0  0.002908  0.150803  0  3.969438  0
C  C251  1  0.56569436  0.52119592  0.85587789  1  0.004795  0  0.002888  0.150654  0  3.96955  0
C  C252  1  0.53779477  0.58599059  0.41799400  1  0.421799  0  0.030717  0.072837  0  3.944106  0
C  C253  1  0.46220743  0.41401060  0.91799427  1  0.421836  0  0.030736  0.072872  0  3.944035  0
C  C254  1  0.40005282  0.42453862  0.40026089  1  -0.118026  0  -0.088313  -0.184713  0  3.915674  0
C  C255  1  0.59994961  0.57546119  0.90026002  1  -0.118588  0  -0.088211  -0.184423  0  3.91561  0
C  C256  1  0.88394125  0.81276348  0.01601271  1  0.229156  0  -0.087665  -0.23377  0  3.910521  0
C  C257  1  0.11606273  0.18723656  0.51601504  1  0.228955  0  -0.087685  -0.23378  0  3.910575  0
C  C258  1  0.13016532  0.51550267  0.92906674  1  -0.051448  0  -0.08559  -0.186336  0  3.939535  0
C  C259  1  0.86983719  0.48449590  0.42906590  1  -0.051477  0  -0.085613  -0.186393  0  3.939504  0
C  C260  1  0.54755283  0.84581976  0.44619745  1  0.034485  0  -0.083398  -0.182355  0  3.91141  0
C  C261  1  0.45244332  0.15418218  0.94619723  1  0.034411  0  -0.083382  -0.182377  0  3.911463  0
C  C262  1  0.06224674  0.62808949  0.71871156  1  0.033649  0  0.016129  0.175378  0  3.944305  0
C  C263  1  0.93775348  0.37191113  0.21871051  1  0.033638  0  0.016098  0.175352  0  3.944386  0
C  C264  1  0.49815885  0.81592910  0.49478984  1  0.453848  0  0.047055  0.096386  0  3.920323  0
C  C265  1  0.50183930  0.18407164  0.99478858  1  0.453826  0  0.047079  0.096431  0  3.920324  0
C  C266  1  0.77787525  0.75001184  0.99328934  1  1.607629  0  0.171478  0.590384  0  4.259056  0
C  C267  1  0.22213013  0.24998492  0.49329121  1  1.607637  0  0.171614  0.590692  0  4.258564  0
C  C268  1  0.63593182  0.17596002  0.25681514  1  0.483027  0  0.043245  0.080541  0  3.933481  0
C  C269  1  0.36407045  0.82404335  0.75681398  1  0.483181  0  0.043273  0.080541  0  3.933423  0
C  C270  1  0.98857761  0.57710023  0.76099209  1  -0.002679  0  -0.158758  -0.203701  0  3.94169  0
C  C271  1  0.01142138  0.42289985  0.26099213  1  -0.002807  0  -0.158767  -0.203725  0  3.941565  0
C  C272  1  0.98189971  0.53452829  0.86033770  1  -0.019844  0  -0.157048  -0.206593  0  3.956072  0
C  C273  1  0.01810133  0.46547141  0.36033778  1  -0.019846  0  -0.157034  -0.206553  0  3.95606  0
C  C274  1  0.12203915  0.75552515  0.66183338  1  0.435029  0  0.043778  0.084198  0  3.941512  0
C  C275  1  0.87795826  0.24447399  0.16183252  1  0.4355  0  0.043755  0.084208  0  3.941373  0
C  C276  1  0.77529506  0.98009948  0.10216577  1  1.552684  0  0.179056  0.585679  0  4.225249  0
C  C277  1  0.22470813  0.01989948  0.60216601  1  1.553127  0  0.179018  0.585708  0  4.225265  0
C  C278  1  0.50429327  0.09159787  0.57797517  1  0.447134  0  0.039534  0.087838  0  3.938774  0
C  C279  1  0.49570416  0.90840567  0.07797604  1  0.446237  0  0.039479  0.087797  0  3.938883  0
C  C280  1  0.47191447  0.38358463  0.27817095  1  -0.025443  0  -0.155873  -0.125558  0  3.906189  0
C  C281  1  0.52808724  0.61641549  0.77816946  1  -0.025523  0  -0.155863  -0.125454  0  3.906197  0
C  C282  1  0.73295122  0.65089436  0.21932029  1  0.488034  0  0.040369  0.075264  0  3.9777  0
C  C283  1  0.26705014  0.34910428  0.71931952  1  0.48814  0  0.040325  0.075259  0  3.977699  0
C  C284  1  0.03938747  0.55418182  0.91362258  1  0.018373  0  0.010847  0.157707  0  3.95911  0
C  C285  1  0.96061382  0.44581604  0.41362282  1  0.018148  0  0.010887  0.157815  0  3.959105  0
C  C286  1  0.01718301  0.52793601  0.58770872  1  0.476856  0  0.032543  0.073329  0  3.970524  0
C  C287  1  0.98281584  0.47206291  0.08770864  1  0.476902  0  0.032454  0.073188  0  3.970609  0
C  C288  1  0.04610311  0.70942421  0.69881438  1  -0.020416  0  -0.08735  -0.19016  0  3.956198  0
C  C289  1  0.95389797  0.29057437  0.19881416  1  -0.02063  0  -0.08733  -0.190077  0  3.956047  0
C  C290  1  0.42554141  0.71294935  0.16586480  1  0.439245  0  0.041091  0.083436  0  3.956262  0
C  C291  1  0.57446186  0.28704979  0.66586500  1  0.439281  0  0.041161  0.083551  0  3.956271  0
C  C292  1  0.19347221  0.63253541  0.43479141  1  0.014378  0  -0.156489  -0.121847  0  3.881944  0
C  C293  1  0.80652806  0.36746384  0.93479035  1  0.01408  0  -0.156508  -0.121835  0  3.882022  0
C  C294  1  0.35488125  0.86010854  0.20172223  1  -0.033802  0  -0.087771  -0.185412  0  3.953355  0
C  C295  1  0.64511886  0.13988938  0.70172261  1  -0.033766  0  -0.087676  -0.185283  0  3.953156  0
C  C296  1  0.00418493  0.80587183  0.12210096  1  1.575752  0  0.180898  0.59336  0  4.203686  0
C  C297  1  0.99581706  0.19412785  0.62210166  1  1.576017  0  0.180797  0.593334  0  4.203819  0
C  C298  1  0.80177776  0.10222936  0.30229463  1  -0.058709  0  -0.085556  -0.193325  0  3.958928  0
C  C299  1  0.19822264  0.89777083  0.80229256  1  -0.058637  0  -0.085561  -0.193247  0  3.958932  0
C  C300  1  0.72244803  0.13407651  0.42841911  1  -0.036499  0  -0.155643  -0.12104  0  3.912576  0
C  C301  1  0.27755515  0.86592470  0.92841929  1  -0.03642  0  -0.155708  -0.121115  0  3.912748  0
C  C302  1  0.69491723  0.03228547  0.55007489  1  -0.04656  0  -0.084172  -0.178685  0  3.93818  0
C  C303  1  0.30508360  0.96771666  0.05007196  1  -0.04671  0  -0.084211  -0.178649  0  3.938213  0
C  C304  1  0.07519977  0.71882395  0.27429643  1  0.439062  0  0.03898  0.075955  0  3.965212  0
C  C305  1  0.92480120  0.28117351  0.77429773  1  0.439337  0  0.038862  0.075745  0  3.965355  0
C  C306  1  0.32261152  0.24410727  0.10396795  1  0.250707  0  -0.083369  -0.22602  0  3.918997  0
C  C307  1  0.67738493  0.75589435  0.60397417  1  0.250505  0  -0.083403  -0.226128  0  3.919047  0
C  C308  1  0.11653315  0.73576543  0.32610956  1  -0.00501  0  -0.087456  -0.196374  0  3.955636  0
C  C309  1  0.88346607  0.26423219  0.82611113  1  -0.005078  0  -0.087372  -0.196158  0  3.955561  0
C  C310  1  0.61815918  0.98801173  0.58717496  1  0.462326  0  0.038146  0.07706  0  3.951473  0
C  C311  1  0.38183921  0.01199183  0.08717248  1  0.462028  0  0.038115  0.076918  0  3.951445  0
C  C312  1  0.44487920  0.25579842  0.12497289  1  1.560992  0  0.175884  0.578949  0  4.235685  0
C  C313  1  0.55511769  0.74420061  0.62497432  1  1.560951  0  0.175928  0.579094  0  4.235549  0
C  C314  1  0.67585352  0.10998102  0.52605262  1  0.043064  0  0.015857  0.174124  0  3.948613  0
C  C315  1  0.32414498  0.89001971  0.02605174  1  0.042985  0  0.015843  0.174044  0  3.94875  0
C  C316  1  0.18657311  0.54044681  0.97698554  1  0.434744  0  0.043471  0.089822  0  3.940408  0
C  C317  1  0.81342707  0.45954991  0.47698492  1  0.434799  0  0.043516  0.089834  0  3.940336  0
C  C318  1  0.28326593  0.47608644  0.13091914  1  1.577999  0  0.179745  0.585604  0  4.214956  0
C  C319  1  0.71672757  0.52391196  0.63091983  1  1.578058  0  0.179733  0.585661  0  4.215015  0
C  C320  1  0.48233815  0.87510603  0.32095040  1  -0.004412  0  -0.15699  -0.121581  0  3.911466  0
C  C321  1  0.51765855  0.12489488  0.82094998  1  -0.004405  0  -0.157003  -0.121504  0  3.911368  0
C  C322  1  0.06676812  0.63631634  0.99615349  1  0.433727  0  0.036999  0.079964  0  3.945281  0
C  C323  1  0.93323151  0.36368044  0.49615403  1  0.433716  0  0.037032  0.080064  0  3.945214  0
C  C324  1  0.14948040  0.43863084  0.58105023  1  0.421122  0  0.039495  0.093058  0  3.945354  0
C  C325  1  0.85051853  0.56136873  0.08104854  1  0.42113  0  0.039492  0.0931  0  3.945278  0
C  C326  1  0.52217928  0.90081919  0.26383144  1  -0.001162  0  -0.160653  -0.207051  0  3.967759  0
C  C327  1  0.47781826  0.09918156  0.76383168  1  -0.001159  0  -0.160596  -0.206971  0  3.967925  0
C  C328  1  0.50736649  0.91153813  0.41795513  1  -0.155805  0  0.011407  0.159461  0  3.972855  0
C  C329  1  0.49263158  0.08846306  0.91795382  1  -0.155772  0  0.0113  0.159228  0  3.973025  0
N  N330  1  0.86686798  0.86122714  0.06495446  1  -1.002819  0  -0.34929  -0.029964  0  3.550609  0
N  N331  1  0.13313586  0.13877303  0.56495563  1  -1.002724  0  -0.34932  -0.030096  0  3.550762  0
N  N332  1  0.29092815  0.32813343  0.09065894  1  -0.990319  0  -0.351441  -0.028695  0  3.556183  0
N  N333  1  0.70906812  0.67186816  0.59066564  1  -0.989951  0  -0.351454  -0.028823  0  3.556485  0
N  N334  1  0.67361046  0.11155850  0.23017762  1  -1.218901  0  -0.350433  -0.188445  0  3.627894  0
N  N335  1  0.32639140  0.88844149  0.73017675  1  -1.218966  0  -0.350469  -0.188479  0  3.627988  0
N  N336  1  0.41366143  0.84924266  0.51682553  1  -1.198917  0  -0.356205  -0.197518  0  3.631712  0
N  N337  1  0.58633744  0.15076004  0.01682533  1  -1.198867  0  -0.356203  -0.19748  0  3.631838  0
N  N338  1  0.15634262  0.60091020  0.01003542  1  -1.205456  0  -0.355284  -0.209817  0  3.63297  0
N  N339  1  0.84365579  0.39908784  0.51003488  1  -1.205605  0  -0.355303  -0.20985  0  3.633044  0
N  N340  1  0.68836263  0.65110389  0.16975676  1  -1.197936  0  -0.345624  -0.214065  0  3.630721  0
N  N341  1  0.31164035  0.34889394  0.66975653  1  -1.197677  0  -0.345667  -0.214105  0  3.630698  0
N  N342  1  0.11819568  0.66672860  0.23994793  1  -1.213318  0  -0.349844  -0.196325  0  3.619916  0
N  N343  1  0.88180928  0.33327009  0.73994910  1  -1.213563  0  -0.349863  -0.196321  0  3.619869  0
N  N344  1  0.50359540  0.53323443  0.46064114  1  -1.200652  0  -0.347789  -0.218185  0  3.626855  0
N  N345  1  0.49640658  0.46676688  0.96064112  1  -1.200685  0  -0.3478  -0.218178  0  3.626858  0
N  N346  1  0.05404942  0.45477603  0.60324412  1  -1.210207  0  -0.356441  -0.211778  0  3.645448  0
N  N347  1  0.94594934  0.54522492  0.10324393  1  -1.210157  0  -0.356409  -0.2118  0  3.645424  0
N  N348  1  0.21283058  0.72481956  0.64479684  1  -1.209772  0  -0.354246  -0.186643  0  3.637902  0
N  N349  1  0.78717073  0.27517953  0.14479489  1  -1.209889  0  -0.354245  -0.186721  0  3.637919  0
N  N350  1  0.52413303  0.01719709  0.60113821  1  -1.206787  0  -0.354127  -0.196118  0  3.641263  0
N  N351  1  0.47586589  0.98280783  0.10113743  1  -1.20594  0  -0.35406  -0.196073  0  3.641405  0
N  N352  1  0.33047679  0.73228276  0.14517516  1  -1.208778  0  -0.350093  -0.195202  0  3.630425  0
N  N353  1  0.66952633  0.26771368  0.64517645  1  -1.208818  0  -0.350171  -0.195188  0  3.630655  0
O  O354  1  0.73165936  0.92899609  0.14002687  1  -1.171059  0  -0.347664  -0.574122  0  2.226317  0
O  O355  1  0.26834468  0.07100099  0.64002766  1  -1.171038  0  -0.347581  -0.574064  0  2.226295  0
O  O356  1  0.46523008  0.19716796  0.15680790  1  -1.198426  0  -0.358816  -0.609848  0  2.18365  0
O  O357  1  0.53476064  0.80283117  0.65681048  1  -1.198557  0  -0.358855  -0.609953  0  2.183525  0
O  O358  1  0.07352502  0.76944966  0.09606234  1  -1.180291  0  -0.342242  -0.578785  0  2.231882  0
O  O359  1  0.92647443  0.23054797  0.59606243  1  -1.180343  0  -0.342216  -0.578822  0  2.23203  0
O  O360  1  0.79063182  0.72260612  0.94650306  1  -1.207666  0  -0.3752  -0.611255  0  2.091263  0
O  O361  1  0.20937259  0.27739249  0.44650370  1  -1.207525  0  -0.375232  -0.611367  0  2.090881  0
O  O362  1  0.51794593  0.32161515  0.10740557  1  -1.179665  0  -0.346221  -0.574437  0  2.263893  0
O  O363  1  0.48205274  0.67838847  0.60740555  1  -1.179685  0  -0.346197  -0.574413  0  2.264018  0
O  O364  1  0.11004824  0.29331095  0.97074130  1  -1.203313  0  -0.402763  -0.632218  0  2.040284  0
O  O365  1  0.88993484  0.70669041  0.47074217  1  -1.20317  0  -0.402863  -0.632321  0  2.039356  0
O  O366  1  0.95773267  0.77886540  0.16621335  1  -1.185454  0  -0.354486  -0.593972  0  2.193827  0
O  O367  1  0.04227178  0.22113507  0.66621305  1  -1.185408  0  -0.354436  -0.59392  0  2.193812  0
O  O368  1  0.29135948  0.27530357  0.98227162  1  -1.208201  0  -0.365835  -0.624619  0  2.208087  0
O  O369  1  0.70862562  0.72470180  0.48228394  1  -1.208533  0  -0.36572  -0.624408  0  2.208948  0
O  O370  1  0.78101404  0.06302362  0.10032506  1  -1.165578  0  -0.352506  -0.596203  0  2.241953  0
O  O371  1  0.21898565  0.93697468  0.60032427  1  -1.165689  0  -0.352494  -0.596217  0  2.241968  0
O  O372  1  0.69049942  0.72905315  0.02294467  1  -1.18491  0  -0.369453  -0.597082  0  2.166085  0
O  O373  1  0.30950542  0.27094029  0.52294563  1  -1.185091  0  -0.369565  -0.597241  0  2.166067  0
O  O374  1  0.21663073  0.51090873  0.15916811  1  -1.184361  0  -0.345034  -0.583949  0  2.212312  0
O  O375  1  0.78335931  0.48908446  0.65917140  1  -1.184392  0  -0.345009  -0.584016  0  2.212436  0
O  O376  1  0.35378977  0.51644653  0.09685429  1  -1.175048  0  -0.347768  -0.572221  0  2.257152  0
O  O377  1  0.64621272  0.48355639  0.59685154  1  -1.175068  0  -0.347774  -0.572208  0  2.257207  0
