# generated using pymatgen
data_CdH98C86(N2O)6
_symmetry_space_group_name_H-M   'P 1'
_cell_length_a   8.74753521
_cell_length_b   13.45752105
_cell_length_c   19.65781989
_cell_angle_alpha   99.23000905
_cell_angle_beta   92.28756239
_cell_angle_gamma   98.36812683
_symmetry_Int_Tables_number   1
_chemical_formula_structural   CdH98C86(N2O)6
_chemical_formula_sum   'Cd1 H98 C86 N12 O6'
_cell_volume   2255.09425993
_cell_formula_units_Z   1
loop_
 _symmetry_equiv_pos_site_id
 _symmetry_equiv_pos_as_xyz
  1  'x, y, z'
loop_
 _atom_site_type_symbol
 _atom_site_label
 _atom_site_symmetry_multiplicity
 _atom_site_fract_x
 _atom_site_fract_y
 _atom_site_fract_z
 _atom_site_occupancy
 _atom_site_pbe_bader_charge
 _atom_site_pbe_bader_spin_density
 _atom_site_pbe_cm5_charge
 _atom_site_pbe_ddec_charge
 _atom_site_pbe_ddec_spin_density
 _atom_site_pbe_ddec_sum_bond_order
 _atom_site_pbe_magmom
Cd  Cd0  1  0.00000154  0.99999014  0.00000026  1  1.249643  0  0.803453  0.78744  0  2.292185  0
H  H1  1  0.21110294  0.13577268  0.90897090  1  0.132822  0  0.110163  0.080255  0  1.0509  0
H  H2  1  0.78889805  0.86421456  0.09103395  1  0.132935  0  0.110118  0.080209  0  1.050796  0
H  H3  1  0.30096560  0.31965419  0.90115121  1  0.09097  0  0.104589  0.104753  0  1.038422  0
H  H4  1  0.69904208  0.68033231  0.09885113  1  0.090999  0  0.104635  0.104841  0  1.03845  0
H  H5  1  0.20199671  0.45488346  0.98251083  1  0.093214  0  0.106513  0.104147  0  1.017748  0
H  H6  1  0.79798623  0.54510009  0.01748412  1  0.092941  0  0.106563  0.104343  0  1.017421  0
H  H7  1  0.96665029  0.21548435  0.08008591  1  0.149728  0  0.1114  0.084723  0  1.058727  0
H  H8  1  0.03332387  0.78450071  0.91991059  1  0.149849  0  0.111419  0.084754  0  1.058617  0
H  H9  1  0.18981634  0.54112731  0.09562104  1  0.044007  0  0.099247  0.100856  0  1.039478  0
H  H10  1  0.81017022  0.45885704  0.90437102  1  0.044346  0  0.099275  0.100856  0  1.039685  0
H  H11  1  0.78398945  0.31530012  0.08021621  1  0.062581  0  0.100161  0.101938  0  1.040413  0
H  H12  1  0.21597362  0.68470103  0.91977583  1  0.062381  0  0.100183  0.102018  0  1.040418  0
H  H13  1  0.00188747  0.73949412  0.19892773  1  0.039212  0  0.094996  0.064643  0  0.977503  0
H  H14  1  0.99812340  0.26049621  0.80107256  1  0.038982  0  0.094996  0.06463  0  0.977506  0
H  H15  1  0.13150814  0.73808500  0.08653498  1  0.026846  0  0.079836  0.112836  0  1.041069  0
H  H16  1  0.86848437  0.26190997  0.91346145  1  0.026926  0  0.079872  0.112891  0  1.041181  0
H  H17  1  0.29365280  0.69605504  0.12422931  1  -0.010846  0  0.080147  0.107566  0  1.019503  0
H  H18  1  0.70634598  0.30394229  0.87576038  1  -0.010016  0  0.080169  0.107596  0  1.019545  0
H  H19  1  0.24394928  0.81595767  0.15797284  1  0.028751  0  0.080504  0.111528  0  1.050062  0
H  H20  1  0.75604630  0.18403578  0.84202297  1  0.028999  0  0.08052  0.111589  0  1.050156  0
H  H21  1  0.11044903  0.65657809  0.29169489  1  0.021538  0  0.083267  0.115432  0  1.027256  0
H  H22  1  0.88956798  0.34340924  0.70830110  1  0.021  0  0.083312  0.115516  0  1.027302  0
H  H23  1  0.24122535  0.76407211  0.27698006  1  0.030929  0  0.082439  0.112196  0  1.036417  0
H  H24  1  0.75879300  0.23591602  0.72301298  1  0.030838  0  0.08251  0.112275  0  1.036334  0
H  H25  1  0.27460262  0.63893057  0.24347835  1  0.013446  0  0.082743  0.115516  0  1.005951  0
H  H26  1  0.72541380  0.36105908  0.75651433  1  0.013639  0  0.08276  0.115589  0  1.006027  0
H  H27  1  0.59443922  0.44999998  0.21854815  1  0.026278  0  0.09563  0.063128  0  0.962823  0
H  H28  1  0.40554870  0.55000944  0.78145292  1  0.026351  0  0.095593  0.063139  0  0.962887  0
H  H29  1  0.52771090  0.56592084  0.13966770  1  0.045442  0  0.080732  0.107016  0  1.049439  0
H  H30  1  0.47229869  0.43409317  0.86033121  1  0.045729  0  0.080755  0.107091  0  1.049464  0
H  H31  1  0.37497461  0.46209082  0.13687090  1  0.039533  0  0.08475  0.117999  0  1.022924  0
H  H32  1  0.62502438  0.53793164  0.86312422  1  0.039511  0  0.084806  0.118072  0  1.022949  0
H  H33  1  0.50212141  0.46301846  0.06853525  1  0.024879  0  0.080544  0.111124  0  1.014497  0
H  H34  1  0.49788800  0.53699479  0.93146358  1  0.025065  0  0.080586  0.111266  0  1.014507  0
H  H35  1  0.43047607  0.29341778  0.16585268  1  0.020065  0  0.08699  0.120764  0  0.997811  0
H  H36  1  0.56949156  0.70659780  0.83414517  1  0.020297  0  0.086955  0.120677  0  0.997802  0
H  H37  1  0.62411015  0.26733342  0.17038402  1  0.050064  0  0.085742  0.122688  0  1.031259  0
H  H38  1  0.37585478  0.73267072  0.82961298  1  0.049609  0  0.085783  0.12263  0  1.031329  0
H  H39  1  0.53502875  0.28269505  0.09055105  1  0.014105  0  0.080802  0.110123  0  1.010734  0
H  H40  1  0.46494194  0.71731900  0.90944668  1  0.013837  0  0.080755  0.110046  0  1.010695  0
H  H41  1  0.88075093  0.49999087  0.29147964  1  0.083549  0  0.099491  0.14601  0  1.000643  0
H  H42  1  0.11926089  0.50001319  0.70852122  1  0.083477  0  0.099505  0.145961  0  1.000708  0
H  H43  1  0.72744630  0.51785027  0.34783970  1  0.068296  0  0.101865  0.147854  0  1.004104  0
H  H44  1  0.27256594  0.48215072  0.65216337  1  0.068345  0  0.101821  0.147784  0  1.004142  0
H  H45  1  0.90493057  0.59884537  0.36623801  1  0.05742  0  0.10208  0.148902  0  0.992708  0
H  H46  1  0.09508564  0.40115794  0.63376284  1  0.057662  0  0.10212  0.14892  0  0.992699  0
H  H47  1  0.62455667  0.76889889  0.22658188  1  0.10423  0  0.108643  0.112539  0  1.008997  0
H  H48  1  0.37543962  0.23109753  0.77342089  1  0.104111  0  0.108669  0.112628  0  1.009029  0
H  H49  1  0.51117736  0.91327342  0.29477216  1  0.085795  0  0.102817  0.097157  0  1.050536  0
H  H50  1  0.48882537  0.08672606  0.70523056  1  0.085599  0  0.102873  0.097231  0  1.050487  0
H  H51  1  0.52833496  0.93311595  0.42419103  1  0.133435  0  0.110245  0.11321  0  1.044752  0
H  H52  1  0.47167626  0.06689040  0.57581059  1  0.133539  0  0.110255  0.113268  0  1.044772  0
H  H53  1  0.74922677  0.75204580  0.58662492  1  0.018805  0  0.09851  0.142983  0  1.004067  0
H  H54  1  0.25077223  0.24794756  0.41337856  1  0.018777  0  0.098518  0.14298  0  1.00419  0
H  H55  1  0.86666516  0.74780749  0.51392804  1  0.066591  0  0.099322  0.140589  0  1.0087  0
H  H56  1  0.13333860  0.25218665  0.48607409  1  0.066646  0  0.099308  0.140535  0  1.008694  0
H  H57  1  0.69645663  0.65964151  0.50923917  1  0.074808  0  0.101428  0.148897  0  0.986451  0
H  H58  1  0.30353767  0.34036105  0.49076122  1  0.074776  0  0.101434  0.148877  0  0.986448  0
H  H59  1  0.84760137  0.04074605  0.74283669  1  0.071661  0  0.102023  0.110429  0  1.034332  0
H  H60  1  0.15240177  0.95926487  0.25716532  1  0.071822  0  0.10203  0.110427  0  1.034429  0
H  H61  1  0.39474011  0.86761028  0.74548497  1  0.08236  0  0.101326  0.109135  0  1.042261  0
H  H62  1  0.60526568  0.13240214  0.25451980  1  0.082421  0  0.101344  0.109114  0  1.042278  0
H  H63  1  0.90330329  0.95234854  0.56527254  1  0.021319  0  0.092961  0.057903  0  0.971165  0
H  H64  1  0.09669101  0.04765400  0.43472886  1  0.021241  0  0.092952  0.057864  0  0.971204  0
H  H65  1  0.71383521  0.05813333  0.52523660  1  0.044233  0  0.084482  0.114157  0  1.053414  0
H  H66  1  0.28616541  0.94186695  0.47476262  1  0.044249  0  0.084483  0.114168  0  1.053393  0
H  H67  1  0.90839900  0.12071367  0.52947107  1  0.023318  0  0.081925  0.111201  0  1.022313  0
H  H68  1  0.09159573  0.87928588  0.47052491  1  0.02337  0  0.081933  0.111217  0  1.022222  0
H  H69  1  0.78428599  0.15739993  0.59531150  1  0.01468  0  0.081831  0.112683  0  1.018695  0
H  H70  1  0.21571362  0.84260572  0.40468475  1  0.014699  0  0.081824  0.112667  0  1.018742  0
H  H71  1  0.10894552  0.08825823  0.61463591  1  0.019253  0  0.079542  0.109688  0  1.048717  0
H  H72  1  0.89105705  0.91174061  0.38535606  1  0.018845  0  0.079615  0.109773  0  1.048684  0
H  H73  1  0.05847679  0.01623765  0.68077876  1  0.052663  0  0.086369  0.125673  0  1.038239  0
H  H74  1  0.94153178  0.98376723  0.31921807  1  0.052595  0  0.086342  0.125651  0  1.03828  0
H  H75  1  0.99540923  0.13581135  0.68106115  1  0.005842  0  0.082575  0.115299  0  1.014748  0
H  H76  1  0.00460808  0.86419659  0.31893466  1  0.00608  0  0.082545  0.115249  0  1.014838  0
H  H77  1  0.36343112  0.78362803  0.55258284  1  0.048999  0  0.093429  0.059346  0  0.979201  0
H  H78  1  0.63657816  0.21637980  0.44742248  1  0.04904  0  0.093385  0.059305  0  0.979224  0
H  H79  1  0.20360296  0.91222386  0.60242175  1  0.03987  0  0.084797  0.118314  0  1.028041  0
H  H80  1  0.79639008  0.08777335  0.39758003  1  0.040044  0  0.084811  0.118356  0  1.028047  0
H  H81  1  0.17107519  0.84940318  0.67475751  1  0.061769  0  0.084628  0.121978  0  1.040982  0
H  H82  1  0.82891653  0.15059326  0.32524416  1  0.061894  0  0.084593  0.121939  0  1.040953  0
H  H83  1  0.09741100  0.78695413  0.59083017  1  -0.001461  0  0.080237  0.10612  0  1.024288  0
H  H84  1  0.90259186  0.21303619  0.40917150  1  -0.001451  0  0.080219  0.106124  0  1.024334  0
H  H85  1  0.23847911  0.63544347  0.60127176  1  0.016935  0  0.083757  0.112417  0  1.007623  0
H  H86  1  0.76154739  0.36455980  0.39873182  1  0.016863  0  0.083782  0.112477  0  1.007485  0
H  H87  1  0.31438539  0.69397629  0.68570182  1  0.023415  0  0.089091  0.125147  0  1.004544  0
H  H88  1  0.68563847  0.30602544  0.31430255  1  0.023482  0  0.089055  0.125141  0  1.004656  0
H  H89  1  0.44220596  0.65584899  0.62178359  1  0.014846  0  0.0811  0.107201  0  1.016002  0
H  H90  1  0.55782174  0.34416419  0.37822013  1  0.014975  0  0.081112  0.107272  0  1.015974  0
H  H91  1  0.40725203  0.04455189  0.83007708  1  0.133691  0  0.10925  0.113833  0  1.019511  0
H  H92  1  0.59275442  0.95545366  0.16992844  1  0.133526  0  0.109226  0.113727  0  1.019538  0
H  H93  1  0.44206184  0.11265170  0.95728454  1  0.082575  0  0.104263  0.103047  0  1.027447  0
H  H94  1  0.55793871  0.88735308  0.04272181  1  0.082413  0  0.104272  0.103086  0  1.027564  0
H  H95  1  0.68663217  0.09452821  0.02260638  1  0.1517  0  0.113712  0.090784  0  1.031521  0
H  H96  1  0.31336948  0.90546667  0.97739783  1  0.151765  0  0.113687  0.090736  0  1.031492  0
H  H97  1  0.85208605  0.94546800  0.84628695  1  0.091854  0  0.116766  0.089403  0  1.015874  0
H  H98  1  0.14792306  0.05453910  0.15371524  1  0.091878  0  0.116738  0.089345  0  1.015886  0
C  C99  1  0.18138029  0.19781104  0.94653078  1  0.46931  0  0.034584  0.069971  0  3.952922  0
C  C100  1  0.81861938  0.80217546  0.05347243  1  0.468952  0  0.034697  0.069961  0  3.952949  0
C  C101  1  0.22843256  0.29983030  0.94219178  1  -0.05059  0  -0.083809  -0.117543  0  3.98356  0
C  C102  1  0.77156193  0.70015852  0.05780856  1  -0.050087  0  -0.083818  -0.117571  0  3.983646  0
C  C103  1  0.17290074  0.37491600  0.98758872  1  -0.046095  0  -0.064242  -0.077596  0  3.927072  0
C  C104  1  0.82708046  0.62506984  0.01240646  1  -0.045778  0  -0.064316  -0.077767  0  3.926651  0
C  C105  1  0.07163051  0.34657539  0.03720338  1  0.006849  0  0.000245  0.035624  0  3.991942  0
C  C106  1  0.92834509  0.65341580  0.96279131  1  0.006766  0  0.000265  0.035634  0  3.992251  0
C  C107  1  0.03858214  0.24235206  0.04058411  1  0.409584  0  0.040732  0.033206  0  3.909542  0
C  C108  1  0.96139219  0.75763379  0.95941044  1  0.409683  0  0.040693  0.033138  0  3.909539  0
C  C109  1  0.99681304  0.41933960  0.08351729  1  0.042953  0  -0.023555  0.049168  0  4.083358  0
C  C110  1  0.00316219  0.58065009  0.91647569  1  0.043153  0  -0.023637  0.049156  0  4.083835  0
C  C111  1  0.07291073  0.51751889  0.11014803  1  -0.102658  0  -0.096468  -0.183933  0  3.991221  0
C  C112  1  0.92707559  0.48246926  0.88984497  1  -0.103072  0  -0.096527  -0.18399  0  3.991657  0
C  C113  1  0.00426293  0.58526565  0.15594377  1  0.007289  0  -0.010355  0.012344  0  3.908168  0
C  C114  1  0.99573290  0.41472402  0.84404956  1  0.006932  0  -0.010128  0.012632  0  3.908263  0
C  C115  1  0.85269606  0.55372627  0.17502072  1  0.356823  0  0.092929  0.112355  0  4.036185  0
C  C116  1  0.14730234  0.44626942  0.82497895  1  0.356933  0  0.092878  0.112333  0  4.036397  0
C  C117  1  0.77034198  0.45602636  0.14680322  1  -0.057076  0  -0.011265  0.00358  0  3.901192  0
C  C118  1  0.22964896  0.54397164  0.85319557  1  -0.05731  0  -0.011367  0.003546  0  3.901052  0
C  C119  1  0.84542056  0.39067914  0.10206279  1  -0.013182  0  -0.096504  -0.183992  0  3.988644  0
C  C120  1  0.15455443  0.60931433  0.89793265  1  -0.0126  0  -0.096412  -0.184102  0  3.988799  0
C  C121  1  0.09050338  0.69014066  0.18621640  1  0.027247  0  -0.088027  0.080502  0  3.88889  0
C  C122  1  0.90950106  0.30984670  0.81377733  1  0.027418  0  -0.088131  0.080383  0  3.88917  0
C  C123  1  0.19538414  0.73723982  0.13558901  1  -0.050294  0  -0.252112  -0.391151  0  3.929035  0
C  C124  1  0.80461487  0.26275364  0.86440584  1  -0.051383  0  -0.252184  -0.391308  0  3.929455  0
C  C125  1  0.18405650  0.68726775  0.25364407  1  -0.05759  0  -0.244934  -0.386642  0  3.910733  0
C  C126  1  0.81595684  0.31272342  0.74634975  1  -0.057393  0  -0.245057  -0.386894  0  3.91111  0
C  C127  1  0.60290867  0.42561935  0.16271894  1  0.053239  0  -0.084322  0.096184  0  3.87562  0
C  C128  1  0.39707732  0.57439161  0.83728124  1  0.052635  0  -0.084182  0.096173  0  3.875672  0
C  C129  1  0.49578416  0.48295941  0.12480716  1  -0.120953  0  -0.247353  -0.395811  0  3.917592  0
C  C130  1  0.50422121  0.51705613  0.87519186  1  -0.121019  0  -0.24754  -0.396171  0  3.917578  0
C  C131  1  0.54590116  0.31068765  0.14657885  1  -0.069566  0  -0.245405  -0.393887  0  3.930899  0
C  C132  1  0.45407075  0.68932182  0.85341940  1  -0.068904  0  -0.245382  -0.393585  0  3.93086  0
C  C133  1  0.82453876  0.55668508  0.32349608  1  -0.107046  0  -0.236919  -0.470494  0  3.967291  0
C  C134  1  0.17547306  0.44331896  0.67650681  1  -0.10709  0  -0.236885  -0.470359  0  3.967392  0
C  C135  1  0.76715480  0.62903560  0.28137866  1  0.726048  0  0.164435  0.277787  0  3.937537  0
C  C136  1  0.23285984  0.37097072  0.71862455  1  0.725979  0  0.164351  0.277746  0  3.937333  0
C  C137  1  0.69257742  0.71309110  0.31838187  1  0.427655  0  0.117461  0.147205  0  4.001443  0
C  C138  1  0.30743650  0.28691216  0.68162250  1  0.427514  0  0.117587  0.14743  0  4.001263  0
C  C139  1  0.62518319  0.77981237  0.28269617  1  0.004079  0  -0.068569  -0.126705  0  3.909833  0
C  C140  1  0.37482519  0.22019166  0.71730820  1  0.004094  0  -0.06869  -0.127025  0  3.909958  0
C  C141  1  0.56341022  0.85940836  0.32050813  1  0.018949  0  -0.066832  -0.025123  0  3.956907  0
C  C142  1  0.43659366  0.14059112  0.67949410  1  0.019101  0  -0.066872  -0.025065  0  3.956803  0
C  C143  1  0.57193762  0.87089118  0.39227157  1  -0.092508  0  -0.069597  -0.135183  0  3.912834  0
C  C144  1  0.42806511  0.12910829  0.60773115  1  -0.092582  0  -0.069635  -0.13527  0  3.912887  0
C  C145  1  0.64103128  0.80068634  0.42386067  1  0.527964  0  0.115897  0.141761  0  4.009955  0
C  C146  1  0.35897525  0.19931465  0.57614230  1  0.527795  0  0.115916  0.141668  0  4.010143  0
C  C147  1  0.74723171  0.73871880  0.53012043  1  -0.06912  0  -0.235982  -0.45941  0  3.960699  0
C  C148  1  0.25277313  0.26127991  0.46988225  1  -0.06899  0  -0.236006  -0.459359  0  3.960856  0
C  C149  1  0.65879201  0.81127111  0.50050305  1  0.716026  0  0.163992  0.27558  0  3.937452  0
C  C150  1  0.34121319  0.18872912  0.49950032  1  0.716125  0  0.164013  0.275697  0  3.937708  0
C  C151  1  0.61058484  0.90335192  0.60832742  1  0.357799  0  0.092289  0.108671  0  4.039813  0
C  C152  1  0.38942029  0.09665288  0.39167698  1  0.358016  0  0.092272  0.108567  0  4.039851  0
C  C153  1  0.74180119  0.96940147  0.64297395  1  -0.015383  0  -0.008845  0.01128  0  3.888448  0
C  C154  1  0.25820166  0.03060336  0.35702685  1  -0.015482  0  -0.008905  0.0112  0  3.888548  0
C  C155  1  0.74640977  0.99237246  0.71485356  1  -0.103498  0  -0.096663  -0.191261  0  3.988899  0
C  C156  1  0.25359170  0.00763619  0.28514714  1  -0.103725  0  -0.09669  -0.19128  0  3.988833  0
C  C157  1  0.62223438  0.95700713  0.75223885  1  0.027627  0  -0.028509  0.033423  0  4.105733  0
C  C158  1  0.37777431  0.04300305  0.24776165  1  0.027476  0  -0.028526  0.033438  0  4.105884  0
C  C159  1  0.49218994  0.89476905  0.71676304  1  -0.067149  0  -0.09349  -0.180375  0  3.973268  0
C  C160  1  0.50781038  0.10523961  0.28323764  1  -0.067544  0  -0.093437  -0.180223  0  3.973252  0
C  C161  1  0.48547233  0.86549210  0.64509946  1  0.008187  0  -0.009245  0.014382  0  3.892189  0
C  C162  1  0.51453335  0.13451498  0.35490520  1  0.008233  0  -0.009293  0.014328  0  3.892046  0
C  C163  1  0.87085693  0.01520145  0.60248257  1  0.037645  0  -0.085659  0.095027  0  3.877687  0
C  C164  1  0.12914249  0.98480341  0.39751664  1  0.037648  0  -0.085678  0.09503  0  3.877817  0
C  C165  1  0.81517264  0.09190839  0.56044404  1  -0.072684  0  -0.247218  -0.392149  0  3.906501  0
C  C166  1  0.18482985  0.90809495  0.43955403  1  -0.072652  0  -0.24717  -0.392082  0  3.906466  0
C  C167  1  0.01619878  0.06595560  0.64761910  1  -0.053108  0  -0.253039  -0.404264  0  3.931408  0
C  C168  1  0.98380618  0.93404852  0.35237758  1  -0.052817  0  -0.253026  -0.404263  0  3.931533  0
C  C169  1  0.34632955  0.79359516  0.60823371  1  0.024387  0  -0.0887  0.087066  0  3.88393  0
C  C170  1  0.65367540  0.20640886  0.39177110  1  0.02454  0  -0.088688  0.087073  0  3.883823  0
C  C171  1  0.19606099  0.83834310  0.61994203  1  -0.07596  0  -0.247282  -0.391749  0  3.907437  0
C  C172  1  0.80393891  0.16165408  0.38006089  1  -0.076315  0  -0.247225  -0.391728  0  3.907469  0
C  C173  1  0.33509245  0.68855689  0.63050981  1  -0.064283  0  -0.243278  -0.388801  0  3.936964  0
C  C174  1  0.66492984  0.31144790  0.36949437  1  -0.064256  0  -0.243286  -0.38895  0  3.936973  0
C  C175  1  0.62866479  0.99060554  0.82756553  1  -0.045586  0  0.00437  0.043528  0  3.998179  0
C  C176  1  0.37133919  0.00939926  0.17243884  1  -0.045517  0  0.004388  0.043438  0  3.998222  0
C  C177  1  0.51091783  0.03667115  0.86030588  1  -0.106318  0  -0.066173  -0.078665  0  3.90141  0
C  C178  1  0.48908544  0.96333057  0.13970118  1  -0.106428  0  -0.066185  -0.078442  0  3.901652  0
C  C179  1  0.53033250  0.07513764  0.93068973  1  0.024955  0  -0.083579  -0.115799  0  3.999861  0
C  C180  1  0.46967191  0.92486406  0.06931837  1  0.025535  0  -0.083621  -0.115976  0  4.000208  0
C  C181  1  0.66532793  0.06589422  0.96743403  1  0.424681  0  0.038108  0.072579  0  3.954409  0
C  C182  1  0.33467197  0.93410294  0.03257092  1  0.424347  0  0.038169  0.072639  0  3.954454  0
C  C183  1  0.75879763  0.98243411  0.86897393  1  0.520305  0  0.046738  0.038795  0  3.914186  0
C  C184  1  0.24120733  0.01756996  0.13102631  1  0.520156  0  0.046783  0.038872  0  3.91423  0
N  N185  1  0.09054391  0.17022031  0.99617654  1  -1.241186  0  -0.337299  -0.236875  0  3.559519  0
N  N186  1  0.90944222  0.82976701  0.00382246  1  -1.241487  0  -0.337402  -0.236892  0  3.559314  0
N  N187  1  0.78018689  0.62562061  0.21617501  1  -1.234205  0  -0.298818  -0.328503  0  3.397037  0
N  N188  1  0.21982289  0.37437961  0.78382894  1  -1.234277  0  -0.298749  -0.328473  0  3.396866  0
N  N189  1  0.69895756  0.72284149  0.38758182  1  -1.171633  0  -0.307701  -0.311729  0  3.312421  0
N  N190  1  0.30105408  0.27716177  0.61242302  1  -1.171337  0  -0.307788  -0.31181  0  3.312361  0
N  N191  1  0.59835306  0.88260242  0.53600452  1  -1.260759  0  -0.295605  -0.313821  0  3.379435  0
N  N192  1  0.40165478  0.11739933  0.46399906  1  -1.260968  0  -0.29554  -0.313761  0  3.379379  0
N  N193  1  0.77641860  0.01868470  0.93694504  1  -1.257574  0  -0.335314  -0.234041  0  3.54897  0
N  N194  1  0.22358449  0.98131629  0.06305786  1  -1.257307  0  -0.335277  -0.233912  0  3.549207  0
N  N195  1  0.14319199  0.92838597  0.83525853  1  0.797851  0  0.095696  0.718199  0  4.448434  0
N  N196  1  0.85680010  0.07161203  0.16474078  1  0.797864  0  0.095855  0.718739  0  4.447591  0
O  O197  1  0.14412802  0.94251267  0.90224669  1  -0.606684  0  -0.238575  -0.5246  0  2.096467  0
O  O198  1  0.85587317  0.05744639  0.09775391  1  -0.606457  0  -0.238625  -0.52488  0  2.096462  0
O  O199  1  0.14981390  0.84059536  0.80365205  1  -0.524625  0  -0.191599  -0.437755  0  1.900717  0
O  O200  1  0.85013674  0.15941135  0.19632058  1  -0.524647  0  -0.191782  -0.438005  0  1.900459  0
O  O201  1  0.13891096  0.00342139  0.80468014  1  -0.540992  0  -0.196004  -0.455194  0  1.92429  0
O  O202  1  0.86110869  0.99660604  0.19534593  1  -0.541175  0  -0.195966  -0.455262  0  1.923903  0
