# generated using pymatgen
data_Zn4H40C40O13
_symmetry_space_group_name_H-M   'P 1'
_cell_length_a   17.78466008
_cell_length_b   18.67728111
_cell_length_c   23.36173111
_cell_angle_alpha   66.58303907
_cell_angle_beta   69.80433516
_cell_angle_gamma   89.94356190
_symmetry_Int_Tables_number   1
_chemical_formula_structural   Zn4H40C40O13
_chemical_formula_sum   'Zn8 H80 C80 O26'
_cell_volume   6598.98289194
_cell_formula_units_Z   2
loop_
 _symmetry_equiv_pos_site_id
 _symmetry_equiv_pos_as_xyz
  1  'x, y, z'
loop_
 _atom_site_type_symbol
 _atom_site_label
 _atom_site_symmetry_multiplicity
 _atom_site_fract_x
 _atom_site_fract_y
 _atom_site_fract_z
 _atom_site_occupancy
 _atom_site_pbe_bader_charge
 _atom_site_pbe_bader_spin_density
 _atom_site_pbe_cm5_charge
 _atom_site_pbe_ddec_charge
 _atom_site_pbe_ddec_spin_density
 _atom_site_pbe_ddec_sum_bond_order
 _atom_site_pbe_magmom
Zn  Zn0  1  0.11787668  0.53066480  0.94222845  1  1.31337  0  0.667273  0.957748  0  2.383239  0
Zn  Zn1  1  0.97174886  0.55913837  0.05181242  1  1.310108  0  0.666283  0.951095  0  2.413123  0
Zn  Zn2  1  0.97581100  0.38905669  0.05135538  1  1.310863  0  0.666377  0.950847  0  2.414986  0
Zn  Zn3  1  0.93797951  0.53004580  0.93549236  1  1.302361  0  0.668406  0.964354  0  2.345288  0
Zn  Zn4  1  0.38476527  0.97691780  0.05034777  1  1.312483  0  0.667342  0.956281  0  2.389825  0
Zn  Zn5  1  0.52888416  0.11538896  0.93751026  1  1.309166  0  0.66652  0.950412  0  2.415386  0
Zn  Zn6  1  0.52314230  0.94595224  0.93781773  1  1.303991  0  0.666774  0.952179  0  2.412989  0
Zn  Zn7  1  0.56718756  0.97230994  0.05168877  1  1.311697  0  0.668732  0.966086  0  2.341338  0
H  H8  1  0.49632999  0.86690160  0.26437981  1  0.064399  0  0.106062  0.119662  0  0.993989  0
H  H9  1  0.26107705  0.87472943  0.25278631  1  0.089694  0  0.106799  0.121708  0  0.994503  0
H  H10  1  0.24949666  0.63132982  0.73811828  1  0.09414  0  0.105818  0.119656  0  0.995738  0
H  H11  1  0.01505121  0.63695741  0.72494138  1  0.090698  0  0.106525  0.120574  0  0.994563  0
H  H12  1  0.62887706  0.01951843  0.73059933  1  0.080692  0  0.10659  0.120298  0  0.994831  0
H  H13  1  0.62551817  0.24833821  0.73156384  1  0.078037  0  0.10666  0.120395  0  0.995046  0
H  H14  1  0.86859702  0.25618993  0.25834091  1  0.092298  0  0.106954  0.120988  0  0.993783  0
H  H15  1  0.86757971  0.48528293  0.25885133  1  0.076527  0  0.106562  0.120882  0  0.994149  0
H  H16  1  0.19754849  0.30147537  0.91119661  1  0.030861  0  0.09159  0.086192  0  0.979153  0
H  H17  1  0.12573859  0.22994899  0.98751016  1  0.048499  0  0.092945  0.09157  0  0.983482  0
H  H18  1  0.21489888  0.13812900  0.98500646  1  0.033765  0  0.093176  0.091653  0  0.983229  0
H  H19  1  0.28643098  0.21033304  0.90894868  1  0.038616  0  0.091519  0.086325  0  0.977768  0
H  H20  1  0.21491004  0.12397579  0.09619857  1  0.038823  0  0.092288  0.092543  0  0.986977  0
H  H21  1  0.28691329  0.18471363  0.10039054  1  0.00575  0  0.089763  0.083953  0  0.980154  0
H  H22  1  0.12662605  0.21690502  0.09886643  1  0.061309  0  0.092072  0.092845  0  0.988677  0
H  H23  1  0.19990881  0.27773213  0.10163213  1  0.01708  0  0.089394  0.083704  0  0.977793  0
H  H24  1  0.30206953  0.39067694  0.91443097  1  0.04251  0  0.089815  0.089224  0  0.987535  0
H  H25  1  0.30304680  0.38200105  0.99184633  1  0.006236  0  0.089427  0.085778  0  0.98093  0
H  H26  1  0.39140694  0.28939089  0.99091112  1  0.017303  0  0.089359  0.086487  0  0.982959  0
H  H27  1  0.39122224  0.29898137  0.91311171  1  0.031615  0  0.090299  0.089458  0  0.986038  0
H  H28  1  0.89028170  0.80013761  0.90527704  1  0.024176  0  0.090406  0.08434  0  0.98026  0
H  H29  1  0.88776838  0.78714091  0.98521018  1  0.025053  0  0.091768  0.090418  0  0.985032  0
H  H30  1  0.79877946  0.87938600  0.98679755  1  0.033572  0  0.09247  0.091375  0  0.983949  0
H  H31  1  0.80152974  0.89139037  0.90700819  1  0.047967  0  0.091068  0.086102  0  0.978835  0
H  H32  1  0.69562118  0.77616641  0.09232657  1  0.035576  0  0.092361  0.092668  0  0.986644  0
H  H33  1  0.62329973  0.71497180  0.08884298  1  0.006311  0  0.089382  0.083642  0  0.979811  0
H  H34  1  0.78324202  0.68260826  0.09099519  1  0.038603  0  0.092088  0.093325  0  0.987715  0
H  H35  1  0.71108893  0.62294112  0.08587699  1  0.016227  0  0.089886  0.08384  0  0.978896  0
H  H36  1  0.78858875  0.71302488  0.89734260  1  0.01067  0  0.089754  0.088081  0  0.985164  0
H  H37  1  0.71578964  0.64013652  0.97073587  1  0.018553  0  0.089913  0.087064  0  0.982454  0
H  H38  1  0.62629276  0.73147030  0.97356174  1  0.033337  0  0.089168  0.086202  0  0.982012  0
H  H39  1  0.69870392  0.80403554  0.89985985  1  0.031521  0  0.089896  0.088672  0  0.985641  0
H  H40  1  0.16173697  0.79279138  0.93722017  1  0.00785  0  0.090965  0.085345  0  0.979999  0
H  H41  1  0.24610630  0.75675111  0.89648414  1  0.026536  0  0.093349  0.092598  0  0.98362  0
H  H42  1  0.33312780  0.85242374  0.89427227  1  0.039021  0  0.093594  0.093062  0  0.983118  0
H  H43  1  0.24823626  0.88710647  0.93599986  1  0.024207  0  0.091378  0.086301  0  0.977892  0
H  H44  1  0.39369240  0.74378992  0.96129526  1  0.052382  0  0.092353  0.093575  0  0.987547  0
H  H45  1  0.35282193  0.70259485  0.05006848  1  -0.011703  0  0.08923  0.082428  0  0.980287  0
H  H46  1  0.30541883  0.64804980  0.96431454  1  0.011202  0  0.092614  0.094423  0  0.987209  0
H  H47  1  0.26451712  0.60815479  0.05309112  1  -0.010634  0  0.089183  0.083149  0  0.980728  0
H  H48  1  0.10152433  0.73494991  0.06523575  1  0.030628  0  0.090283  0.089994  0  0.98565  0
H  H49  1  0.14285634  0.65919008  0.11263977  1  0.029751  0  0.089144  0.085993  0  0.981286  0
H  H50  1  0.23160794  0.75330723  0.11048665  1  0.023977  0  0.088859  0.085084  0  0.981742  0
H  H51  1  0.18950961  0.82901888  0.06379884  1  0.057648  0  0.089989  0.089324  0  0.985128  0
H  H52  1  0.89902276  0.26729819  0.92996249  1  0.049295  0  0.091115  0.085581  0  0.980506  0
H  H53  1  0.85431916  0.34294408  0.88477003  1  0.0251  0  0.092675  0.090031  0  0.98162  0
H  H54  1  0.76841961  0.24706233  0.88617179  1  0.045727  0  0.092708  0.091737  0  0.98211  0
H  H55  1  0.81220700  0.17187544  0.93281684  1  0.025686  0  0.091112  0.085468  0  0.979129  0
H  H56  1  0.64857705  0.29712560  0.94608457  1  0.026317  0  0.092291  0.093455  0  0.986594  0
H  H57  1  0.60595620  0.25622921  0.03478796  1  0.005082  0  0.089171  0.08265  0  0.98127  0
H  H58  1  0.73529948  0.39166509  0.94598262  1  0.037513  0  0.091876  0.093257  0  0.987313  0
H  H59  1  0.69295379  0.34927067  0.03471720  1  0.028863  0  0.089419  0.083879  0  0.980504  0
H  H60  1  0.83941748  0.20536818  0.05787042  1  0.040144  0  0.090487  0.091018  0  0.988189  0
H  H61  1  0.75629734  0.23915981  0.10124312  1  0.018855  0  0.08899  0.085208  0  0.980958  0
H  H62  1  0.66714472  0.14637607  0.10239785  1  0.028379  0  0.089137  0.08589  0  0.981236  0
H  H63  1  0.75039172  0.11109723  0.06074632  1  0.035285  0  0.089852  0.08853  0  0.985504  0
H  H64  1  0.14454274  0.76738194  0.36966525  1  0.021075  0  0.096067  0.13282  0  0.984063  0
H  H65  1  0.14724639  0.78146640  0.43982466  1  0.047684  0  0.086583  0.120402  0  1.061926  0
H  H66  1  0.14409654  0.86283920  0.36817140  1  0.05705  0  0.096005  0.132871  0  0.984197  0
H  H67  1  0.48878328  0.85344731  0.38820523  1  0.038066  0  0.096183  0.133606  0  0.984493  0
H  H68  1  0.41566622  0.77117324  0.45365296  1  0.067609  0  0.087089  0.121644  0  1.058528  0
H  H69  1  0.49127613  0.75989801  0.38584561  1  0.041442  0  0.095978  0.133089  0  0.985106  0
H  H70  1  0.02264784  0.74638111  0.60177568  1  0.035136  0  0.096215  0.13331  0  0.984594  0
H  H71  1  0.09663045  0.73049830  0.53584910  1  0.020013  0  0.087085  0.121153  0  1.060955  0
H  H72  1  0.02153586  0.65102714  0.60301041  1  0.052545  0  0.096189  0.133189  0  0.985229  0
H  H73  1  0.36735879  0.64224323  0.62071826  1  0.039502  0  0.095879  0.132582  0  0.984531  0
H  H74  1  0.36423536  0.72635832  0.55092295  1  0.027042  0  0.086714  0.120761  0  1.059858  0
H  H75  1  0.36682328  0.73585107  0.62296543  1  0.051953  0  0.09635  0.13303  0  0.984641  0
H  H76  1  0.74465972  0.35882294  0.61466141  1  0.050106  0  0.096849  0.134441  0  0.982681  0
H  H77  1  0.72876453  0.35880532  0.54372442  1  0.053017  0  0.086657  0.120702  0  1.062071  0
H  H78  1  0.64701277  0.36517906  0.61087456  1  0.035004  0  0.096216  0.133396  0  0.984418  0
H  H79  1  0.64934209  0.02643815  0.60693837  1  0.047488  0  0.096419  0.133542  0  0.983312  0
H  H80  1  0.73436123  0.09779418  0.54278205  1  0.044116  0  0.087159  0.121705  0  1.06104  0
H  H81  1  0.74456329  0.02452206  0.61543431  1  0.064667  0  0.096418  0.13323  0  0.98426  0
H  H82  1  0.76224425  0.48074277  0.37725459  1  0.03584  0  0.096225  0.133091  0  0.983538  0
H  H83  1  0.77685530  0.40700352  0.44754406  1  0.008831  0  0.086911  0.120832  0  1.061861  0
H  H84  1  0.86018952  0.47793884  0.38063681  1  0.052825  0  0.096414  0.133415  0  0.984229  0
H  H85  1  0.86088807  0.14205064  0.38173186  1  0.046507  0  0.096224  0.133348  0  0.983749  0
H  H86  1  0.77438939  0.14607150  0.44671021  1  0.07724  0  0.086797  0.121007  0  1.06224  0
H  H87  1  0.76500150  0.14278097  0.37446028  1  0.043626  0  0.096405  0.133692  0  0.984006  0
C  C88  1  0.14142378  0.63480310  0.00367381  1  1.538911  0  0.234656  0.601133  0  4.100122  0
C  C89  1  0.90781396  0.41170599  0.17655280  1  1.462673  0  0.224339  0.601447  0  4.168547  0
C  C90  1  0.14437898  0.36390689  0.00138876  1  1.54046  0  0.233614  0.601737  0  4.099135  0
C  C91  1  0.86041868  0.36561533  0.99084677  1  1.541592  0  0.233828  0.60169  0  4.096741  0
C  C92  1  0.08997078  0.59268167  0.81389476  1  1.524218  0  0.225717  0.607301  0  4.160397  0
C  C93  1  0.86071729  0.64317192  0.98933985  1  1.549767  0  0.234276  0.601905  0  4.098789  0
C  C94  1  0.36026022  0.14175970  0.99734665  1  1.529418  0  0.234503  0.602592  0  4.096325  0
C  C95  1  0.58208905  0.09290702  0.81269136  1  1.520317  0  0.224351  0.60207  0  4.169889  0
C  C96  1  0.35538142  0.86299425  0.99856490  1  1.538287  0  0.234266  0.601748  0  4.096901  0
C  C97  1  0.64378753  0.86495231  0.99304050  1  1.54505  0  0.235165  0.60471  0  4.095462  0
C  C98  1  0.41957030  0.91251643  0.17611396  1  1.604562  0  0.224995  0.602742  0  4.16644  0
C  C99  1  0.64689799  0.13924198  0.99264906  1  1.556371  0  0.235062  0.604433  0  4.097636  0
C  C100  1  0.38239346  0.87454085  0.25124095  1  -0.084373  0  -0.021344  -0.028737  0  4.034841  0
C  C101  1  0.43048476  0.85446737  0.29000215  1  0.015662  0  -0.0894  -0.172097  0  3.964647  0
C  C102  1  0.39580867  0.81945359  0.36016119  1  0.018086  0  -0.000696  0.136242  0  3.935843  0
C  C103  1  0.30960210  0.80346051  0.39280693  1  0.120224  0  0.000243  0.016293  0  4.017397  0
C  C104  1  0.26041407  0.82353811  0.35345201  1  -0.056449  0  -0.000477  0.136145  0  3.944681  0
C  C105  1  0.29785875  0.85882274  0.28357389  1  0.00864  0  -0.091175  -0.173874  0  3.968434  0
C  C106  1  0.27254178  0.76768767  0.46429720  1  -0.299296  0  -0.038135  -0.093107  0  4.115297  0
C  C107  1  0.23977856  0.73695621  0.52587884  1  -0.15884  0  -0.037594  -0.092629  0  4.115096  0
C  C108  1  0.20228565  0.70127626  0.59734791  1  0.120891  0  -0.000683  0.014477  0  4.014333  0
C  C109  1  0.25100132  0.68169247  0.63712465  1  0.130486  0  -0.000295  0.138018  0  3.936677  0
C  C110  1  0.21308806  0.64668132  0.70700407  1  -0.186653  0  -0.089789  -0.171346  0  3.965406  0
C  C111  1  0.12850443  0.63041869  0.73884584  1  -0.013233  0  -0.022172  -0.03168  0  4.037993  0
C  C112  1  0.08092148  0.64981742  0.69965369  1  0.026958  0  -0.090493  -0.173869  0  3.967683  0
C  C113  1  0.11604295  0.68491568  0.62955815  1  -0.042865  0  -0.000405  0.138241  0  3.939602  0
C  C114  1  0.62268379  0.13043913  0.73799985  1  -0.003226  0  -0.022557  -0.032194  0  4.042625  0
C  C115  1  0.64355069  0.08357312  0.70252335  1  -0.001927  0  -0.0894  -0.170232  0  3.965966  0
C  C116  1  0.68239191  0.11726117  0.63277173  1  0.011926  0  -0.000356  0.136603  0  3.942244  0
C  C117  1  0.70091462  0.20114285  0.59729365  1  0.170973  0  -0.000157  0.017287  0  4.019175  0
C  C118  1  0.68084350  0.24909347  0.63335843  1  0.017889  0  -0.000711  0.13599  0  3.941802  0
C  C119  1  0.64166649  0.21270720  0.70307673  1  -0.080862  0  -0.089143  -0.169995  0  3.966468  0
C  C120  1  0.73849502  0.23697442  0.52595690  1  -0.04681  0  -0.037039  -0.092937  0  4.120406  0
C  C121  1  0.76916681  0.26796004  0.46431463  1  -0.388357  0  -0.037554  -0.092169  0  4.121867  0
C  C122  1  0.80379640  0.30369786  0.39286047  1  0.067555  0  9.3e-05  0.015922  0  4.022498  0
C  C123  1  0.82108272  0.25564821  0.35681530  1  0.074096  0  -0.000611  0.137364  0  3.942744  0
C  C124  1  0.85473145  0.29197472  0.28678343  1  -0.043999  0  -0.089836  -0.172144  0  3.966684  0
C  C125  1  0.87142429  0.37428264  0.25152122  1  -0.074892  0  -0.021376  -0.029502  0  4.040419  0
C  C126  1  0.85418422  0.42121018  0.28709940  1  0.060777  0  -0.089792  -0.172802  0  3.966817  0
C  C127  1  0.82085297  0.38759113  0.35714932  1  -0.065762  0  -0.000243  0.137869  0  3.942233  0
C  C128  1  0.18918899  0.25937645  0.96264253  1  -0.05725  0  -0.155004  -0.169609  0  3.849609  0
C  C129  1  0.24832048  0.19846487  0.96114749  1  -0.041669  0  -0.155664  -0.168572  0  3.848444  0
C  C130  1  0.30346078  0.20266662  0.99888369  1  0.065196  0  -0.016371  0.021121  0  3.810402  0
C  C131  1  0.24860071  0.18416331  0.07225366  1  -0.018654  0  -0.159332  -0.172963  0  3.8634  0
C  C132  1  0.19022994  0.24565385  0.07352122  1  -0.051656  0  -0.159138  -0.170867  0  3.860713  0
C  C133  1  0.20426146  0.30554481  0.00106229  1  0.069781  0  -0.016717  0.019157  0  3.81153  0
C  C134  1  0.29256565  0.34767559  0.96570825  1  -0.023367  0  -0.164416  -0.175373  0  3.89099  0
C  C135  1  0.35126819  0.28669872  0.96483174  1  -0.011182  0  -0.164811  -0.177086  0  3.891366  0
C  C136  1  0.84943804  0.78620533  0.95728214  1  -0.024577  0  -0.155171  -0.167557  0  3.847226  0
C  C137  1  0.79028758  0.84724950  0.95843927  1  -0.038897  0  -0.156004  -0.171008  0  3.851383  0
C  C138  1  0.70151614  0.80464765  0.99141457  1  0.029742  0  -0.016101  0.020725  0  3.808128  0
C  C139  1  0.68687497  0.74429554  0.06389259  1  -0.001711  0  -0.158819  -0.172691  0  3.866191  0
C  C140  1  0.74530807  0.68297534  0.06250449  1  -0.024018  0  -0.158293  -0.170903  0  3.857848  0
C  C141  1  0.80115974  0.70195724  0.98914648  1  0.03415  0  -0.017095  0.021496  0  3.807591  0
C  C142  1  0.74888982  0.70021749  0.94928308  1  0.006303  0  -0.165141  -0.178004  0  3.892399  0
C  C143  1  0.68963912  0.76070919  0.95094686  1  -0.024097  0  -0.164545  -0.174498  0  3.884001  0
C  C144  1  0.21848452  0.77092936  0.93985032  1  0.001347  0  -0.154975  -0.170077  0  3.853331  0
C  C145  1  0.27632433  0.83395443  0.93861219  1  -0.033463  0  -0.154717  -0.168297  0  3.851335  0
C  C146  1  0.29651839  0.80015910  0.00284910  1  0.042849  0  -0.017758  0.019291  0  3.812753  0
C  C147  1  0.33670150  0.72617748  0.00528821  1  -0.009153  0  -0.159143  -0.17221  0  3.861875  0
C  C148  1  0.27820435  0.66315952  0.00713905  1  0.03106  0  -0.15875  -0.173021  0  3.865462  0
C  C149  1  0.19826360  0.69425692  0.00533810  1  0.041175  0  -0.016939  0.02298  0  3.807444  0
C  C150  1  0.15889736  0.71378415  0.06610048  1  -0.017822  0  -0.164569  -0.177628  0  3.883327  0
C  C151  1  0.21733976  0.77624282  0.06484062  1  -0.047841  0  -0.16396  -0.175581  0  3.886003  0
C  C152  1  0.84084533  0.28760233  0.93032555  1  -0.050477  0  -0.154163  -0.167133  0  3.847489  0
C  C153  1  0.78317583  0.22424693  0.93154625  1  -0.043546  0  -0.154919  -0.168295  0  3.846185  0
C  C154  1  0.70343812  0.19911079  0.99427756  1  0.048115  0  -0.016645  0.020048  0  3.810783  0
C  C155  1  0.66364609  0.27349764  0.99124143  1  -0.002721  0  -0.159649  -0.172664  0  3.86131  0
C  C156  1  0.72138501  0.33578791  0.99099390  1  -0.036022  0  -0.160152  -0.174366  0  3.870912  0
C  C157  1  0.80117086  0.30465848  0.99300398  1  0.061341  0  -0.016117  0.02222  0  3.805105  0
C  C158  1  0.78235398  0.22695814  0.05660779  1  -0.026956  0  -0.164912  -0.177114  0  3.884418  0
C  C159  1  0.72370739  0.16488096  0.05778618  1  -0.028033  0  -0.164995  -0.176082  0  3.891439  0
C  C160  1  0.16924879  0.80780320  0.38485533  1  -0.025947  0  -0.235537  -0.405201  0  3.973964  0
C  C161  1  0.45040598  0.79975456  0.39936291  1  -0.085736  0  -0.236656  -0.408531  0  3.975471  0
C  C162  1  0.06173418  0.70440177  0.59011517  1  -0.050661  0  -0.236764  -0.408085  0  3.977623  0
C  C163  1  0.34218087  0.69758101  0.60590026  1  -0.03106  0  -0.235965  -0.406368  0  3.973771  0
C  C164  1  0.70144418  0.33767113  0.59843798  1  -0.069789  0  -0.236213  -0.408169  0  3.975721  0
C  C165  1  0.70392053  0.06405869  0.59722256  1  -0.096289  0  -0.236517  -0.40816  0  3.97505  0
C  C166  1  0.80394170  0.44077782  0.39288817  1  -0.027369  0  -0.236162  -0.407213  0  3.974058  0
C  C167  1  0.80422171  0.16693746  0.39216382  1  -0.069769  0  -0.235864  -0.407879  0  3.975494  0
O  O168  1  0.00050836  0.50281730  0.99411344  1  -1.221512  0  -0.573596  -1.025376  0  2.545558  0
O  O169  1  0.17161203  0.60648093  0.96054038  1  -1.17013  0  -0.317282  -0.55296  0  2.340412  0
O  O170  1  0.91882970  0.48715837  0.14746440  1  -1.153458  0  -0.317515  -0.54665  0  2.342221  0
O  O171  1  0.07046217  0.33477645  0.04000284  1  -1.179326  0  -0.316289  -0.548655  0  2.350439  0
O  O172  1  0.06780251  0.61912937  0.04426074  1  -1.181605  0  -0.313872  -0.544762  0  2.365841  0
O  O173  1  0.17179874  0.43666813  0.96246080  1  -1.185729  0  -0.313429  -0.548067  0  2.356468  0
O  O174  1  0.92524943  0.36538683  0.14733079  1  -1.165842  0  -0.318227  -0.54767  0  2.341588  0
O  O175  1  0.90024730  0.33919012  0.02891705  1  -1.175903  0  -0.314936  -0.548798  0  2.382592  0
O  O176  1  0.01242772  0.57916942  0.84025375  1  -1.165215  0  -0.317845  -0.551315  0  2.327424  0
O  O177  1  0.86695270  0.43782219  0.95056647  1  -1.174775  0  -0.31591  -0.550882  0  2.322044  0
O  O178  1  0.13804658  0.57691792  0.84568869  1  -1.192225  0  -0.319649  -0.551731  0  2.343655  0
O  O179  1  0.90079303  0.63580706  0.02688134  1  -1.179822  0  -0.319356  -0.554994  0  2.360471  0
O  O180  1  0.86651694  0.60638102  0.95263363  1  -1.178045  0  -0.312169  -0.545513  0  2.34105  0
O  O181  1  0.50129165  0.00188938  0.99571362  1  -1.224624  0  -0.573808  -1.025291  0  2.546092  0
O  O182  1  0.32825636  0.06898909  0.03133038  1  -1.16259  0  -0.317481  -0.551965  0  2.335296  0
O  O183  1  0.56227415  0.13910730  0.84184724  1  -1.174376  0  -0.318408  -0.547966  0  2.344814  0
O  O184  1  0.42684590  0.87872338  0.95390706  1  -1.181012  0  -0.317223  -0.552399  0  2.352639  0
O  O185  1  0.43531604  0.16791579  0.96189913  1  -1.176399  0  -0.313593  -0.546387  0  2.369231  0
O  O186  1  0.32921068  0.89571301  0.03871667  1  -1.163143  0  -0.313009  -0.544543  0  2.350815  0
O  O187  1  0.57059630  0.01743347  0.84176607  1  -1.151752  0  -0.317471  -0.547116  0  2.343322  0
O  O188  1  0.60241401  0.87622722  0.95617563  1  -1.17916  0  -0.315262  -0.548519  0  2.376832  0
O  O189  1  0.49688973  0.92192419  0.14831793  1  -1.186443  0  -0.317865  -0.54827  0  2.31654  0
O  O190  1  0.64128795  0.89949980  0.03106346  1  -1.172796  0  -0.316948  -0.554277  0  2.325246  0
O  O191  1  0.37029985  0.93263932  0.14568150  1  -1.183392  0  -0.319678  -0.551513  0  2.35534  0
O  O192  1  0.61818010  0.16572668  0.94635046  1  -1.186248  0  -0.319133  -0.553155  0  2.352795  0
O  O193  1  0.63284105  0.06799098  0.03663182  1  -1.184002  0  -0.313347  -0.549172  0  2.346442  0
