# generated using pymatgen
data_CdH8C10N3ClO2
_symmetry_space_group_name_H-M   'P 1'
_cell_length_a   8.08928978
_cell_length_b   8.39806747
_cell_length_c   8.98398330
_cell_angle_alpha   87.28684355
_cell_angle_beta   75.20414528
_cell_angle_gamma   71.71673164
_symmetry_Int_Tables_number   1
_chemical_formula_structural   CdH8C10N3ClO2
_chemical_formula_sum   'Cd2 H16 C20 N6 Cl2 O4'
_cell_volume   559.93796750
_cell_formula_units_Z   2
loop_
 _symmetry_equiv_pos_site_id
 _symmetry_equiv_pos_as_xyz
  1  'x, y, z'
loop_
 _atom_site_type_symbol
 _atom_site_label
 _atom_site_symmetry_multiplicity
 _atom_site_fract_x
 _atom_site_fract_y
 _atom_site_fract_z
 _atom_site_occupancy
 _atom_site_hle17_bader_spin_density
 _atom_site_hle17_ddec_charge
 _atom_site_hle17_ddec_spin_density
 _atom_site_hle17_ddec_sum_bond_order
 _atom_site_hle17_magmom
 _atom_site_hse06_10hf_bader_spin_density
 _atom_site_hse06_10hf_ddec_charge
 _atom_site_hse06_10hf_ddec_spin_density
 _atom_site_hse06_10hf_ddec_sum_bond_order
 _atom_site_hse06_10hf_magmom
 _atom_site_hse06_bader_spin_density
 _atom_site_hse06_ddec_charge
 _atom_site_hse06_ddec_spin_density
 _atom_site_hse06_ddec_sum_bond_order
 _atom_site_hse06_magmom
 _atom_site_pbe_bader_spin_density
 _atom_site_pbe_cm5_charge
 _atom_site_pbe_ddec_charge
 _atom_site_pbe_ddec_spin_density
 _atom_site_pbe_ddec_sum_bond_order
 _atom_site_pbe_magmom
Cd  Cd0  1  0.44352333  0.69789959  0.62694912  1  0  1.016184  0  1.80028  0  0  0.830487  0  2.258499  0  0  0.883576  0  2.212674  0  0  0.68848  0.793105  0  2.289599  0
Cd  Cd1  1  0.55647819  0.30210279  0.37304874  1  0  1.016159  0  1.800369  0  0  0.830497  0  2.258566  0  0  0.883583  0  2.212737  0  0  0.688462  0.793116  0  2.289662  0
H  H2  1  0.12795176  0.59701563  0.88653721  1  0  0.066281  0  0.973819  0  0  0.071694  0  1.047193  0  0  0.073985  0  1.045251  0  0  0.102672  0.070023  0  1.048619  0
H  H3  1  0.87206282  0.40297192  0.11345161  1  0  0.066285  0  0.973728  0  0  0.071685  0  1.047097  0  0  0.073974  0  1.045158  0  0  0.102683  0.07001  0  1.04853  0
H  H4  1  0.01632009  0.58970501  0.17506315  1  0  0.103405  0  0.955788  0  0  0.112052  0  1.019172  0  0  0.11529  0  1.017827  0  0  0.10056  0.109671  0  1.020354  0
H  H5  1  0.98368650  0.41027984  0.82492752  1  0  0.103441  0  0.955876  0  0  0.112071  0  1.019259  0  0  0.115308  0  1.017914  0  0  0.100598  0.10969  0  1.020444  0
H  H6  1  0.19234867  0.66425704  0.33959677  1  0  0.086126  0  0.986356  0  0  0.094661  0  1.053927  0  0  0.097035  0  1.052353  0  0  0.093474  0.092862  0  1.055174  0
H  H7  1  0.80765466  0.33574033  0.66039975  1  0  0.086216  0  0.986243  0  0  0.09472  0  1.053851  0  0  0.097095  0  1.052271  0  0  0.093483  0.092924  0  1.055101  0
H  H8  1  0.45675403  0.75534121  0.21531182  1  0  0.125195  0  0.962342  0  0  0.132478  0  1.025968  0  0  0.13658  0  1.023731  0  0  0.107526  0.129488  0  1.027797  0
H  H9  1  0.54324753  0.24466121  0.78468158  1  0  0.125234  0  0.962394  0  0  0.132554  0  1.025972  0  0  0.136655  0  1.023737  0  0  0.107571  0.129566  0  1.027803  0
H  H10  1  0.70954377  0.84751171  0.07824852  1  0  0.144736  0  0.934845  0  0  0.158244  0  0.984565  0  0  0.161959  0  0.983432  0  0  0.117667  0.155536  0  0.9856  0
H  H11  1  0.29045367  0.15248043  0.92175616  1  0  0.144717  0  0.934906  0  0  0.158214  0  0.984638  0  0  0.161947  0  0.983478  0  0  0.117672  0.155509  0  0.985675  0
H  H12  1  0.94146957  0.90939418  0.81182363  1  0  0.134565  0  0.959071  0  0  0.144677  0  1.018273  0  0  0.147882  0  1.015761  0  0  0.128299  0.142285  0  1.020144  0
H  H13  1  0.05853061  0.09060811  0.18818232  1  0  0.134539  0  0.959128  0  0  0.144625  0  1.018362  0  0  0.147827  0  1.015856  0  0  0.128295  0.142233  0  1.020234  0
H  H14  1  0.85800761  0.73451853  0.47846114  1  0  0.122098  0  0.936952  0  0  0.134186  0  1.00146  0  0  0.136284  0  1.000003  0  0  0.113214  0.132685  0  1.002617  0
H  H15  1  0.14199455  0.26549269  0.52153961  1  0  0.122139  0  0.936999  0  0  0.134278  0  1.001452  0  0  0.136322  0  1.000047  0  0  0.113222  0.132746  0  1.002639  0
H  H16  1  0.99343724  0.84085562  0.53244066  1  0  0.115137  0  0.942306  0  0  0.127343  0  1.0087  0  0  0.12871  0  1.008604  0  0  0.120346  0.126346  0  1.008892  0
H  H17  1  0.00655417  0.15916422  0.46756105  1  0  0.115113  0  0.942424  0  0  0.127406  0  1.008742  0  0  0.12877  0  1.008638  0  0  0.120359  0.126403  0  1.008928  0
C  C18  1  0.19536491  0.63223257  0.96431958  1  0  0.1298  0  3.732207  0  0  0.100768  0  3.981835  0  0  0.107376  0  4.000843  0  0  0.043257  0.09644  0  3.968894  0
C  C19  1  0.80464322  0.36775860  0.03567388  1  0  0.129878  0  3.731913  0  0  0.100877  0  3.981565  0  0  0.107488  0  4.000566  0  0  0.043293  0.096548  0  3.96862  0
C  C20  1  0.13498192  0.62765512  0.12357923  1  0  -0.113543  0  3.716787  0  0  -0.127345  0  3.968568  0  0  -0.132829  0  3.988128  0  0  -0.086288  -0.123859  0  3.955488  0
C  C21  1  0.86503011  0.37233236  0.87641127  1  0  -0.113624  0  3.716742  0  0  -0.127406  0  3.968517  0  0  -0.132891  0  3.988073  0  0  -0.086333  -0.123928  0  3.955466  0
C  C22  1  0.23132726  0.67103820  0.21479386  1  0  0.006817  0  3.713059  0  0  -0.015349  0  3.970053  0  0  -0.011572  0  3.987247  0  0  -0.070273  -0.017635  0  3.958367  0
C  C23  1  0.76867790  0.32895418  0.78519798  1  0  0.006763  0  3.712901  0  0  -0.015354  0  3.96986  0  0  -0.011594  0  3.987097  0  0  -0.070295  -0.017633  0  3.958154  0
C  C24  1  0.38180485  0.71925648  0.14521603  1  0  -0.141114  0  3.681117  0  0  -0.162928  0  3.934661  0  0  -0.169526  0  3.953931  0  0  -0.081415  -0.158672  0  3.921877  0
C  C25  1  0.61819423  0.28074207  0.85478028  1  0  -0.141199  0  3.681087  0  0  -0.163065  0  3.934615  0  0  -0.169668  0  3.953885  0  0  -0.081462  -0.158807  0  3.921839  0
C  C26  1  0.43262220  0.72332705  0.98449236  1  0  0.194653  0  3.783302  0  0  0.193849  0  4.019862  0  0  0.201198  0  4.03933  0  0  0.120285  0.188824  0  4.006639  0
C  C27  1  0.56737904  0.27666901  0.01550467  1  0  0.194591  0  3.783306  0  0  0.193863  0  4.019779  0  0  0.201213  0  4.039244  0  0  0.120261  0.18884  0  4.006556  0
C  C28  1  0.58692815  0.77572555  0.90349227  1  0  0.126944  0  3.831606  0  0  0.112655  0  4.097458  0  0  0.119629  0  4.117796  0  0  0.095721  0.108304  0  4.083369  0
C  C29  1  0.41307644  0.22427184  0.09650509  1  0  0.126978  0  3.831597  0  0  0.112706  0  4.097384  0  0  0.119681  0  4.117724  0  0  0.095752  0.108352  0  4.083295  0
C  C30  1  0.70838898  0.83122541  0.95950967  1  0  -0.219137  0  3.716691  0  0  -0.241784  0  3.984275  0  0  -0.251373  0  4.004499  0  0  -0.104045  -0.235463  0  3.970462  0
C  C31  1  0.29161267  0.16876937  0.04049065  1  0  -0.219182  0  3.716625  0  0  -0.241831  0  3.984207  0  0  -0.251436  0  4.004424  0  0  -0.1041  -0.235512  0  3.970398  0
C  C32  1  0.82705062  0.86296926  0.82873682  1  0  0.004737  0  3.631441  0  0  -0.055272  0  3.891166  0  0  -0.048082  0  3.905565  0  0  0.027727  -0.059558  0  3.88116  0
C  C33  1  0.17295135  0.13702801  0.17126892  1  0  0.004852  0  3.631257  0  0  -0.055157  0  3.891012  0  0  -0.047968  0  3.905419  0  0  0.027829  -0.059445  0  3.881007  0
C  C34  1  0.85460237  0.84346984  0.54367626  1  0  -0.179388  0  3.627856  0  0  -0.252364  0  3.870011  0  0  -0.254105  0  3.876717  0  0  -0.051383  -0.251269  0  3.865736  0
C  C35  1  0.14539298  0.15654249  0.45632706  1  0  -0.179604  0  3.627937  0  0  -0.252705  0  3.870092  0  0  -0.254385  0  3.876782  0  0  -0.051413  -0.251567  0  3.865802  0
C  C36  1  0.75586013  0.00339683  0.47331462  1  0  0.663398  0  3.896468  0  0  0.618524  0  4.196484  0  0  0.6516  0  4.190799  0  0  0.191974  0.596121  0  4.199464  0
C  C37  1  0.24411599  0.99661876  0.52670620  1  0  0.663542  0  3.895865  0  0  0.618648  0  4.195929  0  0  0.651723  0  4.190223  0  0  0.192055  0.59624  0  4.198909  0
N  N38  1  0.34022253  0.67871351  0.89630898  1  0  -0.365061  0  3.248608  0  0  -0.289895  0  3.499931  0  0  -0.309922  0  3.519618  0  0  -0.326799  -0.276183  0  3.486322  0
N  N39  1  0.65978253  0.32128264  0.10368609  1  0  -0.365048  0  3.248455  0  0  -0.289943  0  3.499791  0  0  -0.30997  0  3.519476  0  0  -0.32683  -0.276231  0  3.486179  0
N  N40  1  0.63065256  0.77392965  0.74836018  1  0  -0.316839  0  3.103757  0  0  -0.281846  0  3.372747  0  0  -0.298228  0  3.390185  0  0  -0.244352  -0.270649  0  3.360771  0
N  N41  1  0.36935237  0.22607026  0.25163924  1  0  -0.316894  0  3.103553  0  0  -0.281908  0  3.372519  0  0  -0.298292  0  3.389954  0  0  -0.244352  -0.270711  0  3.360542  0
N  N42  1  0.77622067  0.82601545  0.70490121  1  0  0.123057  0  3.595141  0  0  0.235801  0  3.776453  0  0  0.229743  0  3.799819  0  0  -0.133466  0.239581  0  3.760735  0
N  N43  1  0.22378079  0.17398688  0.29510334  1  0  0.123149  0  3.594872  0  0  0.235908  0  3.776212  0  0  0.229847  0  3.79956  0  0  -0.133528  0.239684  0  3.760483  0
Cl  Cl44  1  0.27135955  0.49738034  0.58014142  1  0  -0.570931  0  0.95112  0  0  -0.501425  0  1.228754  0  0  -0.520205  0  1.204894  0  0  -0.284625  -0.487961  0  1.244964  0
Cl  Cl45  1  0.72864204  0.50261825  0.41985656  1  0  -0.570948  0  0.951121  0  0  -0.501419  0  1.228738  0  0  -0.520205  0  1.204891  0  0  -0.284624  -0.48796  0  1.244953  0
O  O46  1  0.61214117  0.10414645  0.55665279  1  0  -0.620791  0  1.984164  0  0  -0.556167  0  2.225476  0  0  -0.58542  0  2.217712  0  0  -0.329406  -0.53568  0  2.229966  0
O  O47  1  0.38782952  0.89584886  0.44336104  1  0  -0.62079  0  1.983882  0  0  -0.556087  0  2.225111  0  0  -0.585372  0  2.217405  0  0  -0.329419  -0.535596  0  2.229602  0
O  O48  1  0.82583686  0.02639001  0.33459810  1  0  -0.636296  0  1.90258  0  0  -0.583075  0  2.128558  0  0  -0.609583  0  2.120529  0  0  -0.339124  -0.564369  0  2.133304  0
O  O49  1  0.17414484  0.97364213  0.66542202  1  0  -0.636338  0  1.902497  0  0  -0.583147  0  2.128496  0  0  -0.609654  0  2.120471  0  0  -0.339207  -0.564444  0  2.133246  0
