# generated using pymatgen
data_CdH22C20(N2O3)2
_symmetry_space_group_name_H-M   'P 1'
_cell_length_a   9.50910493
_cell_length_b   9.81338817
_cell_length_c   12.05100000
_cell_angle_alpha   100.66817972
_cell_angle_beta   95.05572544
_cell_angle_gamma   106.31553171
_symmetry_Int_Tables_number   1
_chemical_formula_structural   CdH22C20(N2O3)2
_chemical_formula_sum   'Cd2 H44 C40 N8 O12'
_cell_volume   1048.84424675
_cell_formula_units_Z   2
loop_
 _symmetry_equiv_pos_site_id
 _symmetry_equiv_pos_as_xyz
  1  'x, y, z'
loop_
 _atom_site_type_symbol
 _atom_site_label
 _atom_site_symmetry_multiplicity
 _atom_site_fract_x
 _atom_site_fract_y
 _atom_site_fract_z
 _atom_site_occupancy
 _atom_site_hle17_bader_spin_density
 _atom_site_hle17_ddec_charge
 _atom_site_hle17_ddec_spin_density
 _atom_site_hle17_ddec_sum_bond_order
 _atom_site_hle17_magmom
 _atom_site_hse06_10hf_bader_spin_density
 _atom_site_hse06_10hf_ddec_charge
 _atom_site_hse06_10hf_ddec_spin_density
 _atom_site_hse06_10hf_ddec_sum_bond_order
 _atom_site_hse06_10hf_magmom
 _atom_site_hse06_bader_spin_density
 _atom_site_hse06_ddec_charge
 _atom_site_hse06_ddec_spin_density
 _atom_site_hse06_ddec_sum_bond_order
 _atom_site_hse06_magmom
 _atom_site_pbe_bader_charge
 _atom_site_pbe_bader_spin_density
 _atom_site_pbe_cm5_charge
 _atom_site_pbe_ddec_charge
 _atom_site_pbe_ddec_spin_density
 _atom_site_pbe_ddec_sum_bond_order
 _atom_site_pbe_magmom
Cd  Cd0  1  0.65192741  0.01352571  0.39223282  1  0  1.12627  0  1.665665  0  0  0.930578  0  2.106387  0  0  0.989495  0  2.055682  0  1.272076  0  0.769472  0.887948  0  2.141667  0
Cd  Cd1  1  0.34806990  0.98647561  0.60776877  1  0  1.126268  0  1.665657  0  0  0.930569  0  2.106379  0  0  0.989489  0  2.055672  0  1.272085  0  0.769483  0.887939  0  2.141658  0
H  H2  1  0.94733574  0.56337494  0.32646224  1  0  0.082251  0  0.951082  0  0  0.092902  0  1.019843  0  0  0.0944  0  1.01897  0  0.075116  0  0.110383  0.091791  0  1.020338  0
H  H3  1  0.05266685  0.43662638  0.67353805  1  0  0.082261  0  0.951083  0  0  0.092942  0  1.019833  0  0  0.094442  0  1.018955  0  0.075109  0  0.1104  0.091829  0  1.020324  0
H  H4  1  0.80448196  0.40382099  0.33680950  1  0  0.081088  0  0.932597  0  0  0.093966  0  0.998293  0  0  0.094926  0  0.998038  0  0.065329  0  0.106854  0.093099  0  0.998852  0
H  H5  1  0.19551957  0.59618034  0.66319155  1  0  0.081134  0  0.932493  0  0  0.094018  0  0.998218  0  0  0.094978  0  0.997964  0  0.06531  0  0.106865  0.093149  0  0.998777  0
H  H6  1  0.56744629  0.44601645  0.41679642  1  0  0.123486  0  0.967561  0  0  0.130728  0  1.033595  0  0  0.133984  0  1.031366  0  0.155961  0  0.123074  0.128419  0  1.035344  0
H  H7  1  0.43255596  0.55398378  0.58320369  1  0  0.12347  0  0.96757  0  0  0.130715  0  1.033597  0  0  0.133972  0  1.031366  0  0.155951  0  0.12307  0.128405  0  1.035348  0
H  H8  1  0.54723029  0.59908725  0.20915202  1  0  0.100579  0  1.005858  0  0  0.106898  0  1.075255  0  0  0.109643  0  1.075155  0  0.065059  0  0.098802  0.105189  0  1.075308  0
H  H9  1  0.45276816  0.40090754  0.79084120  1  0  0.100587  0  1.005832  0  0  0.106911  0  1.075232  0  0  0.109657  0  1.075129  0  0.065052  0  0.098807  0.105203  0  1.075285  0
H  H10  1  0.71198071  0.32687202  0.75073738  1  0  0.084482  0  0.913155  0  0  0.097161  0  0.974557  0  0  0.098739  0  0.973337  0  0.063742  0  0.108996  0.096202  0  0.975273  0
H  H11  1  0.28802015  0.67312712  0.24925915  1  0  0.084478  0  0.91316  0  0  0.097172  0  0.974548  0  0  0.098745  0  0.973338  0  0.063758  0  0.109024  0.096219  0  0.97527  0
H  H12  1  0.70265450  0.16436000  0.79791066  1  0  0.093941  0  0.938598  0  0  0.103227  0  1.003692  0  0  0.105352  0  1.002041  0  0.111537  0  0.105135  0.101715  0  1.005218  0
H  H13  1  0.29734746  0.83563588  0.20209043  1  0  0.093944  0  0.93858  0  0  0.103254  0  1.003658  0  0  0.105383  0  1.002005  0  0.111565  0  0.105158  0.101748  0  1.005189  0
H  H14  1  0.44205807  0.23347520  0.92119693  1  0  0.119808  0  0.980083  0  0  0.128655  0  1.043997  0  0  0.13256  0  1.041334  0  0.133749  0  0.101866  0.125863  0  1.046344  0
H  H15  1  0.55793865  0.76651742  0.07879998  1  0  0.119798  0  0.980126  0  0  0.128596  0  1.044097  0  0  0.1325  0  1.041431  0  0.133761  0  0.101847  0.125804  0  1.046444  0
H  H16  1  0.18476845  0.45223623  0.87655167  1  0  0.111406  0  0.955439  0  0  0.120143  0  1.018415  0  0  0.123155  0  1.017579  0  0.091375  0  0.102262  0.117555  0  1.020251  0
H  H17  1  0.81522646  0.54776074  0.12345407  1  0  0.111401  0  0.955266  0  0  0.120117  0  1.01829  0  0  0.12314  0  1.017445  0  0.091378  0  0.102248  0.117531  0  1.020112  0
H  H18  1  0.46368446  0.69034225  0.44180569  1  0  0.107062  0  0.973061  0  0  0.115654  0  1.034956  0  0  0.118204  0  1.033775  0  0.138834  0  0.114576  0.114146  0  1.035082  0
H  H19  1  0.53631323  0.30965689  0.55819560  1  0  0.107018  0  0.973144  0  0  0.11565  0  1.034971  0  0  0.118201  0  1.033786  0  0.138865  0  0.114603  0.114106  0  1.035142  0
H  H20  1  0.89243032  0.79994316  0.34778867  1  0  0.109039  0  0.961583  0  0  0.111736  0  1.036928  0  0  0.115453  0  1.032337  0  0.22387  0  0.133758  0.108937  0  1.040205  0
H  H21  1  0.10756982  0.20005708  0.65221295  1  0  0.108993  0  0.961601  0  0  0.111742  0  1.036883  0  0  0.115464  0  1.032297  0  0.224092  0  0.133766  0.108944  0  1.040161  0
H  H22  1  0.85287381  0.47925065  0.54812988  1  0  0.064015  0  0.925416  0  0  0.087102  0  0.977965  0  0  0.087431  0  0.978834  0  0.014414  0  0.090338  0.086943  0  0.977061  0
H  H23  1  0.14712561  0.52075067  0.45187102  1  0  0.064036  0  0.925433  0  0  0.087098  0  0.978001  0  0  0.087427  0  0.978867  0  0.014439  0  0.090333  0.086939  0  0.977099  0
H  H24  1  0.97736489  0.64899351  0.54085392  1  0  0.075173  0  0.967857  0  0  0.091242  0  1.032556  0  0  0.091495  0  1.034798  0  0.033184  0  0.091283  0.090866  0  1.031219  0
H  H25  1  0.02263664  0.35100782  0.45914713  1  0  0.075153  0  0.967884  0  0  0.091202  0  1.032618  0  0  0.091432  0  1.034886  0  0.033218  0  0.091272  0.090827  0  1.031283  0
H  H26  1  0.73176050  0.36638477  0.94160341  1  0  0.097666  0  1.008336  0  0  0.106418  0  1.075891  0  0  0.10858  0  1.076044  0  0.117636  0  0.096136  0.104241  0  1.0773  0
H  H27  1  0.26823618  0.63361111  0.05839648  1  0  0.09769  0  1.008488  0  0  0.106485  0  1.07598  0  0  0.108647  0  1.076132  0  0.117599  0  0.096181  0.104312  0  1.077382  0
H  H28  1  0.57492084  0.17375878  0.05538269  1  0  0.080361  0  0.924658  0  0  0.09231  0  0.991188  0  0  0.094186  0  0.988885  0  0.082084  0  0.106606  0.090742  0  0.993194  0
H  H29  1  0.42507715  0.82624472  0.94461762  1  0  0.080375  0  0.924642  0  0  0.092334  0  0.991158  0  0  0.094214  0  0.988856  0  0.082095  0  0.1066  0.090768  0  0.993161  0
H  H30  1  0.38552036  0.10858441  0.06651165  1  0  0.07317  0  0.943661  0  0  0.083816  0  1.012632  0  0  0.085618  0  1.01082  0  0.046596  0  0.102674  0.082436  0  1.014207  0
H  H31  1  0.61448079  0.89141909  0.93348970  1  0  0.073163  0  0.943683  0  0  0.083806  0  1.012658  0  0  0.085611  0  1.010847  0  0.046563  0  0.102666  0.082426  0  1.014233  0
H  H32  1  0.20096221  0.27048044  0.11533610  1  0  0.086802  0  0.924983  0  0  0.101035  0  0.987309  0  0  0.101866  0  0.987196  0  0.093977  0  0.113237  0.10039  0  0.987549  0
H  H33  1  0.79903899  0.72951979  0.88466477  1  0  0.08674  0  0.92496  0  0  0.100983  0  0.987291  0  0  0.101811  0  0.98718  0  0.093997  0  0.113211  0.10034  0  0.987527  0
H  H34  1  0.01739800  0.25375070  0.05784821  1  0  0.074947  0  0.947658  0  0  0.089977  0  1.012846  0  0  0.089482  0  1.015172  0  0.079242  0  0.108052  0.090174  0  1.011159  0
H  H35  1  0.98260353  0.74625062  0.94215201  1  0  0.07499  0  0.947682  0  0  0.090045  0  1.012841  0  0  0.089553  0  1.015162  0  0.079239  0  0.108072  0.090242  0  1.011154  0
H  H36  1  0.15385404  0.00298201  0.05301675  1  0  0.065029  0  0.936492  0  0  0.086216  0  0.995113  0  0  0.08655  0  0.995659  0  0.01352  0  0.092149  0.085819  0  0.994881  0
H  H37  1  0.84614610  0.99701822  0.94698321  1  0  0.065029  0  0.936506  0  0  0.086212  0  0.995127  0  0  0.086549  0  0.995674  0  0.013512  0  0.092147  0.085815  0  0.994896  0
H  H38  1  0.11937170  0.08200641  0.93670565  1  0  0.081527  0  0.92999  0  0  0.103506  0  0.982797  0  0  0.103851  0  0.98405  0  0.052867  0  0.099724  0.102965  0  0.982525  0
H  H39  1  0.88062810  0.91799273  0.06329412  1  0  0.081531  0  0.929986  0  0  0.103509  0  0.982789  0  0  0.103856  0  0.984046  0  0.053018  0  0.099726  0.102968  0  0.982519  0
H  H40  1  0.03627149  0.06334925  0.44305694  1  0  0.103379  0  0.976235  0  0  0.111707  0  1.040846  0  0  0.113883  0  1.039567  0  0.139236  0  0.117107  0.110186  0  1.04178  0
H  H41  1  0.96372659  0.93664772  0.55694155  1  0  0.103399  0  0.97625  0  0  0.11174  0  1.040844  0  0  0.113917  0  1.039564  0  0.139417  0  0.117101  0.110217  0  1.041777  0
H  H42  1  0.80610105  0.15451718  0.16475455  1  0  0.087158  0  0.95106  0  0  0.09771  0  1.016545  0  0  0.099376  0  1.014446  0  0.117996  0  0.132324  0.096469  0  1.018131  0
H  H43  1  0.19390048  0.84548414  0.83524568  1  0  0.087186  0  0.95104  0  0  0.097724  0  1.016537  0  0  0.099396  0  1.014432  0  0.11809  0  0.132332  0.096482  0  1.018124  0
H  H44  1  0.23375143  0.15470220  0.29664195  1  0  0.127067  0  0.936105  0  0  0.140404  0  0.989153  0  0  0.142976  0  0.98847  0  0.105306  0  0.127798  0.137809  0  0.990976  0
H  H45  1  0.76625044  0.84530021  0.70335929  1  0  0.127085  0  0.936131  0  0  0.140425  0  0.989167  0  0  0.142995  0  0.98849  0  0.105319  0  0.127821  0.13783  0  0.990991  0
C  C46  1  0.86365595  0.51789709  0.37777911  1  0  -0.004361  0  3.610413  0  0  -0.064494  0  3.867984  0  0  -0.060583  0  3.878648  0  0.338724  0  -0.053924  -0.06701  0  3.860766  0
C  C47  1  0.13634525  0.48210315  0.62222258  1  0  -0.004462  0  3.610379  0  0  -0.064698  0  3.868102  0  0  -0.060786  0  3.878758  0  0.338718  0  -0.053978  -0.067199  0  3.860862  0
C  C48  1  0.53370395  0.11085574  0.21311708  1  0  0.631633  0  3.944905  0  0  0.584972  0  4.246297  0  0  0.617312  0  4.241529  0  1.578566  0  0.182211  0.562569  0  4.250284  0
C  C49  1  0.46629547  0.88914558  0.78688216  1  0  0.631596  0  3.945021  0  0  0.584932  0  4.24642  0  0  0.617277  0  4.241653  0  1.578593  0  0.182235  0.56253  0  4.250405  0
C  C50  1  0.61794717  0.55723679  0.41010477  1  0  -0.058971  0  3.66792  0  0  -0.101568  0  3.929704  0  0  -0.099409  0  3.947056  0  0.323836  0  0.004174  -0.103155  0  3.918215  0
C  C51  1  0.38205330  0.44276454  0.58989538  1  0  -0.058875  0  3.667837  0  0  -0.101467  0  3.929607  0  0  -0.099308  0  3.946959  0  0.323793  0  0.00423  -0.103053  0  3.91811  0
C  C52  1  0.52704693  0.55632259  0.11728891  1  0  -0.158033  0  3.769809  0  0  -0.180234  0  4.024428  0  0  -0.182581  0  4.042954  0  -0.02889  0  -0.109064  -0.178901  0  4.014038  0
C  C53  1  0.47295384  0.44368308  0.88271109  1  0  -0.158091  0  3.769814  0  0  -0.180315  0  4.024453  0  0  -0.182657  0  4.042976  0  -0.029047  0  -0.109106  -0.178981  0  4.014058  0
C  C54  1  0.74755158  0.15994793  0.62554471  1  0  0.655263  0  3.909656  0  0  0.604095  0  4.209971  0  0  0.637514  0  4.203768  0  1.600655  0  0.194419  0.581453  0  4.213279  0
C  C55  1  0.25244650  0.84004904  0.37445462  1  0  0.655111  0  3.909737  0  0  0.603975  0  4.209993  0  0  0.637398  0  4.203788  0  1.600629  0  0.194371  0.581342  0  4.213305  0
C  C56  1  0.49453931  0.40645365  0.07523660  1  0  0.236732  0  3.82346  0  0  0.229289  0  4.083974  0  0  0.237899  0  4.101174  0  0.43623  0  0.065987  0.222995  0  4.072649  0
C  C57  1  0.50546180  0.59355312  0.92476773  1  0  0.236705  0  3.823464  0  0  0.229302  0  4.083919  0  0  0.237916  0  4.10111  0  0.436038  0  0.065982  0.223009  0  4.072596  0
C  C58  1  0.76441821  0.23932168  0.74874024  1  0  -0.064062  0  3.641887  0  0  -0.117466  0  3.902538  0  0  -0.114728  0  3.903244  0  0.383269  0  -0.069235  -0.119579  0  3.901938  0
C  C59  1  0.23557771  0.76067855  0.25126192  1  0  -0.063977  0  3.641914  0  0  -0.117431  0  3.902602  0  0  -0.114694  0  3.903316  0  0.383267  0  -0.069305  -0.119579  0  3.902046  0
C  C60  1  0.95355877  0.39711473  0.89654324  1  0  0.233881  0  3.84887  0  0  0.224215  0  4.111289  0  0  0.233733  0  4.126581  0  0.440775  0  0.064012  0.218023  0  4.100047  0
C  C61  1  0.04644243  0.60288551  0.10345431  1  0  0.233669  0  3.848965  0  0  0.224109  0  4.111247  0  0  0.233621  0  4.126548  0  0.440859  0  0.063973  0.217919  0  4.100002  0
C  C62  1  0.46663366  0.34950810  0.95701775  1  0  -0.1959  0  3.779824  0  0  -0.211016  0  4.02445  0  0  -0.214833  0  4.043759  0  -0.074914  0  -0.113705  -0.208369  0  4.013142  0
C  C63  1  0.53336888  0.65049648  0.04298386  1  0  -0.195881  0  3.779933  0  0  -0.210984  0  4.024566  0  0  -0.214798  0  4.04387  0  -0.074727  0  -0.113748  -0.20834  0  4.013263  0
C  C64  1  0.10388012  0.47374916  0.93058440  1  0  -0.157593  0  3.76994  0  0  -0.178859  0  4.026201  0  0  -0.181166  0  4.044229  0  -0.026826  0  -0.107767  -0.177259  0  4.01436  0
C  C65  1  0.89612251  0.52624889  0.06941125  1  0  -0.157511  0  3.770137  0  0  -0.17878  0  4.026332  0  0  -0.181094  0  4.044362  0  -0.027178  0  -0.107768  -0.177175  0  4.014489  0
C  C66  1  0.56714613  0.67628653  0.41904699  1  0  -0.019938  0  3.7757  0  0  -0.052628  0  4.042278  0  0  -0.050911  0  4.062519  0  0.328557  0  -0.012076  -0.053823  0  4.028061  0
C  C67  1  0.43285296  0.32371370  0.58095373  1  0  -0.020002  0  3.775782  0  0  -0.052719  0  4.042333  0  0  -0.051001  0  4.062569  0  0.328216  0  -0.012136  -0.053885  0  4.028137  0
C  C68  1  0.78723464  0.74029313  0.36893492  1  0  0.15842  0  3.647564  0  0  0.096964  0  3.916113  0  0  0.110684  0  3.929105  0  0.91253  0  0.14205  0.088182  0  3.907247  0
C  C69  1  0.21276411  0.25970602  0.63106395  1  0  0.158428  0  3.647474  0  0  0.096939  0  3.916006  0  0  0.11065  0  3.929005  0  0.912294  0  0.142034  0.088156  0  3.907142  0
C  C70  1  0.93653154  0.53280170  0.49941760  1  0  -0.118352  0  3.684466  0  0  -0.159409  0  3.943921  0  0  -0.161057  0  3.958463  0  0.016076  0  -0.165119  -0.158017  0  3.933818  0
C  C71  1  0.06347032  0.46720071  0.50058364  1  0  -0.118271  0  3.684455  0  0  -0.159288  0  3.943953  0  0  -0.160923  0  3.958503  0  -0.016257  0  -0.165097  -0.157905  0  3.933847  0
C  C72  1  0.84943153  0.42367095  0.96638943  1  0  -0.20136  0  3.812753  0  0  -0.221685  0  4.0677  0  0  -0.225057  0  4.087758  0  -0.100991  0  -0.118871  -0.218761  0  4.0543  0
C  C73  1  0.15057676  0.57632493  0.03361293  1  0  -0.201296  0  3.812646  0  0  -0.221693  0  4.067569  0  0  -0.225067  0  4.087636  0  -0.101392  0  -0.118899  -0.218769  0  4.054167  0
C  C74  1  0.49371394  0.17765498  0.11512029  1  0  -0.054995  0  3.657717  0  0  -0.11435  0  3.927294  0  0  -0.110628  0  3.927247  0  0.414701  0  -0.069992  -0.117106  0  3.927423  0
C  C75  1  0.50628764  0.82234307  0.88487696  1  0  -0.055073  0  3.657773  0  0  -0.114428  0  3.927347  0  0  -0.110718  0  3.927315  0  0.414537  0  -0.070044  -0.117178  0  3.927465  0
C  C76  1  0.08685399  0.19700323  0.09607592  1  0  -0.00366  0  3.623501  0  0  -0.065384  0  3.882833  0  0  -0.061209  0  3.894691  0  0.275759  0  -0.051851  -0.067878  0  3.874542  0
C  C77  1  0.91314754  0.80299809  0.90392513  1  0  -0.003621  0  3.623513  0  0  -0.065375  0  3.882828  0  0  -0.061195  0  3.89469  0  0.275736  0  -0.051841  -0.06787  0  3.874541  0
C  C78  1  0.07800914  0.05412678  0.01464863  1  0  -0.127241  0  3.67915  0  0  -0.171668  0  3.946093  0  0  -0.172906  0  3.960155  0  -0.025889  0  -0.162726  -0.170822  0  3.936746  0
C  C79  1  0.92198995  0.94587346  0.98535126  1  0  -0.127238  0  3.679184  0  0  -0.171654  0  3.946129  0  0  -0.172909  0  3.960204  0  -0.006652  0  -0.162718  -0.170808  0  3.936783  0
C  C80  1  0.01589349  0.09435238  0.36317691  1  0  0.019317  0  3.755289  0  0  -0.016004  0  4.029047  0  0  -0.012696  0  4.047748  0  0.388289  0  -0.000594  -0.018328  0  4.016184  0
C  C81  1  0.98410559  0.90564786  0.63682214  1  0  0.019271  0  3.755332  0  0  -0.016068  0  4.029093  0  0  -0.012763  0  4.047798  0  0.388129  0  -0.000602  -0.018388  0  4.016226  0
C  C82  1  0.89316251  0.14200688  0.22265010  1  0  0.150159  0  3.698941  0  0  0.090538  0  3.966242  0  0  0.103951  0  3.980596  0  0.97079  0  0.135522  0.082006  0  3.956133  0
C  C83  1  0.10683830  0.85799553  0.77735024  1  0  0.150026  0  3.698787  0  0  0.090419  0  3.966084  0  0  0.103827  0  3.980438  0  0.970715  0  0.135431  0.081887  0  3.955975  0
C  C84  1  0.11565139  0.13953094  0.29164592  1  0  -0.064918  0  3.642779  0  0  -0.105169  0  3.898123  0  0  -0.104075  0  3.916441  0  0.337165  0  0.001026  -0.105244  0  3.885861  0
C  C85  1  0.88434908  0.86047038  0.70835423  1  0  -0.064949  0  3.642842  0  0  -0.105204  0  3.898191  0  0  -0.104109  0  3.916507  0  0.337157  0  0.001  -0.105278  0  3.885929  0
N  N86  1  0.75696649  0.59987411  0.37868944  1  0  -0.050799  0  3.564351  0  0  0.043597  0  3.782482  0  0  0.029164  0  3.808751  0  -1.240138  0  -0.242464  0.053075  0  3.764757  0
N  N87  1  0.24303260  0.40012612  0.62131045  1  0  -0.050719  0  3.564287  0  0  0.043702  0  3.78243  0  0  0.02927  0  3.808703  0  -1.240136  0  -0.242428  0.053178  0  3.764703  0
N  N88  1  0.67342796  0.78953986  0.39263970  1  0  -0.401252  0  3.275666  0  0  -0.319392  0  3.558104  0  0  -0.34238  0  3.57638  0  -1.221351  0  -0.366263  -0.30329  0  3.545204  0
N  N89  1  0.32657079  0.21045929  0.60735917  1  0  -0.401241  0  3.275673  0  0  -0.319387  0  3.558139  0  0  -0.342372  0  3.576413  0  -1.221005  0  -0.36627  -0.303283  0  3.545229  0
N  N90  1  0.87733739  0.09578352  0.31918537  1  0  -0.396582  0  3.243708  0  0  -0.32447  0  3.525424  0  0  -0.345395  0  3.543043  0  -1.20776  0  -0.354474  -0.309832  0  3.513268  0
N  N91  1  0.12266308  0.90421780  0.68081229  1  0  -0.396433  0  3.243529  0  0  -0.324316  0  3.525237  0  0  -0.345244  0  3.542865  0  -1.207782  0  -0.35437  -0.309678  0  3.513079  0
N  N92  1  0.03605425  0.17068426  0.20311748  1  0  -0.066837  0  3.581601  0  0  0.028014  0  3.800711  0  0  0.013599  0  3.826595  0  -1.235149  0  -0.247574  0.037713  0  3.782388  0
N  N93  1  0.96394689  0.82931924  0.79688305  1  0  -0.066842  0  3.58158  0  0  0.028008  0  3.800691  0  0  0.013594  0  3.826575  0  -1.235116  0  -0.247579  0.037707  0  3.78237  0
O  O94  1  0.61251860  0.10098354  0.57589039  1  0  -0.671521  0  2.066892  0  0  -0.58907  0  2.327613  0  0  -0.621749  0  2.315913  0  -1.17619  0  -0.335855  -0.565811  0  2.334363  0
O  O95  1  0.38748471  0.89901669  0.42410813  1  0  -0.67153  0  2.066892  0  0  -0.589044  0  2.327536  0  0  -0.621724  0  2.315837  0  -1.176182  0  -0.335808  -0.565776  0  2.334259  0
O  O96  1  0.56968750  0.18742162  0.31458236  1  0  -0.618949  0  1.94443  0  0  -0.559183  0  2.183111  0  0  -0.586235  0  2.173472  0  -1.158795  0  -0.329004  -0.540483  0  2.190837  0
O  O97  1  0.43030880  0.81257644  0.68541783  1  0  -0.618932  0  1.944463  0  0  -0.559164  0  2.183144  0  0  -0.586216  0  2.173508  0  -1.15879  0  -0.329011  -0.540464  0  2.190869  0
O  O98  1  0.53336467  0.97949292  0.18430592  1  0  -0.658836  0  1.932016  0  0  -0.605779  0  2.172945  0  0  -0.633937  0  2.164928  0  -1.189799  0  -0.341407  -0.586318  0  2.178998  0
O  O99  1  0.46663859  0.02051058  0.81569558  1  0  -0.658807  0  1.932049  0  0  -0.605749  0  2.172981  0  0  -0.633909  0  2.164962  0  -1.189849  0  -0.341406  -0.58629  0  2.179036  0
O  O100  1  0.91795853  0.29808581  0.79405260  1  0  -0.267731  0  2.365516  0  0  -0.201583  0  2.602219  0  0  -0.217476  0  2.603839  0  -1.091736  0  -0.186456  -0.190008  0  2.600197  0
O  O101  1  0.08203662  0.70191877  0.20595182  1  0  -0.267775  0  2.365488  0  0  -0.201667  0  2.602171  0  0  -0.217551  0  2.603791  0  -1.091737  0  -0.186452  -0.190083  0  2.600161  0
O  O102  1  0.85766094  0.15681573  0.57664834  1  0  -0.608677  0  1.962217  0  0  -0.558944  0  2.202072  0  0  -0.584163  0  2.19518  0  -1.176208  0  -0.313273  -0.541259  0  2.206235  0
O  O103  1  0.14233786  0.84318015  0.42335253  1  0  -0.608622  0  1.962278  0  0  -0.558901  0  2.202122  0  0  -0.584122  0  2.195227  0  -1.176223  0  -0.313257  -0.541216  0  2.20628  0
O  O104  1  0.49336900  0.32323375  0.15575912  1  0  -0.270503  0  2.341878  0  0  -0.206387  0  2.581866  0  0  -0.221856  0  2.583596  0  -1.077121  0  -0.190271  -0.194646  0  2.580292  0
O  O105  1  0.50663191  0.67676213  0.84423858  1  0  -0.27043  0  2.341864  0  0  -0.206337  0  2.581842  0  0  -0.221803  0  2.583573  0  -1.076922  0  -0.19021  -0.1946  0  2.580273  0
