# generated using pymatgen
data_CdH14C14N2(ClO2)2
_symmetry_space_group_name_H-M   'P 1'
_cell_length_a   5.52286440
_cell_length_b   8.33056898
_cell_length_c   17.30486384
_cell_angle_alpha   90.01743157
_cell_angle_beta   96.05813185
_cell_angle_gamma   82.19969462
_symmetry_Int_Tables_number   1
_chemical_formula_structural   CdH14C14N2(ClO2)2
_chemical_formula_sum   'Cd2 H28 C28 N4 Cl4 O8'
_cell_volume   784.32107601
_cell_formula_units_Z   2
loop_
 _symmetry_equiv_pos_site_id
 _symmetry_equiv_pos_as_xyz
  1  'x, y, z'
loop_
 _atom_site_type_symbol
 _atom_site_label
 _atom_site_symmetry_multiplicity
 _atom_site_fract_x
 _atom_site_fract_y
 _atom_site_fract_z
 _atom_site_occupancy
 _atom_site_hle17_bader_spin_density
 _atom_site_hle17_ddec_charge
 _atom_site_hle17_ddec_spin_density
 _atom_site_hle17_ddec_sum_bond_order
 _atom_site_hle17_magmom
 _atom_site_hse06_10hf_bader_spin_density
 _atom_site_hse06_10hf_ddec_charge
 _atom_site_hse06_10hf_ddec_spin_density
 _atom_site_hse06_10hf_ddec_sum_bond_order
 _atom_site_hse06_10hf_magmom
 _atom_site_hse06_bader_spin_density
 _atom_site_hse06_ddec_charge
 _atom_site_hse06_ddec_spin_density
 _atom_site_hse06_ddec_sum_bond_order
 _atom_site_hse06_magmom
 _atom_site_pbe_bader_spin_density
 _atom_site_pbe_cm5_charge
 _atom_site_pbe_ddec_charge
 _atom_site_pbe_ddec_spin_density
 _atom_site_pbe_ddec_sum_bond_order
 _atom_site_pbe_magmom
Cd  Cd0  1  0.79078734  0.87657282  0.04736226  1  0  0.992796  0  1.81402  0  0  0.834933  0  2.248266  0  0  0.879498  0  2.20959  0  0  0.60718  0.803765  0  2.274239  0
Cd  Cd1  1  0.20921729  0.12343140  0.95263634  1  0  0.99278  0  1.814036  0  0  0.834922  0  2.248282  0  0  0.879489  0  2.209606  0  0  0.607177  0.803756  0  2.274256  0
H  H2  1  0.66830023  0.33569778  0.49084704  1  0  0.39816  0  0.90639  0  0  0.367869  0  0.979384  0  0  0.380962  0  0.960999  0  0  0.303286  0.358707  0  0.992214  0
H  H3  1  0.33172743  0.66429053  0.50915214  1  0  0.398169  0  0.906476  0  0  0.367906  0  0.979352  0  0  0.381001  0  0.960965  0  0  0.303304  0.358744  0  0.992185  0
H  H4  1  0.12390276  0.63581584  0.12415849  1  0  0.308189  0  0.890959  0  0  0.29903  0  0.94647  0  0  0.304541  0  0.943173  0  0  0.29133  0.29511  0  0.948849  0
H  H5  1  0.87609642  0.36419432  0.87584811  1  0  0.308134  0  0.890949  0  0  0.298989  0  0.946458  0  0  0.304498  0  0.943163  0  0  0.29133  0.295069  0  0.948838  0
H  H6  1  0.92540328  0.54560236  0.06897581  1  0  0.308706  0  0.891506  0  0  0.296762  0  0.95117  0  0  0.303322  0  0.945932  0  0  0.288053  0.292025  0  0.955038  0
H  H7  1  0.07460908  0.45440801  0.93102495  1  0  0.308626  0  0.891496  0  0  0.296689  0  0.951165  0  0  0.303245  0  0.945938  0  0  0.28799  0.291952  0  0.955032  0
H  H8  1  0.55180938  0.46636236  0.11345810  1  0  0.105846  0  0.962353  0  0  0.111856  0  1.030526  0  0  0.115795  0  1.02817  0  0  0.088598  0.108954  0  1.032451  0
H  H9  1  0.44819677  0.53363688  0.88654046  1  0  0.105869  0  0.962371  0  0  0.111881  0  1.030547  0  0  0.11582  0  1.02819  0  0  0.088599  0.108978  0  1.032474  0
H  H10  1  0.39718934  0.36061334  0.23046587  1  0  0.099875  0  0.958985  0  0  0.105851  0  1.02778  0  0  0.109166  0  1.025373  0  0  0.096286  0.103439  0  1.029551  0
H  H11  1  0.60279688  0.63939089  0.76952911  1  0  0.099767  0  0.959049  0  0  0.105738  0  1.027866  0  0  0.109052  0  1.025453  0  0  0.096268  0.103325  0  1.029637  0
H  H12  1  0.97277447  0.54703367  0.37646662  1  0  0.116196  0  0.928034  0  0  0.126002  0  0.984703  0  0  0.129299  0  0.982012  0  0  0.113757  0.12358  0  0.986718  0
H  H13  1  0.02722165  0.45295455  0.62353364  1  0  0.116237  0  0.92786  0  0  0.126039  0  0.984537  0  0  0.129338  0  0.981841  0  0  0.11377  0.123615  0  0.986552  0
H  H14  1  0.12560283  0.65442479  0.26007946  1  0  0.100298  0  0.965641  0  0  0.113045  0  1.023765  0  0  0.115433  0  1.023918  0  0  0.10279  0.11132  0  1.023853  0
H  H15  1  0.87440641  0.34556659  0.73992253  1  0  0.100326  0  0.965585  0  0  0.113106  0  1.023672  0  0  0.115497  0  1.023823  0  0  0.102805  0.111381  0  1.023762  0
H  H16  1  0.67461347  0.77912889  0.55151603  1  0  0.399315  0  0.881668  0  0  0.368025  0  0.960544  0  0  0.381308  0  0.946471  0  0  0.303853  0.358715  0  0.970303  0
H  H17  1  0.32540398  0.22087378  0.44848362  1  0  0.399349  0  0.881624  0  0  0.368098  0  0.960457  0  0  0.381378  0  0.946377  0  0  0.303893  0.358788  0  0.970216  0
H  H18  1  0.90569736  0.13181982  0.14759042  1  0  0.309654  0  0.91137  0  0  0.294506  0  0.975316  0  0  0.301361  0  0.970657  0  0  0.276713  0.289613  0  0.978661  0
H  H19  1  0.09428522  0.86818594  0.85240561  1  0  0.309644  0  0.911385  0  0  0.294449  0  0.975385  0  0  0.301304  0  0.970726  0  0  0.276675  0.289555  0  0.978732  0
H  H20  1  0.60399843  0.13855755  0.12321730  1  0  0.299967  0  0.933611  0  0  0.284654  0  1.000202  0  0  0.290943  0  0.996482  0  0  0.268755  0.280148  0  1.002875  0
H  H21  1  0.39599123  0.86144472  0.87678182  1  0  0.300028  0  0.933499  0  0  0.284698  0  1.000112  0  0  0.290988  0  0.99639  0  0  0.268791  0.280192  0  1.002785  0
H  H22  1  0.04013138  0.09974733  0.28577621  1  0  0.115855  0  0.938934  0  0  0.128729  0  0.99278  0  0  0.131993  0  0.9921  0  0  0.107078  0.126373  0  0.993446  0
H  H23  1  0.95985749  0.90024194  0.71422147  1  0  0.115826  0  0.938761  0  0  0.12869  0  0.992648  0  0  0.131954  0  0.99197  0  0  0.107066  0.126328  0  0.993325  0
H  H24  1  0.96877444  0.99137491  0.41376352  1  0  0.113803  0  0.94048  0  0  0.121077  0  1.004767  0  0  0.124685  0  1.001653  0  0  0.110348  0.118455  0  1.00704  0
H  H25  1  0.03122621  0.00862498  0.58623483  1  0  0.113822  0  0.940434  0  0  0.12108  0  1.004745  0  0  0.124687  0  1.00163  0  0  0.110339  0.118459  0  1.007015  0
H  H26  1  0.31186726  0.82183412  0.30957689  1  0  0.086915  0  0.989469  0  0  0.094925  0  1.056384  0  0  0.097693  0  1.054503  0  0  0.100918  0.09292  0  1.057783  0
H  H27  1  0.68812619  0.17816902  0.69042125  1  0  0.086957  0  0.989537  0  0  0.09497  0  1.056433  0  0  0.097737  0  1.054554  0  0  0.100931  0.092969  0  1.057821  0
H  H28  1  0.38518545  0.92608404  0.17984425  1  0  0.099518  0  0.992288  0  0  0.108334  0  1.05804  0  0  0.111442  0  1.056987  0  0  0.08351  0.106062  0  1.058959  0
H  H29  1  0.61480263  0.07392312  0.82015606  1  0  0.09947  0  0.992152  0  0  0.108321  0  1.057885  0  0  0.111428  0  1.056831  0  0  0.083487  0.10605  0  1.058804  0
C  C30  1  0.84650005  0.56951439  0.17997135  1  0  0.298936  0  3.788227  0  0  0.293861  0  4.036663  0  0  0.303211  0  4.058781  0  0  0.084904  0.287623  0  4.02151  0
C  C31  1  0.15349182  0.43049363  0.82002797  1  0  0.298913  0  3.788337  0  0  0.29397  0  4.036629  0  0  0.30332  0  4.058749  0  0  0.084927  0.287731  0  4.021475  0
C  C32  1  0.63951064  0.48804364  0.17132639  1  0  -0.194508  0  3.735649  0  0  -0.211037  0  3.992848  0  0  -0.218743  0  4.013441  0  0  -0.112712  -0.206075  0  3.979093  0
C  C33  1  0.36048252  0.51195888  0.82867924  1  0  -0.194606  0  3.735646  0  0  -0.2112  0  3.992841  0  0  -0.218907  0  4.013425  0  0  -0.112747  -0.206238  0  3.97909  0
C  C34  1  0.55335179  0.42834932  0.23674564  1  0  -0.046045  0  3.757034  0  0  -0.071604  0  4.010492  0  0  -0.06788  0  4.030054  0  0  -0.084354  -0.073706  0  3.997119  0
C  C35  1  0.44664496  0.57164847  0.76325426  1  0  -0.045731  0  3.756952  0  0  -0.071287  0  4.010405  0  0  -0.06756  0  4.029967  0  0  -0.084258  -0.073391  0  3.997034  0
C  C36  1  0.67150118  0.44980967  0.31110601  1  0  -0.105132  0  3.784577  0  0  -0.085241  0  4.024768  0  0  -0.097529  0  4.049997  0  0  -0.026364  -0.077321  0  4.007758  0
C  C37  1  0.32849964  0.55019575  0.68889766  1  0  -0.105188  0  3.784802  0  0  -0.085301  0  4.024989  0  0  -0.097591  0  4.050217  0  0  -0.026372  -0.077378  0  4.007979  0
C  C38  1  0.87718059  0.53293595  0.31913091  1  0  -0.017563  0  3.711441  0  0  -0.045961  0  3.965088  0  0  -0.041244  0  3.982961  0  0  -0.07073  -0.048726  0  3.952786  0
C  C39  1  0.12282714  0.46706046  0.68087054  1  0  -0.017608  0  3.711352  0  0  -0.046008  0  3.965028  0  0  -0.04129  0  3.982901  0  0  -0.070763  -0.04877  0  3.952721  0
C  C40  1  0.96313468  0.59278415  0.25392706  1  0  -0.171206  0  3.725466  0  0  -0.186514  0  3.97669  0  0  -0.194617  0  3.998937  0  0  -0.095343  -0.181264  0  3.961707  0
C  C41  1  0.03686256  0.40721983  0.74607009  1  0  -0.171246  0  3.725527  0  0  -0.186624  0  3.97673  0  0  -0.19473  0  3.998981  0  0  -0.095346  -0.181374  0  3.961747  0
C  C42  1  0.58685458  0.37848112  0.38004922  1  0  0.660401  0  3.816664  0  0  0.60776  0  4.11839  0  0  0.642147  0  4.110206  0  0  0.233896  0.584441  0  4.123432  0
C  C43  1  0.41312892  0.62151322  0.61995240  1  0  0.660407  0  3.816679  0  0  0.60778  0  4.118369  0  0  0.642172  0  4.110185  0  0  0.23379  0.584453  0  4.12342  0
C  C44  1  0.72085544  0.01472922  0.22425327  1  0  0.299802  0  3.759389  0  0  0.297206  0  4.00234  0  0  0.30673  0  4.024319  0  0  0.088302  0.290843  0  3.987272  0
C  C45  1  0.27913573  0.98527008  0.77575048  1  0  0.299598  0  3.759655  0  0  0.297042  0  4.002576  0  0  0.306566  0  4.024557  0  0  0.08831  0.29068  0  3.987504  0
C  C46  1  0.88287210  0.03538602  0.29039200  1  0  -0.177303  0  3.693588  0  0  -0.19203  0  3.942678  0  0  -0.199904  0  3.963869  0  0  -0.093673  -0.18687  0  3.92837  0
C  C47  1  0.11712663  0.96461289  0.70960626  1  0  -0.177015  0  3.693634  0  0  -0.191746  0  3.942744  0  0  -0.19962  0  3.963943  0  0  -0.093562  -0.186584  0  3.92843  0
C  C48  1  0.84132357  0.97608064  0.36265333  1  0  -0.019175  0  3.682852  0  0  -0.049417  0  3.939627  0  0  -0.045016  0  3.957193  0  0  -0.070885  -0.051987  0  3.927558  0
C  C49  1  0.15868189  0.02390992  0.63734907  1  0  -0.019386  0  3.683127  0  0  -0.049619  0  3.939954  0  0  -0.045222  0  3.957527  0  0  -0.070956  -0.052187  0  3.927881  0
C  C50  1  0.63572405  0.89705387  0.36917256  1  0  -0.102877  0  3.791136  0  0  -0.083478  0  4.032511  0  0  -0.095677  0  4.057981  0  0  -0.025124  -0.075607  0  4.015337  0
C  C51  1  0.36426699  0.10294104  0.63082648  1  0  -0.102654  0  3.791006  0  0  -0.083267  0  4.03239  0  0  -0.095462  0  4.057861  0  0  -0.025086  -0.075397  0  4.015217  0
C  C52  1  0.47156277  0.88160434  0.30292245  1  0  -0.040111  0  3.775881  0  0  -0.066427  0  4.02595  0  0  -0.063248  0  4.046423  0  0  -0.079793  -0.068162  0  4.01191  0
C  C53  1  0.52844326  0.11839257  0.69707548  1  0  -0.040349  0  3.775994  0  0  -0.06664  0  4.026066  0  0  -0.063466  0  4.046545  0  0  -0.079904  -0.06837  0  4.012023  0
C  C54  1  0.51172593  0.93987944  0.23135679  1  0  -0.18287  0  3.743309  0  0  -0.199399  0  3.994293  0  0  -0.207244  0  4.015971  0  0  -0.108222  -0.194328  0  3.979782  0
C  C55  1  0.48827635  0.06011671  0.76864097  1  0  -0.18283  0  3.743225  0  0  -0.199393  0  3.994194  0  0  -0.207239  0  4.015877  0  0  -0.10823  -0.194322  0  3.979684  0
C  C56  1  0.57884123  0.82400169  0.44180033  1  0  0.663464  0  3.801658  0  0  0.608755  0  4.105312  0  0  0.643601  0  4.096357  0  0  0.239856  0.585102  0  4.110918  0
C  C57  1  0.42117988  0.17600050  0.55820003  1  0  0.663444  0  3.801712  0  0  0.608784  0  4.105339  0  0  0.643626  0  4.096385  0  0  0.239976  0.585129  0  4.11095  0
N  N58  1  0.94051068  0.62658593  0.11323049  1  0  -0.656678  0  3.156992  0  0  -0.601897  0  3.388027  0  0  -0.62263  0  3.387275  0  0  -0.606518  -0.58729  0  3.388122  0
N  N59  1  0.05949937  0.37341851  0.88677237  1  0  -0.656498  0  3.156912  0  0  -0.601788  0  3.387947  0  0  -0.622521  0  3.3872  0  0  -0.606447  -0.587184  0  3.388042  0
N  N60  1  0.75994893  0.06713405  0.14853729  1  0  -0.666748  0  3.150402  0  0  -0.603997  0  3.376487  0  0  -0.626957  0  3.376852  0  0  -0.603013  -0.587869  0  3.375832  0
N  N61  1  0.24004248  0.93286782  0.85146421  1  0  -0.666764  0  3.150559  0  0  -0.603963  0  3.3767  0  0  -0.626924  0  3.377067  0  0  -0.603022  -0.587835  0  3.376045  0
Cl  Cl62  1  0.31030764  0.84201421  0.03882464  1  0  -0.591138  0  1.073434  0  0  -0.523482  0  1.3641  0  0  -0.541147  0  1.341629  0  0  -0.288005  -0.510749  0  1.379268  0
Cl  Cl63  1  0.68968814  0.15799695  0.96117490  1  0  -0.591137  0  1.073425  0  0  -0.523476  0  1.364066  0  0  -0.54114  0  1.341594  0  0  -0.288001  -0.510743  0  1.379236  0
Cl  Cl64  1  0.19762427  0.26150636  0.08364656  1  0  -0.596309  0  0.926468  0  0  -0.533309  0  1.17857  0  0  -0.551542  0  1.161411  0  0  -0.30568  -0.520109  0  1.19022  0
Cl  Cl65  1  0.80236362  0.73849832  0.91635486  1  0  -0.596289  0  0.926449  0  0  -0.533282  0  1.178575  0  0  -0.551514  0  1.161415  0  0  -0.305679  -0.520079  0  1.190226  0
O  O66  1  0.72688077  0.39612642  0.44525092  1  0  -0.536997  0  2.099499  0  0  -0.488834  0  2.312635  0  0  -0.510652  0  2.294498  0  0  -0.326554  -0.473716  0  2.324728  0
O  O67  1  0.27313413  0.60386359  0.55474548  1  0  -0.536954  0  2.099522  0  0  -0.488827  0  2.312577  0  0  -0.510649  0  2.294436  0  0  -0.326551  -0.47372  0  2.324697  0
O  O68  1  0.40113401  0.30638411  0.37577802  1  0  -0.576401  0  1.973709  0  0  -0.525912  0  2.190425  0  0  -0.549285  0  2.182823  0  0  -0.289683  -0.509932  0  2.195309  0
O  O69  1  0.59886834  0.69361528  0.62422387  1  0  -0.576548  0  1.973524  0  0  -0.526017  0  2.190197  0  0  -0.549389  0  2.18258  0  0  -0.289678  -0.510031  0  2.195084  0
O  O70  1  0.72877524  0.83978675  0.50527314  1  0  -0.528902  0  2.086306  0  0  -0.476665  0  2.30262  0  0  -0.498842  0  2.287609  0  0  -0.316153  -0.461228  0  2.312365  0
O  O71  1  0.27123635  0.16021170  0.49472735  1  0  -0.529042  0  2.086165  0  0  -0.476805  0  2.302389  0  0  -0.498996  0  2.287418  0  0  -0.316246  -0.46137  0  2.312135  0
O  O72  1  0.39557514  0.75023359  0.44062196  1  0  -0.567703  0  2.013484  0  0  -0.517973  0  2.233204  0  0  -0.540965  0  2.222969  0  0  -0.286582  -0.502249  0  2.239924  0
O  O73  1  0.60443595  0.24975657  0.55937776  1  0  -0.567554  0  2.013592  0  0  -0.517908  0  2.233412  0  0  -0.540891  0  2.223178  0  0  -0.286608  -0.502188  0  2.240134  0
