# generated using pymatgen
data_CdH5C6SN3Cl2
_symmetry_space_group_name_H-M   'P 1'
_cell_length_a   3.84634596
_cell_length_b   10.82887022
_cell_length_c   22.26931166
_cell_angle_alpha   90.00021628
_cell_angle_beta   90.00017597
_cell_angle_gamma   89.99984922
_symmetry_Int_Tables_number   1
_chemical_formula_structural   CdH5C6SN3Cl2
_chemical_formula_sum   'Cd4 H20 C24 S4 N12 Cl8'
_cell_volume   927.55204255
_cell_formula_units_Z   4
loop_
 _symmetry_equiv_pos_site_id
 _symmetry_equiv_pos_as_xyz
  1  'x, y, z'
loop_
 _atom_site_type_symbol
 _atom_site_label
 _atom_site_symmetry_multiplicity
 _atom_site_fract_x
 _atom_site_fract_y
 _atom_site_fract_z
 _atom_site_occupancy
 _atom_site_hle17_bader_spin_density
 _atom_site_hle17_ddec_charge
 _atom_site_hle17_ddec_spin_density
 _atom_site_hle17_ddec_sum_bond_order
 _atom_site_hle17_magmom
 _atom_site_hse06_10hf_bader_spin_density
 _atom_site_hse06_10hf_ddec_charge
 _atom_site_hse06_10hf_ddec_spin_density
 _atom_site_hse06_10hf_ddec_sum_bond_order
 _atom_site_hse06_10hf_magmom
 _atom_site_hse06_bader_spin_density
 _atom_site_hse06_ddec_charge
 _atom_site_hse06_ddec_spin_density
 _atom_site_hse06_ddec_sum_bond_order
 _atom_site_hse06_magmom
 _atom_site_pbe_bader_spin_density
 _atom_site_pbe_cm5_charge
 _atom_site_pbe_ddec_charge
 _atom_site_pbe_ddec_spin_density
 _atom_site_pbe_ddec_sum_bond_order
 _atom_site_pbe_magmom
Cd  Cd0  1  0.30303270  0.32247467  0.42760049  1  0  0.980321  0  1.961073  0  0  0.828552  0  2.414759  0  0  0.873256  0  2.374982  0  0  0.565087  0.796248  0  2.442619  0
Cd  Cd1  1  0.19696850  0.67752477  0.92760097  1  0  0.980345  0  1.960992  0  0  0.828564  0  2.414707  0  0  0.873275  0  2.374918  0  0  0.565099  0.796273  0  2.442543  0
Cd  Cd2  1  0.80303886  0.17752544  0.57239797  1  0  0.980276  0  1.961102  0  0  0.828495  0  2.414805  0  0  0.873206  0  2.375014  0  0  0.565053  0.796194  0  2.442666  0
Cd  Cd3  1  0.69696803  0.82247450  0.07239880  1  0  0.9803  0  1.961086  0  0  0.828521  0  2.414783  0  0  0.87323  0  2.374998  0  0  0.565075  0.796219  0  2.442666  0
H  H4  1  0.65634246  0.01475968  0.33245323  1  0  0.318639  0  0.903561  0  0  0.306528  0  0.962946  0  0  0.312286  0  0.959212  0  0  0.296912  0.302252  0  0.96575  0
H  H5  1  0.84365565  0.98523765  0.83245167  1  0  0.318669  0  0.903479  0  0  0.306604  0  0.962818  0  0  0.312362  0  0.959084  0  0  0.29693  0.302327  0  0.965633  0
H  H6  1  0.15634935  0.48524057  0.66754784  1  0  0.318624  0  0.903616  0  0  0.306543  0  0.962961  0  0  0.312303  0  0.959226  0  0  0.296915  0.302265  0  0.965774  0
H  H7  1  0.34365282  0.51476056  0.16754729  1  0  0.318655  0  0.903539  0  0  0.306602  0  0.962857  0  0  0.31236  0  0.959123  0  0  0.296942  0.302324  0  0.965672  0
H  H8  1  0.43182493  0.97017087  0.39541648  1  0  0.324689  0  0.905906  0  0  0.305299  0  0.977654  0  0  0.311637  0  0.972747  0  0  0.287816  0.300815  0  0.981027  0
H  H9  1  0.06817835  0.02982925  0.89541614  1  0  0.324698  0  0.905946  0  0  0.305305  0  0.977693  0  0  0.311644  0  0.972785  0  0  0.287832  0.30082  0  0.981078  0
H  H10  1  0.93182494  0.52983096  0.60458433  1  0  0.324718  0  0.905904  0  0  0.30533  0  0.977636  0  0  0.311669  0  0.972727  0  0  0.287857  0.300849  0  0.981008  0
H  H11  1  0.56817207  0.47017015  0.10458443  1  0  0.324709  0  0.905874  0  0  0.305317  0  0.977632  0  0  0.311655  0  0.972724  0  0  0.287833  0.300832  0  0.981019  0
H  H12  1  0.62261493  0.46769601  0.29790519  1  0  0.111713  0  0.980751  0  0  0.119364  0  1.049147  0  0  0.123182  0  1.047803  0  0  0.090945  0.116822  0  1.049847  0
H  H13  1  0.87737221  0.53230290  0.79790641  1  0  0.111704  0  0.980718  0  0  0.11939  0  1.049092  0  0  0.123209  0  1.047747  0  0  0.090961  0.116848  0  1.049801  0
H  H14  1  0.12263365  0.03230242  0.70209361  1  0  0.111676  0  0.980757  0  0  0.119343  0  1.049145  0  0  0.123161  0  1.047801  0  0  0.090932  0.116802  0  1.049846  0
H  H15  1  0.37737429  0.96769620  0.20209301  1  0  0.111682  0  0.980734  0  0  0.119368  0  1.049108  0  0  0.123186  0  1.047765  0  0  0.090947  0.116826  0  1.049816  0
H  H16  1  0.85997930  0.63180141  0.23057958  1  0  0.082881  0  0.96926  0  0  0.092473  0  1.035074  0  0  0.095443  0  1.032429  0  0  0.087673  0.090131  0  1.037332  0
H  H17  1  0.64001975  0.36819791  0.73057901  1  0  0.082923  0  0.969316  0  0  0.092552  0  1.035085  0  0  0.095522  0  1.032435  0  0  0.087684  0.090212  0  1.037341  0
H  H18  1  0.35999394  0.86819956  0.76942029  1  0  0.082934  0  0.969338  0  0  0.092564  0  1.035094  0  0  0.095538  0  1.032443  0  0  0.087677  0.090216  0  1.037367  0
H  H19  1  0.14001509  0.13180143  0.26942025  1  0  0.082886  0  0.969273  0  0  0.092493  0  1.035076  0  0  0.095466  0  1.032425  0  0  0.087646  0.090142  0  1.037344  0
H  H20  1  0.83051433  0.85034509  0.25484006  1  0  0.107943  0  0.95548  0  0  0.11965  0  1.015971  0  0  0.122842  0  1.015722  0  0  0.096446  0.11737  0  1.016489  0
H  H21  1  0.66949811  0.14965257  0.75483686  1  0  0.107998  0  0.955439  0  0  0.119683  0  1.015943  0  0  0.122873  0  1.015698  0  0  0.096486  0.117399  0  1.016462  0
H  H22  1  0.33051985  0.64965314  0.74516248  1  0  0.107936  0  0.955448  0  0  0.119631  0  1.015957  0  0  0.122823  0  1.015711  0  0  0.096463  0.117354  0  1.016478  0
H  H23  1  0.16948358  0.35034674  0.24516107  1  0  0.107973  0  0.955468  0  0  0.119655  0  1.015982  0  0  0.122846  0  1.015735  0  0  0.096455  0.117372  0  1.016499  0
C  C24  1  0.43952168  0.60410023  0.36261495  1  0  0.213862  0  3.813168  0  0  0.20793  0  4.058038  0  0  0.217857  0  4.078518  0  0  0.101865  0.201373  0  4.043916  0
C  C25  1  0.06047327  0.39589871  0.86261618  1  0  0.213922  0  3.812978  0  0  0.208022  0  4.057861  0  0  0.217949  0  4.078339  0  0  0.101924  0.201463  0  4.043737  0
C  C26  1  0.93952722  0.89590159  0.63738542  1  0  0.214004  0  3.813135  0  0  0.208085  0  4.05798  0  0  0.218014  0  4.078457  0  0  0.101973  0.201523  0  4.043861  0
C  C27  1  0.56047552  0.10409978  0.13738394  1  0  0.214017  0  3.81291  0  0  0.208093  0  4.057768  0  0  0.21802  0  4.078246  0  0  0.101968  0.201536  0  4.043643  0
C  C28  1  0.59738031  0.56518084  0.30881042  1  0  -0.216562  0  3.749124  0  0  -0.24044  0  4.013574  0  0  -0.250578  0  4.034222  0  0  -0.127929  -0.23375  0  3.999114  0
C  C29  1  0.90260962  0.43481815  0.80881102  1  0  -0.216565  0  3.749001  0  0  -0.24048  0  4.013453  0  0  -0.250618  0  4.034101  0  0  -0.127986  -0.233794  0  3.999003  0
C  C30  1  0.09739317  0.93482036  0.69118840  1  0  -0.216511  0  3.749221  0  0  -0.240407  0  4.013671  0  0  -0.250546  0  4.03432  0  0  -0.127945  -0.233717  0  3.999207  0
C  C31  1  0.40260939  0.06518095  0.19118839  1  0  -0.216505  0  3.749028  0  0  -0.240425  0  4.01349  0  0  -0.250563  0  4.034139  0  0  -0.12793  -0.233742  0  3.999035  0
C  C32  1  0.73053980  0.65747189  0.27230290  1  0  0.0048  0  3.783637  0  0  -0.016988  0  4.048  0  0  -0.010102  0  4.065882  0  0  -0.087711  -0.0211  0  4.035701  0
C  C33  1  0.76945472  0.34252682  0.77230236  1  0  0.004664  0  3.783698  0  0  -0.017145  0  4.048057  0  0  -0.010263  0  4.065947  0  0  -0.087725  -0.021256  0  4.035762  0
C  C34  1  0.23054877  0.84253011  0.72769734  1  0  0.004564  0  3.783838  0  0  -0.017261  0  4.048223  0  0  -0.010379  0  4.066109  0  0  -0.087775  -0.021367  0  4.035912  0
C  C35  1  0.26945179  0.15747332  0.22769743  1  0  0.004657  0  3.783623  0  0  -0.017143  0  4.047998  0  0  -0.010261  0  4.065886  0  0  -0.087734  -0.021248  0  4.035677  0
C  C36  1  0.71329189  0.78472438  0.28598148  1  0  -0.220818  0  3.720146  0  0  -0.24069  0  3.979932  0  0  -0.251906  0  4.001935  0  0  -0.116983  -0.233842  0  3.965519  0
C  C37  1  0.78671066  0.21527536  0.78597937  1  0  -0.220829  0  3.720015  0  0  -0.240675  0  3.979808  0  0  -0.25189  0  4.001806  0  0  -0.117015  -0.233824  0  3.965384  0
C  C38  1  0.21329640  0.71527672  0.71402010  1  0  -0.220732  0  3.719951  0  0  -0.240596  0  3.979764  0  0  -0.251812  0  4.001767  0  0  -0.116992  -0.233749  0  3.965354  0
C  C39  1  0.28670653  0.28472569  0.21401953  1  0  -0.220781  0  3.720047  0  0  -0.240632  0  3.979843  0  0  -0.25185  0  4.001843  0  0  -0.116972  -0.23378  0  3.965413  0
C  C40  1  0.55260457  0.82766450  0.33810208  1  0  0.28396  0  3.837453  0  0  0.272387  0  4.089967  0  0  0.284936  0  4.108693  0  0  0.109499  0.264226  0  4.076905  0
C  C41  1  0.94740142  0.17233657  0.83810133  1  0  0.283932  0  3.837351  0  0  0.272369  0  4.089913  0  0  0.284926  0  4.108624  0  0  0.10945  0.264208  0  4.076842  0
C  C42  1  0.05259817  0.67233490  0.66189896  1  0  0.283975  0  3.837405  0  0  0.272403  0  4.089914  0  0  0.284953  0  4.108641  0  0  0.109472  0.264232  0  4.076862  0
C  C43  1  0.44740131  0.32766434  0.16189901  1  0  0.283913  0  3.837452  0  0  0.272335  0  4.08999  0  0  0.284892  0  4.108705  0  0  0.109437  0.26417  0  4.076921  0
C  C44  1  0.41549330  0.73417573  0.37725449  1  0  0.073472  0  3.747201  0  0  0.077576  0  3.989265  0  0  0.076624  0  4.009025  0  0  0.106386  0.078128  0  3.975861  0
C  C45  1  0.08450448  0.26582332  0.87725460  1  0  0.073466  0  3.747239  0  0  0.07747  0  3.989502  0  0  0.076514  0  4.009259  0  0  0.106368  0.078029  0  3.976085  0
C  C46  1  0.91549180  0.76582426  0.62274631  1  0  0.073424  0  3.747177  0  0  0.07754  0  3.989242  0  0  0.076586  0  4.009  0  0  0.106404  0.078102  0  3.975829  0
C  C47  1  0.58450810  0.23417792  0.12274553  1  0  0.073523  0  3.7471  0  0  0.07763  0  3.989189  0  0  0.076674  0  4.008946  0  0  0.10644  0.078191  0  3.975767  0
S  S48  1  0.15724668  0.62651581  0.46004089  1  0  0.488122  0  3.05847  0  0  0.455302  0  3.471424  0  0  0.466942  0  3.477004  0  0  0.363407  0.446316  0  3.468067  0
S  S49  1  0.34274724  0.37348203  0.96004045  1  0  0.488098  0  3.058621  0  0  0.455292  0  3.47156  0  0  0.466934  0  3.477142  0  0  0.363413  0.446309  0  3.468199  0
S  S50  1  0.65725341  0.87348349  0.53996021  1  0  0.488091  0  3.058663  0  0  0.455268  0  3.471647  0  0  0.466908  0  3.477229  0  0  0.363408  0.446286  0  3.468287  0
S  S51  1  0.84274255  0.12651620  0.03995939  1  0  0.488155  0  3.058524  0  0  0.455326  0  3.471504  0  0  0.466967  0  3.477084  0  0  0.363409  0.446336  0  3.468156  0
N  N52  1  0.29832856  0.53396850  0.40699969  1  0  -0.471527  0  3.089889  0  0  -0.400776  0  3.377367  0  0  -0.420366  0  3.390935  0  0  -0.345393  -0.387009  0  3.367852  0
N  N53  1  0.20166710  0.46603079  0.90700068  1  0  -0.471523  0  3.089843  0  0  -0.400763  0  3.377298  0  0  -0.420354  0  3.390866  0  0  -0.345435  -0.387008  0  3.367789  0
N  N54  1  0.79833544  0.96603068  0.59299969  1  0  -0.471546  0  3.090002  0  0  -0.400799  0  3.377478  0  0  -0.420389  0  3.391048  0  0  -0.34544  -0.387038  0  3.36797  0
N  N55  1  0.70166398  0.03396757  0.09299862  1  0  -0.471623  0  3.089912  0  0  -0.400857  0  3.377371  0  0  -0.420447  0  3.390938  0  0  -0.345478  -0.387101  0  3.367875  0
N  N56  1  0.26273567  0.75682287  0.43041596  1  0  -0.378733  0  2.966289  0  0  -0.35553  0  3.270616  0  0  -0.361274  0  3.28111  0  0  -0.310626  -0.350986  0  3.263494  0
N  N57  1  0.23726817  0.24317474  0.93041612  1  0  -0.378682  0  2.966526  0  0  -0.355452  0  3.270859  0  0  -0.361202  0  3.281369  0  0  -0.310584  -0.350907  0  3.263721  0
N  N58  1  0.76273088  0.74317541  0.56958430  1  0  -0.378685  0  2.966366  0  0  -0.355477  0  3.270654  0  0  -0.361233  0  3.281178  0  0  -0.310609  -0.350931  0  3.263512  0
N  N59  1  0.73726816  0.25682636  0.06958365  1  0  -0.378809  0  2.966288  0  0  -0.355611  0  3.270606  0  0  -0.361363  0  3.281121  0  0  -0.310659  -0.35107  0  3.263486  0
N  N60  1  0.51462273  0.94855715  0.35338285  1  0  -0.626054  0  3.124491  0  0  -0.590414  0  3.35251  0  0  -0.610763  0  3.354243  0  0  -0.578223  -0.575921  0  3.350811  0
N  N61  1  0.98538091  0.05144127  0.85338190  1  0  -0.626098  0  3.124405  0  0  -0.59051  0  3.352393  0  0  -0.610865  0  3.354124  0  0  -0.578246  -0.576021  0  3.350711  0
N  N62  1  0.01461441  0.55144321  0.64661906  1  0  -0.626064  0  3.124561  0  0  -0.590483  0  3.352611  0  0  -0.610833  0  3.354346  0  0  -0.578259  -0.575993  0  3.350924  0
N  N63  1  0.48537703  0.44855960  0.14661892  1  0  -0.626065  0  3.124392  0  0  -0.590489  0  3.352352  0  0  -0.61084  0  3.354082  0  0  -0.578252  -0.576002  0  3.350672  0
Cl  Cl64  1  0.30055632  0.11257305  0.48825641  1  0  -0.557733  0  1.188772  0  0  -0.491176  0  1.497787  0  0  -0.511855  0  1.47755  0  0  -0.273767  -0.476148  0  1.511525  0
Cl  Cl65  1  0.19944326  0.88742963  0.98825729  1  0  -0.557735  0  1.188735  0  0  -0.491171  0  1.497742  0  0  -0.51185  0  1.477506  0  0  -0.273762  -0.476138  0  1.511482  0
Cl  Cl66  1  0.80055728  0.38742707  0.51174249  1  0  -0.557728  0  1.188731  0  0  -0.491173  0  1.497734  0  0  -0.511851  0  1.477498  0  0  -0.27378  -0.476146  0  1.511472  0
Cl  Cl67  1  0.69944082  0.61257240  0.01174249  1  0  -0.557713  0  1.188701  0  0  -0.491159  0  1.497725  0  0  -0.511839  0  1.477489  0  0  -0.273757  -0.47613  0  1.511462  0
Cl  Cl68  1  0.80203848  0.25341988  0.35805015  1  0  -0.518956  0  1.051436  0  0  -0.449019  0  1.340006  0  0  -0.46813  0  1.319523  0  0  -0.265375  -0.434894  0  1.354488  0
Cl  Cl69  1  0.69795744  0.74658134  0.85805166  1  0  -0.518994  0  1.051446  0  0  -0.449055  0  1.340026  0  0  -0.468167  0  1.319541  0  0  -0.265389  -0.434931  0  1.354508  0
Cl  Cl70  1  0.30204418  0.24658393  0.64194786  1  0  -0.518963  0  1.051442  0  0  -0.449018  0  1.340002  0  0  -0.46813  0  1.319518  0  0  -0.265377  -0.434893  0  1.354485  0
Cl  Cl71  1  0.19796798  0.75341793  0.14194901  1  0  -0.518975  0  1.051442  0  0  -0.44904  0  1.340022  0  0  -0.468152  0  1.319539  0  0  -0.265381  -0.434903  0  1.354516  0
