# generated using pymatgen
data_ZnH8C6S(NO2)2
_symmetry_space_group_name_H-M   'P 1'
_cell_length_a   4.83935583
_cell_length_b   4.83940569
_cell_length_c   16.48303622
_cell_angle_alpha   90.00116830
_cell_angle_beta   89.99887944
_cell_angle_gamma   95.81669255
_symmetry_Int_Tables_number   1
_chemical_formula_structural   ZnH8C6S(NO2)2
_chemical_formula_sum   'Zn2 H16 C12 S2 N4 O8'
_cell_volume   384.03865437
_cell_formula_units_Z   2
loop_
 _symmetry_equiv_pos_site_id
 _symmetry_equiv_pos_as_xyz
  1  'x, y, z'
loop_
 _atom_site_type_symbol
 _atom_site_label
 _atom_site_symmetry_multiplicity
 _atom_site_fract_x
 _atom_site_fract_y
 _atom_site_fract_z
 _atom_site_occupancy
 _atom_site_pbe_bader_spin_density
 _atom_site_pbe_cm5_charge
 _atom_site_pbe_ddec_charge
 _atom_site_pbe_ddec_spin_density
 _atom_site_pbe_ddec_sum_bond_order
 _atom_site_pbe_magmom
Zn  Zn0  1  0.05320623  0.94678144  0.74999133  1  0  0.706904  0.927444  0  2.160173  0
Zn  Zn1  1  0.94679381  0.05320175  0.25000344  1  0  0.706892  0.927358  0  2.160417  0
H  H2  1  0.16979413  0.57360259  0.85125943  1  0  0.299564  0.298251  0  0.962027  0
H  H3  1  0.83021873  0.42640780  0.35126902  1  0  0.299531  0.298246  0  0.962028  0
H  H4  1  0.42638837  0.83019784  0.64872939  1  0  0.299594  0.298215  0  0.962147  0
H  H5  1  0.57358914  0.16978511  0.14874323  1  0  0.299495  0.298184  0  0.962068  0
H  H6  1  0.83020881  0.42640967  0.14874505  1  0  0.299539  0.298273  0  0.962082  0
H  H7  1  0.16980839  0.57359827  0.64872939  1  0  0.299547  0.298193  0  0.962153  0
H  H8  1  0.57360010  0.16979363  0.35127084  1  0  0.299551  0.298322  0  0.961966  0
H  H9  1  0.42638693  0.83020634  0.85125640  1  0  0.299549  0.298242  0  0.962097  0
H  H10  1  0.76903993  0.56969633  0.93755240  1  0  0.101226  0.113366  0  1.031616  0
H  H11  1  0.23097173  0.43031538  0.43755530  1  0  0.101226  0.113427  0  1.031755  0
H  H12  1  0.43032044  0.23096073  0.56244432  1  0  0.101204  0.113388  0  1.031708  0
H  H13  1  0.56967150  0.76902924  0.06245329  1  0  0.101146  0.113131  0  1.031538  0
H  H14  1  0.23094173  0.43033044  0.06244359  1  0  0.101253  0.113476  0  1.031632  0
H  H15  1  0.76904237  0.56968444  0.56244372  1  0  0.10124  0.113422  0  1.03161  0
H  H16  1  0.56969324  0.76903494  0.43755409  1  0  0.101226  0.113367  0  1.031603  0
H  H17  1  0.43028494  0.23099334  0.93754633  1  0  0.101191  0.113358  0  1.031658  0
C  C18  1  0.86819436  0.75916331  0.96505913  1  0  -0.100021  -0.167962  0  3.972136  0
C  C19  1  0.13180809  0.24085636  0.46505906  1  0  -0.100069  -0.16813  0  3.972056  0
C  C20  1  0.24086045  0.13178837  0.53493753  1  0  -0.100008  -0.168108  0  3.97179  0
C  C21  1  0.75918473  0.86819993  0.03492957  1  0  -0.100046  -0.167846  0  3.97192  0
C  C22  1  0.13180218  0.24086763  0.03493685  1  0  -0.100044  -0.168114  0  3.971992  0
C  C23  1  0.86820457  0.75914969  0.53493571  1  0  -0.100066  -0.168128  0  3.972094  0
C  C24  1  0.75916439  0.86819485  0.46506271  1  0  -0.100033  -0.167966  0  3.97212  0
C  C25  1  0.24081986  0.13180818  0.96505428  1  0  -0.099985  -0.168008  0  3.972108  0
C  C26  1  0.10958963  0.89041496  0.93003853  1  0  0.074099  0.262724  0  4.009839  0
C  C27  1  0.89041337  0.10958796  0.43004524  1  0  0.074098  0.26272  0  4.009627  0
C  C28  1  0.10959329  0.89039939  0.56995923  1  0  0.074055  0.262744  0  4.009374  0
C  C29  1  0.89041208  0.10960561  0.06996171  1  0  0.074031  0.26262  0  4.008999  0
S  S30  1  0.64612861  0.35384582  0.74999383  1  0  0.564544  1.403812  0  6.339191  0
S  S31  1  0.35386853  0.64612905  0.25001125  1  0  0.564501  1.403752  0  6.339076  0
N  N32  1  0.21539508  0.78460821  0.85643616  1  0  -0.603021  -0.601734  0  3.408025  0
N  N33  1  0.78460076  0.21542118  0.35643808  1  0  -0.603068  -0.601791  0  3.407545  0
N  N34  1  0.21542140  0.78457658  0.64356033  1  0  -0.603058  -0.601508  0  3.407798  0
N  N35  1  0.78461117  0.21541652  0.14357742  1  0  -0.602869  -0.601509  0  3.406933  0
O  O36  1  0.76811857  0.23185799  0.82306884  1  0  -0.348739  -0.647439  0  2.212951  0
O  O37  1  0.23186242  0.76812564  0.32309197  1  0  -0.348728  -0.647413  0  2.212757  0
O  O38  1  0.76813059  0.23182845  0.67691494  1  0  -0.348791  -0.647546  0  2.212839  0
O  O39  1  0.23186741  0.76812932  0.17693746  1  0  -0.348771  -0.647476  0  2.212798  0
O  O40  1  0.33566201  0.29993679  0.74999278  1  0  -0.35945  -0.66632  0  2.37891  0
O  O41  1  0.66432832  0.70005260  0.25000745  1  0  -0.359453  -0.666303  0  2.378929  0
O  O42  1  0.70006082  0.66431301  0.74999157  1  0  -0.359507  -0.666364  0  2.378843  0
O  O43  1  0.29994500  0.33566603  0.25000563  1  0  -0.359478  -0.666368  0  2.378987  0
