# generated using pymatgen
data_BaH14C4N8O5
_symmetry_space_group_name_H-M   'P 1'
_cell_length_a   7.39322078
_cell_length_b   11.50633000
_cell_length_c   14.16733077
_cell_angle_alpha   90.00006704
_cell_angle_beta   90.00008134
_cell_angle_gamma   89.99998820
_symmetry_Int_Tables_number   1
_chemical_formula_structural   BaH14C4N8O5
_chemical_formula_sum   'Ba4 H56 C16 N32 O20'
_cell_volume   1205.19836633
_cell_formula_units_Z   4
loop_
 _symmetry_equiv_pos_site_id
 _symmetry_equiv_pos_as_xyz
  1  'x, y, z'
loop_
 _atom_site_type_symbol
 _atom_site_label
 _atom_site_symmetry_multiplicity
 _atom_site_fract_x
 _atom_site_fract_y
 _atom_site_fract_z
 _atom_site_occupancy
 _atom_site_hle17_bader_spin_density
 _atom_site_hle17_ddec_charge
 _atom_site_hle17_ddec_spin_density
 _atom_site_hle17_ddec_sum_bond_order
 _atom_site_hle17_magmom
 _atom_site_hse06_10hf_bader_spin_density
 _atom_site_hse06_10hf_ddec_charge
 _atom_site_hse06_10hf_ddec_spin_density
 _atom_site_hse06_10hf_ddec_sum_bond_order
 _atom_site_hse06_10hf_magmom
 _atom_site_hse06_bader_spin_density
 _atom_site_hse06_ddec_charge
 _atom_site_hse06_ddec_spin_density
 _atom_site_hse06_ddec_sum_bond_order
 _atom_site_hse06_magmom
 _atom_site_pbe_bader_spin_density
 _atom_site_pbe_cm5_charge
 _atom_site_pbe_ddec_charge
 _atom_site_pbe_ddec_spin_density
 _atom_site_pbe_ddec_sum_bond_order
 _atom_site_pbe_magmom
Ba  Ba0  1  0.00000490  0.08291048  0.64083000  1  0  1.578053  0  1.218073  0  0  1.412923  0  1.647022  0  0  1.450002  0  1.602459  0  0  0.921059  1.386018  0  1.678229  0
Ba  Ba1  1  0.99999887  0.91708931  0.35916868  1  0  1.57808  0  1.218044  0  0  1.412936  0  1.647018  0  0  1.450029  0  1.602431  0  0  0.921086  1.386029  0  1.678224  0
Ba  Ba2  1  0.50000683  0.41708875  0.14082861  1  0  1.578074  0  1.218049  0  0  1.412973  0  1.646951  0  0  1.450011  0  1.602454  0  0  0.921081  1.386065  0  1.678159  0
Ba  Ba3  1  0.50000235  0.58290930  0.85916937  1  0  1.578087  0  1.218038  0  0  1.412954  0  1.647  0  0  1.450058  0  1.602397  0  0  0.921067  1.386045  0  1.678206  0
H  H4  1  0.34569048  0.91608148  0.72749823  1  0  0.394765  0  0.907652  0  0  0.35841  0  0.988061  0  0  0.36812  0  0.97373  0  0  0.29736  0.351512  0  0.998235  0
H  H5  1  0.34569137  0.08391746  0.27250104  1  0  0.394772  0  0.90761  0  0  0.358418  0  0.988045  0  0  0.368128  0  0.973714  0  0  0.297366  0.351519  0  0.99822  0
H  H6  1  0.15430779  0.58391788  0.22749908  1  0  0.394731  0  0.907668  0  0  0.358373  0  0.988111  0  0  0.368083  0  0.973779  0  0  0.297344  0.351474  0  0.998285  0
H  H7  1  0.15430990  0.41608196  0.77250145  1  0  0.394766  0  0.907639  0  0  0.358412  0  0.988056  0  0  0.368122  0  0.973726  0  0  0.297366  0.351513  0  0.99823  0
H  H8  1  0.65430923  0.08391831  0.27250116  1  0  0.394773  0  0.907626  0  0  0.358418  0  0.988048  0  0  0.368128  0  0.973717  0  0  0.297372  0.351518  0  0.998223  0
H  H9  1  0.65430699  0.91608146  0.72749905  1  0  0.394741  0  0.907657  0  0  0.358386  0  0.98809  0  0  0.368096  0  0.973759  0  0  0.29736  0.351487  0  0.998264  0
H  H10  1  0.84569193  0.41608191  0.77250101  1  0  0.394769  0  0.907611  0  0  0.358413  0  0.988052  0  0  0.368123  0  0.973721  0  0  0.297357  0.351514  0  0.998226  0
H  H11  1  0.84569117  0.58391783  0.22749864  1  0  0.394753  0  0.907649  0  0  0.358398  0  0.988074  0  0  0.368108  0  0.973743  0  0  0.297366  0.351499  0  0.998248  0
H  H12  1  0.35755292  0.03503082  0.78192656  1  0  0.386451  0  0.933494  0  0  0.35  0  1.00845  0  0  0.360307  0  0.993447  0  0  0.289377  0.342758  0  1.018987  0
H  H13  1  0.35755336  0.96496985  0.21807414  1  0  0.386452  0  0.933494  0  0  0.350007  0  1.00844  0  0  0.360314  0  0.993437  0  0  0.289386  0.342765  0  1.018978  0
H  H14  1  0.14244431  0.46496948  0.28192706  1  0  0.386422  0  0.933531  0  0  0.349974  0  1.008483  0  0  0.360281  0  0.99348  0  0  0.289372  0.342732  0  1.019021  0
H  H15  1  0.14244623  0.53503123  0.71807347  1  0  0.386441  0  0.933513  0  0  0.349992  0  1.008465  0  0  0.360299  0  0.993462  0  0  0.28937  0.342749  0  1.019003  0
H  H16  1  0.64244679  0.96496896  0.21807283  1  0  0.38645  0  0.933498  0  0  0.350004  0  1.008445  0  0  0.360311  0  0.993442  0  0  0.289377  0.342761  0  1.018983  0
H  H17  1  0.64244500  0.03502994  0.78192666  1  0  0.38643  0  0.933524  0  0  0.349978  0  1.008483  0  0  0.360285  0  0.993479  0  0  0.289369  0.342736  0  1.019019  0
H  H18  1  0.85755541  0.53503118  0.71807303  1  0  0.386418  0  0.933543  0  0  0.349967  0  1.0085  0  0  0.360274  0  0.993496  0  0  0.28936  0.342724  0  1.019038  0
H  H19  1  0.85755348  0.46496943  0.28192662  1  0  0.386434  0  0.933518  0  0  0.349983  0  1.008476  0  0  0.360289  0  0.993472  0  0  0.289373  0.34274  0  1.019014  0
H  H20  1  0.11738562  0.97290426  0.91179541  1  0  0.101789  0  0.949409  0  0  0.118172  0  1.01023  0  0  0.119805  0  1.00906  0  0  0.108323  0.116908  0  1.011228  0
H  H21  1  0.11738603  0.02709645  0.08820439  1  0  0.101802  0  0.949422  0  0  0.118176  0  1.010228  0  0  0.119795  0  1.009073  0  0  0.108336  0.116911  0  1.011229  0
H  H22  1  0.38261449  0.52709536  0.41179638  1  0  0.10183  0  0.949416  0  0  0.118179  0  1.010239  0  0  0.119804  0  1.009077  0  0  0.108337  0.116917  0  1.011236  0
H  H23  1  0.38261474  0.47290357  0.58820362  1  0  0.101802  0  0.949418  0  0  0.118176  0  1.010228  0  0  0.119809  0  1.009055  0  0  0.108339  0.116911  0  1.011229  0
H  H24  1  0.88261409  0.02709640  0.08820468  1  0  0.101801  0  0.949417  0  0  0.118175  0  1.010225  0  0  0.119794  0  1.00907  0  0  0.108334  0.116911  0  1.011225  0
H  H25  1  0.88261368  0.97290421  0.91179499  1  0  0.10178  0  0.949414  0  0  0.118163  0  1.010237  0  0  0.119795  0  1.009067  0  0  0.108318  0.116899  0  1.011236  0
H  H26  1  0.61738522  0.47290443  0.58820441  1  0  0.101794  0  0.949427  0  0  0.118163  0  1.010242  0  0  0.119782  0  1.009088  0  0  0.108337  0.116899  0  1.011243  0
H  H27  1  0.61738633  0.52709621  0.41179647  1  0  0.101795  0  0.949437  0  0  0.118161  0  1.010247  0  0  0.119779  0  1.009092  0  0  0.108331  0.116897  0  1.011248  0
H  H28  1  0.11720671  0.42379843  0.56636664  1  0  0.100762  0  0.949966  0  0  0.117275  0  1.010375  0  0  0.118846  0  1.009345  0  0  0.10706  0.11611  0  1.011198  0
H  H29  1  0.11720380  0.57620227  0.43363528  1  0  0.100733  0  0.950034  0  0  0.117251  0  1.010422  0  0  0.118823  0  1.009391  0  0  0.107041  0.116086  0  1.011244  0
H  H30  1  0.38279535  0.07620156  0.06636695  1  0  0.100755  0  0.949972  0  0  0.117272  0  1.010372  0  0  0.118844  0  1.009339  0  0  0.107064  0.116107  0  1.011193  0
H  H31  1  0.38279367  0.92379824  0.93363305  1  0  0.100746  0  0.949981  0  0  0.117266  0  1.010382  0  0  0.118838  0  1.009352  0  0  0.107055  0.116101  0  1.011203  0
H  H32  1  0.88279436  0.57620222  0.43363487  1  0  0.100728  0  0.949997  0  0  0.117244  0  1.010392  0  0  0.118816  0  1.00936  0  0  0.107041  0.116078  0  1.011215  0
H  H33  1  0.88279456  0.42379751  0.56636693  1  0  0.100771  0  0.949945  0  0  0.117289  0  1.010344  0  0  0.11886  0  1.009311  0  0  0.107062  0.116124  0  1.011165  0
H  H34  1  0.61720571  0.92379823  0.93363385  1  0  0.100773  0  0.949946  0  0  0.117294  0  1.010344  0  0  0.118865  0  1.009314  0  0  0.107067  0.116129  0  1.011163  0
H  H35  1  0.61720469  0.07620154  0.06636563  1  0  0.100761  0  0.949945  0  0  0.117272  0  1.01036  0  0  0.118844  0  1.009327  0  0  0.107055  0.116107  0  1.011181  0
H  H36  1  0.34955356  0.25594308  0.70345457  1  0  0.388497  0  0.924652  0  0  0.351728  0  1.001404  0  0  0.361706  0  0.986834  0  0  0.294686  0.344682  0  1.011681  0
H  H37  1  0.34955158  0.74405759  0.29654541  1  0  0.388478  0  0.924603  0  0  0.351703  0  1.001425  0  0  0.361682  0  0.986853  0  0  0.29467  0.344658  0  1.011702  0
H  H38  1  0.15044752  0.24405710  0.20345487  1  0  0.388458  0  0.924634  0  0  0.351684  0  1.001455  0  0  0.361662  0  0.986884  0  0  0.294661  0.344638  0  1.011732  0
H  H39  1  0.15044687  0.75594360  0.79654496  1  0  0.388501  0  0.924653  0  0  0.35173  0  1.001405  0  0  0.361708  0  0.986834  0  0  0.294686  0.344683  0  1.011683  0
H  H40  1  0.65044886  0.74405757  0.29654552  1  0  0.3885  0  0.924582  0  0  0.351719  0  1.001406  0  0  0.361699  0  0.986834  0  0  0.294678  0.344674  0  1.011683  0
H  H41  1  0.65044543  0.25594306  0.70345398  1  0  0.38849  0  0.92463  0  0  0.35172  0  1.001406  0  0  0.361699  0  0.986835  0  0  0.294678  0.344674  0  1.011683  0
H  H42  1  0.84955355  0.75594442  0.79654663  1  0  0.388528  0  0.924586  0  0  0.351756  0  1.001358  0  0  0.361735  0  0.986786  0  0  0.2947  0.34471  0  1.011636  0
H  H43  1  0.84955149  0.24405706  0.20345443  1  0  0.388481  0  0.92461  0  0  0.351699  0  1.001438  0  0  0.361679  0  0.986865  0  0  0.294665  0.344653  0  1.011716  0
H  H44  1  0.35259268  0.25761513  0.59266236  1  0  0.385221  0  0.934626  0  0  0.348518  0  1.009809  0  0  0.358647  0  0.995114  0  0  0.28957  0.341404  0  1.020127  0
H  H45  1  0.35259371  0.74238555  0.40733763  1  0  0.385194  0  0.934659  0  0  0.348491  0  1.009842  0  0  0.358621  0  0.995146  0  0  0.289559  0.341377  0  1.02016  0
H  H46  1  0.14740675  0.24238490  0.09266194  1  0  0.385197  0  0.93466  0  0  0.348494  0  1.009845  0  0  0.358623  0  0.995149  0  0  0.289563  0.34138  0  1.020163  0
H  H47  1  0.14740640  0.75761493  0.90733859  1  0  0.38518  0  0.934683  0  0  0.348476  0  1.009869  0  0  0.358605  0  0.995173  0  0  0.289546  0.34136  0  1.020188  0
H  H48  1  0.64740703  0.74238553  0.40733774  1  0  0.385187  0  0.934682  0  0  0.348482  0  1.009869  0  0  0.358611  0  0.995173  0  0  0.289547  0.341367  0  1.020188  0
H  H49  1  0.64740465  0.25761511  0.59266247  1  0  0.385203  0  0.934645  0  0  0.3485  0  1.009829  0  0  0.35863  0  0.995132  0  0  0.289564  0.341385  0  1.020148  0
H  H50  1  0.85259432  0.75761575  0.90733815  1  0  0.3852  0  0.934654  0  0  0.348497  0  1.009839  0  0  0.358626  0  0.995143  0  0  0.289567  0.341382  0  1.020157  0
H  H51  1  0.85259332  0.24238573  0.09266221  1  0  0.385206  0  0.934655  0  0  0.348498  0  1.009848  0  0  0.358628  0  0.99515  0  0  0.28955  0.341383  0  1.020167  0
H  H52  1  0.66592149  0.06040879  0.47491472  1  0  0.393838  0  0.918097  0  0  0.354398  0  0.997257  0  0  0.364847  0  0.982068  0  0  0.302164  0.347036  0  1.007947  0
H  H53  1  0.66592006  0.93959185  0.52508549  1  0  0.393801  0  0.918129  0  0  0.354365  0  0.997303  0  0  0.364814  0  0.982113  0  0  0.302144  0.347003  0  1.007993  0
H  H54  1  0.83407750  0.43959173  0.97491459  1  0  0.393799  0  0.918159  0  0  0.354356  0  0.997318  0  0  0.364805  0  0.982128  0  0  0.302149  0.346993  0  1.008009  0
H  H55  1  0.83407756  0.56040715  0.02508505  1  0  0.393793  0  0.918166  0  0  0.354348  0  0.997333  0  0  0.364797  0  0.982144  0  0  0.302131  0.346987  0  1.008022  0
H  H56  1  0.33407957  0.93959100  0.52508537  1  0  0.393811  0  0.918131  0  0  0.354367  0  0.997301  0  0  0.364816  0  0.982113  0  0  0.302152  0.347006  0  1.007992  0
H  H57  1  0.33407830  0.06040707  0.47491460  1  0  0.39376  0  0.918219  0  0  0.354307  0  0.997395  0  0  0.364757  0  0.982204  0  0  0.302113  0.346945  0  1.008085  0
H  H58  1  0.16592221  0.56040719  0.02508480  1  0  0.393797  0  0.918159  0  0  0.354352  0  0.997327  0  0  0.364801  0  0.982137  0  0  0.302134  0.346991  0  1.008016  0
H  H59  1  0.16592080  0.43959264  0.97491433  1  0  0.393791  0  0.91818  0  0  0.354347  0  0.997334  0  0  0.364796  0  0.982144  0  0  0.302134  0.346985  0  1.008024  0
C  C60  1  0.00000121  0.13914755  0.92327208  1  0  0.344138  0  3.698413  0  0  0.321177  0  3.979163  0  0  0.331237  0  3.997193  0  0  0.230241  0.314467  0  3.966791  0
C  C61  1  0.99999985  0.86085224  0.07672590  1  0  0.344201  0  3.698349  0  0  0.321247  0  3.979033  0  0  0.331309  0  3.997057  0  0  0.230298  0.314537  0  3.966658  0
C  C62  1  0.50000045  0.36085295  0.42327275  1  0  0.344176  0  3.698317  0  0  0.321216  0  3.978992  0  0  0.331277  0  3.997017  0  0  0.230305  0.314507  0  3.966622  0
C  C63  1  0.49999926  0.63914770  0.57672734  1  0  0.344151  0  3.698347  0  0  0.3212  0  3.979035  0  0  0.331258  0  3.997067  0  0  0.23029  0.31449  0  3.966665  0
C  C64  1  0.99999981  0.01276229  0.94691341  1  0  -0.184196  0  3.677799  0  0  -0.227062  0  3.925654  0  0  -0.229013  0  3.936434  0  0  -0.145309  -0.225497  0  3.918106  0
C  C65  1  0.99999980  0.98723830  0.05308495  1  0  -0.184405  0  3.677955  0  0  -0.227198  0  3.925753  0  0  -0.229138  0  3.936554  0  0  -0.145436  -0.225634  0  3.918207  0
C  C66  1  0.50000046  0.48723818  0.44691453  1  0  -0.184425  0  3.677996  0  0  -0.227199  0  3.925749  0  0  -0.229136  0  3.936539  0  0  -0.145434  -0.225634  0  3.918204  0
C  C67  1  0.49999925  0.51276247  0.55308556  1  0  -0.184255  0  3.677902  0  0  -0.227069  0  3.925668  0  0  -0.22901  0  3.936453  0  0  -0.145359  -0.225505  0  3.918122  0
C  C68  1  0.00000062  0.43832606  0.51999301  1  0  -0.185521  0  3.690001  0  0  -0.228408  0  3.939051  0  0  -0.230303  0  3.949678  0  0  -0.147828  -0.226938  0  3.931667  0
C  C69  1  0.99999909  0.56167286  0.48000779  1  0  -0.185393  0  3.690037  0  0  -0.228238  0  3.938994  0  0  -0.230133  0  3.949624  0  0  -0.1478  -0.226768  0  3.931611  0
C  C70  1  0.49999861  0.06167386  0.01999269  1  0  -0.185468  0  3.689981  0  0  -0.228348  0  3.939022  0  0  -0.230242  0  3.949649  0  0  -0.147824  -0.226878  0  3.931638  0
C  C71  1  0.49999840  0.93832766  0.98000669  1  0  -0.185451  0  3.689962  0  0  -0.228342  0  3.939014  0  0  -0.230239  0  3.949646  0  0  -0.147824  -0.226872  0  3.931629  0
C  C72  1  0.00000189  0.34550927  0.44646818  1  0  0.340645  0  3.717654  0  0  0.318201  0  3.996528  0  0  0.32872  0  4.014146  0  0  0.225218  0.3112  0  3.984455  0
C  C73  1  0.00000063  0.65448971  0.55353154  1  0  0.3406  0  3.717712  0  0  0.318171  0  3.996557  0  0  0.328693  0  4.014174  0  0  0.22522  0.31117  0  3.984485  0
C  C74  1  0.49999713  0.15449040  0.94646860  1  0  0.340627  0  3.717654  0  0  0.31822  0  3.996476  0  0  0.328739  0  4.014091  0  0  0.225218  0.311219  0  3.984403  0
C  C75  1  0.49999988  0.84551026  0.05353220  1  0  0.340604  0  3.717591  0  0  0.31819  0  3.996443  0  0  0.32871  0  4.014061  0  0  0.225248  0.311189  0  3.984367  0
N  N76  1  0.99999963  0.18203686  0.83442935  1  0  -0.333888  0  2.948557  0  0  -0.299352  0  3.226557  0  0  -0.313269  0  3.24303  0  0  -0.246367  -0.289865  0  3.215242  0
N  N77  1  0.00000008  0.81796553  0.16557004  1  0  -0.333843  0  2.948183  0  0  -0.299315  0  3.226182  0  0  -0.313235  0  3.242659  0  0  -0.246333  -0.289825  0  3.214861  0
N  N78  1  0.50000034  0.31796606  0.33442960  1  0  -0.333842  0  2.948194  0  0  -0.299311  0  3.226189  0  0  -0.313225  0  3.242666  0  0  -0.246341  -0.289821  0  3.214871  0
N  N79  1  0.49999937  0.68203460  0.66557049  1  0  -0.333915  0  2.948369  0  0  -0.299401  0  3.226387  0  0  -0.313322  0  3.242861  0  0  -0.246399  -0.28991  0  3.215067  0
N  N80  1  0.99999962  0.29800434  0.84395484  1  0  -0.101623  0  3.077096  0  0  -0.069988  0  3.347325  0  0  -0.071304  0  3.359998  0  0  -0.07595  -0.068671  0  3.338607  0
N  N81  1  0.99999863  0.70199712  0.15604351  1  0  -0.101647  0  3.076812  0  0  -0.070004  0  3.347028  0  0  -0.071321  0  3.3597  0  0  -0.075982  -0.068684  0  3.338313  0
N  N82  1  0.50000037  0.20199859  0.34395569  1  0  -0.101684  0  3.076888  0  0  -0.070057  0  3.347121  0  0  -0.071373  0  3.35979  0  0  -0.075993  -0.068739  0  3.338406  0
N  N83  1  0.50000069  0.79800206  0.65604440  1  0  -0.101596  0  3.077014  0  0  -0.069958  0  3.347236  0  0  -0.071274  0  3.35991  0  0  -0.075948  -0.068641  0  3.338521  0
N  N84  1  0.99999974  0.32522855  0.93460919  1  0  -0.141908  0  3.11836  0  0  -0.100129  0  3.375561  0  0  -0.104975  0  3.387907  0  0  -0.090581  -0.096646  0  3.367215  0
N  N85  1  0.99999987  0.67477204  0.06538987  1  0  -0.141927  0  3.118158  0  0  -0.100153  0  3.375355  0  0  -0.105  0  3.387699  0  0  -0.090609  -0.096681  0  3.367027  0
N  N86  1  0.50000050  0.17477364  0.43460860  1  0  -0.142001  0  3.118187  0  0  -0.100215  0  3.375384  0  0  -0.105063  0  3.387729  0  0  -0.090634  -0.096733  0  3.367041  0
N  N87  1  0.49999921  0.82522701  0.56539149  1  0  -0.141977  0  3.118162  0  0  -0.100197  0  3.375355  0  0  -0.105045  0  3.3877  0  0  -0.090598  -0.096714  0  3.367013  0
N  N88  1  0.99999982  0.22671325  0.98626813  1  0  -0.344284  0  3.06866  0  0  -0.291166  0  3.315582  0  0  -0.305203  0  3.330204  0  0  -0.211801  -0.281643  0  3.305736  0
N  N89  1  0.00000124  0.77328828  0.01373055  1  0  -0.344289  0  3.068564  0  0  -0.291171  0  3.315475  0  0  -0.305207  0  3.330097  0  0  -0.211812  -0.281644  0  3.305629  0
N  N90  1  0.50000055  0.27328902  0.48626905  1  0  -0.344171  0  3.068393  0  0  -0.291058  0  3.315299  0  0  -0.305094  0  3.329922  0  0  -0.211762  -0.281535  0  3.305455  0
N  N91  1  0.49999916  0.72671077  0.51373104  1  0  -0.344211  0  3.068446  0  0  -0.291092  0  3.315346  0  0  -0.305127  0  3.329967  0  0  -0.211788  -0.281569  0  3.305502  0
N  N92  1  0.00000058  0.23064990  0.46596156  1  0  -0.351309  0  2.972494  0  0  -0.313258  0  3.251954  0  0  -0.327448  0  3.269223  0  0  -0.246127  -0.303612  0  3.240108  0
N  N93  1  0.99999913  0.76934902  0.53403712  1  0  -0.351343  0  2.972426  0  0  -0.313303  0  3.251906  0  0  -0.327496  0  3.269176  0  0  -0.246154  -0.303657  0  3.240062  0
N  N94  1  0.50000255  0.26934980  0.96596209  1  0  -0.35126  0  2.97245  0  0  -0.313221  0  3.251904  0  0  -0.327407  0  3.269173  0  0  -0.246106  -0.303575  0  3.240056  0
N  N95  1  0.49999987  0.73065086  0.03403800  1  0  -0.351331  0  2.972325  0  0  -0.3133  0  3.251818  0  0  -0.327493  0  3.269085  0  0  -0.246158  -0.303653  0  3.23997  0
N  N96  1  0.00000048  0.17684033  0.38182430  1  0  -0.11929  0  3.058845  0  0  -0.095038  0  3.344694  0  0  -0.097068  0  3.360738  0  0  -0.118933  -0.093199  0  3.333578  0
N  N97  1  0.00000204  0.82315778  0.61817541  1  0  -0.119248  0  3.058741  0  0  -0.095014  0  3.344617  0  0  -0.097043  0  3.360662  0  0  -0.118931  -0.093175  0  3.333503  0
N  N98  1  0.50000107  0.32315925  0.88182418  1  0  -0.119305  0  3.058766  0  0  -0.095067  0  3.344638  0  0  -0.097099  0  3.36068  0  0  -0.118945  -0.093227  0  3.33352  0
N  N99  1  0.49999999  0.67684228  0.11817662  1  0  -0.119254  0  3.058733  0  0  -0.095017  0  3.344581  0  0  -0.097042  0  3.360624  0  0  -0.118961  -0.093177  0  3.333464  0
N  N100  1  0.00000173  0.25496510  0.31382776  1  0  -0.128731  0  3.10485  0  0  -0.087866  0  3.365405  0  0  -0.092161  0  3.37871  0  0  -0.087243  -0.084769  0  3.356388  0
N  N101  1  0.00000215  0.74503301  0.68617266  1  0  -0.128735  0  3.104722  0  0  -0.087869  0  3.365265  0  0  -0.092164  0  3.378567  0  0  -0.087219  -0.084771  0  3.356247  0
N  N102  1  0.49999964  0.24503437  0.81382615  1  0  -0.128692  0  3.104847  0  0  -0.087837  0  3.365391  0  0  -0.09213  0  3.378695  0  0  -0.087245  -0.08474  0  3.356372  0
N  N103  1  0.50000007  0.75496715  0.18617394  1  0  -0.12875  0  3.104851  0  0  -0.087859  0  3.365375  0  0  -0.092152  0  3.378673  0  0  -0.087201  -0.084764  0  3.356358  0
N  N104  1  0.00000041  0.36255808  0.35245753  1  0  -0.358157  0  3.068635  0  0  -0.303612  0  3.315158  0  0  -0.31809  0  3.329577  0  0  -0.216811  -0.293814  0  3.305469  0
N  N105  1  0.00000076  0.63744003  0.64754218  1  0  -0.358119  0  3.068634  0  0  -0.303576  0  3.315133  0  0  -0.318053  0  3.32955  0  0  -0.216787  -0.293776  0  3.305444  0
N  N106  1  0.49999971  0.13744232  0.85245653  1  0  -0.358227  0  3.068719  0  0  -0.303679  0  3.315213  0  0  -0.318157  0  3.32963  0  0  -0.216821  -0.293881  0  3.305524  0
N  N107  1  0.50000000  0.86256007  0.14754356  1  0  -0.358152  0  3.068665  0  0  -0.303625  0  3.315165  0  0  -0.318103  0  3.329582  0  0  -0.216821  -0.293827  0  3.305476  0
O  O108  1  0.27418851  0.98424311  0.74613689  1  0  -0.860595  0  1.890334  0  0  -0.807054  0  2.087669  0  0  -0.82502  0  2.056869  0  0  -0.634731  -0.794283  0  2.109254  0
O  O109  1  0.27418936  0.01575584  0.25386303  1  0  -0.860604  0  1.890291  0  0  -0.807061  0  2.087631  0  0  -0.825028  0  2.056831  0  0  -0.634743  -0.79429  0  2.109216  0
O  O110  1  0.22580981  0.51575714  0.24613773  1  0  -0.860541  0  1.890307  0  0  -0.807001  0  2.087654  0  0  -0.82496  0  2.056856  0  0  -0.634701  -0.79423  0  2.109239  0
O  O111  1  0.22581050  0.48424355  0.75386286  1  0  -0.860596  0  1.890318  0  0  -0.807051  0  2.087653  0  0  -0.825021  0  2.056854  0  0  -0.63473  -0.794279  0  2.109238  0
O  O112  1  0.72581121  0.01575581  0.25386320  1  0  -0.860607  0  1.890311  0  0  -0.807061  0  2.087637  0  0  -0.825029  0  2.056836  0  0  -0.634741  -0.79429  0  2.109222  0
O  O113  1  0.72581035  0.98424308  0.74613706  1  0  -0.86057  0  1.890336  0  0  -0.807033  0  2.087696  0  0  -0.824998  0  2.056897  0  0  -0.634723  -0.794262  0  2.10928  0
O  O114  1  0.77418990  0.48424438  0.75386306  1  0  -0.860582  0  1.890327  0  0  -0.807038  0  2.087684  0  0  -0.825008  0  2.056883  0  0  -0.634715  -0.794266  0  2.10927  0
O  O115  1  0.77418922  0.51575711  0.24613723  1  0  -0.860571  0  1.890348  0  0  -0.807033  0  2.087696  0  0  -0.824992  0  2.056897  0  0  -0.634733  -0.794261  0  2.109281  0
O  O116  1  0.74840504  0.99999857  0.49999826  1  0  -0.880947  0  1.916838  0  0  -0.816724  0  2.119349  0  0  -0.83676  0  2.08828  0  0  -0.624698  -0.802507  0  2.140981  0
O  O117  1  0.75159115  0.49999937  0.99999976  1  0  -0.880956  0  1.91703  0  0  -0.816729  0  2.119535  0  0  -0.836762  0  2.088467  0  0  -0.624676  -0.802512  0  2.141167  0
O  O118  1  0.25159315  0.99999947  0.49999878  1  0  -0.880914  0  1.916968  0  0  -0.816678  0  2.119483  0  0  -0.836714  0  2.088412  0  0  -0.624654  -0.802462  0  2.141116  0
O  O119  1  0.24840857  0.49999868  0.00000033  1  0  -0.880946  0  1.917  0  0  -0.816719  0  2.119495  0  0  -0.836752  0  2.088428  0  0  -0.624661  -0.802502  0  2.141126  0
O  O120  1  0.27125879  0.24781100  0.64742352  1  0  -0.857163  0  1.888458  0  0  -0.801262  0  2.082719  0  0  -0.819406  0  2.051737  0  0  -0.636226  -0.788352  0  2.104341  0
O  O121  1  0.27125831  0.75218881  0.35257711  1  0  -0.857114  0  1.888396  0  0  -0.80121  0  2.082708  0  0  -0.819357  0  2.051724  0  0  -0.636198  -0.788302  0  2.104332  0
O  O122  1  0.22874214  0.25218823  0.14742318  1  0  -0.857105  0  1.888414  0  0  -0.801207  0  2.082726  0  0  -0.819344  0  2.051745  0  0  -0.636193  -0.788297  0  2.104348  0
O  O123  1  0.22874030  0.74781072  0.85257742  1  0  -0.85714  0  1.888484  0  0  -0.801233  0  2.082727  0  0  -0.819381  0  2.051745  0  0  -0.636201  -0.788326  0  2.104356  0
O  O124  1  0.72874363  0.75218879  0.35257728  1  0  -0.857123  0  1.88841  0  0  -0.801216  0  2.082731  0  0  -0.819363  0  2.051746  0  0  -0.63619  -0.788306  0  2.104353  0
O  O125  1  0.72874005  0.24781097  0.64742298  1  0  -0.857147  0  1.88845  0  0  -0.801244  0  2.082721  0  0  -0.819387  0  2.051738  0  0  -0.636207  -0.788336  0  2.104349  0
O  O126  1  0.77125757  0.74781068  0.85257762  1  0  -0.857169  0  1.888417  0  0  -0.801263  0  2.082685  0  0  -0.819412  0  2.0517  0  0  -0.636234  -0.788356  0  2.104313  0
O  O127  1  0.77125536  0.25218907  0.14742338  1  0  -0.857126  0  1.888406  0  0  -0.801216  0  2.082728  0  0  -0.819355  0  2.051744  0  0  -0.636188  -0.788307  0  2.104355  0
