# generated using pymatgen
data_CdH18C26N3O4
_symmetry_space_group_name_H-M   'P 1'
_cell_length_a   9.08050448
_cell_length_b   11.28150670
_cell_length_c   11.97720000
_cell_angle_alpha   77.52916078
_cell_angle_beta   82.43157097
_cell_angle_gamma   78.51251382
_symmetry_Int_Tables_number   1
_chemical_formula_structural   CdH18C26N3O4
_chemical_formula_sum   'Cd2 H36 C52 N6 O8'
_cell_volume   1168.96245951
_cell_formula_units_Z   2
loop_
 _symmetry_equiv_pos_site_id
 _symmetry_equiv_pos_as_xyz
  1  'x, y, z'
loop_
 _atom_site_type_symbol
 _atom_site_label
 _atom_site_symmetry_multiplicity
 _atom_site_fract_x
 _atom_site_fract_y
 _atom_site_fract_z
 _atom_site_occupancy
 _atom_site_hle17_bader_spin_density
 _atom_site_hle17_ddec_charge
 _atom_site_hle17_ddec_spin_density
 _atom_site_hle17_ddec_sum_bond_order
 _atom_site_hle17_magmom
 _atom_site_hse06_10hf_bader_spin_density
 _atom_site_hse06_10hf_ddec_charge
 _atom_site_hse06_10hf_ddec_spin_density
 _atom_site_hse06_10hf_ddec_sum_bond_order
 _atom_site_hse06_10hf_magmom
 _atom_site_hse06_bader_spin_density
 _atom_site_hse06_ddec_charge
 _atom_site_hse06_ddec_spin_density
 _atom_site_hse06_ddec_sum_bond_order
 _atom_site_hse06_magmom
 _atom_site_pbe_bader_charge
 _atom_site_pbe_bader_spin_density
 _atom_site_pbe_cm5_charge
 _atom_site_pbe_ddec_charge
 _atom_site_pbe_ddec_spin_density
 _atom_site_pbe_ddec_sum_bond_order
 _atom_site_pbe_magmom
Cd  Cd0  1  0.06091854  0.82651127  0.52063077  1  0  1.150472  0  1.675573  0  0  0.96858  0  2.123758  0  0  1.02749  0  2.068252  0  1.267173  0  0.775401  0.926113  0  2.162158  0
Cd  Cd1  1  0.93908210  0.17348992  0.47937026  1  0  1.1505  0  1.675568  0  0  0.968604  0  2.12376  0  0  1.027513  0  2.068256  0  1.267181  0  0.77542  0.926136  0  2.162162  0
H  H2  1  0.13784776  0.12119919  0.95610112  1  0  0.079551  0  0.960784  0  0  0.093341  0  1.018677  0  0  0.095791  0  1.018163  0  0.037768  0  0.095256  0.091822  0  1.019013  0
H  H3  1  0.86215196  0.87880109  0.04389852  1  0  0.079532  0  0.960816  0  0  0.09332  0  1.018713  0  0  0.09577  0  1.018198  0  0.037763  0  0.095248  0.0918  0  1.01905  0
H  H4  1  0.99117312  0.12689152  0.14663811  1  0  0.090487  0  0.974949  0  0  0.099258  0  1.039085  0  0  0.101295  0  1.038898  0  0.089861  0  0.096662  0.098724  0  1.037355  0
H  H5  1  0.00882771  0.87310875  0.85336142  1  0  0.090536  0  0.974926  0  0  0.099293  0  1.039081  0  0  0.101329  0  1.038894  0  0.089844  0  0.096674  0.098759  0  1.03735  0
H  H6  1  0.71708669  0.19735679  0.16031505  1  0  0.109913  0  0.96525  0  0  0.118393  0  1.028954  0  0  0.121783  0  1.027223  0  0.096798  0  0.102055  0.1159  0  1.029906  0
H  H7  1  0.28291323  0.80264256  0.83968476  1  0  0.109905  0  0.965253  0  0  0.118375  0  1.028968  0  0  0.121764  0  1.027237  0  0.096801  0  0.102042  0.115881  0  1.029921  0
H  H8  1  0.72558557  0.25264679  0.79121794  1  0  0.100253  0  0.96973  0  0  0.109628  0  1.034999  0  0  0.112338  0  1.034167  0  0.078095  0  0.098382  0.107775  0  1.035784  0
H  H9  1  0.27441344  0.74735164  0.20878298  1  0  0.100266  0  0.969688  0  0  0.109641  0  1.034958  0  0  0.112351  0  1.034127  0  0.078133  0  0.098389  0.107788  0  1.035743  0
H  H10  1  0.00341155  0.18863936  0.77739992  1  0  0.086318  0  0.950713  0  0  0.09771  0  1.008667  0  0  0.100217  0  1.007996  0  0.063977  0  0.095843  0.096029  0  1.009019  0
H  H11  1  0.99658746  0.81135907  0.22260016  1  0  0.086319  0  0.950721  0  0  0.097726  0  1.008657  0  0  0.100239  0  1.007982  0  0.063969  0  0.09584  0.096047  0  1.009007  0
H  H12  1  0.61052548  0.02079843  0.07554406  1  0  0.103268  0  0.959924  0  0  0.113476  0  1.020333  0  0  0.116634  0  1.01963  0  0.054405  0  0.10369  0.111282  0  1.020967  0
H  H13  1  0.38947444  0.97920092  0.92445575  1  0  0.103233  0  0.959882  0  0  0.11344  0  1.020297  0  0  0.116595  0  1.019601  0  0.05441  0  0.103675  0.111245  0  1.020932  0
H  H14  1  0.45281639  0.90143947  0.22516398  1  0  0.09333  0  0.956831  0  0  0.100918  0  1.024724  0  0  0.104122  0  1.022274  0  0.06429  0  0.101342  0.098476  0  1.026919  0
H  H15  1  0.54718130  0.09855988  0.77483522  1  0  0.093299  0  0.956678  0  0  0.10088  0  1.024587  0  0  0.104084  0  1.022136  0  0.064199  0  0.101303  0.09844  0  1.026779  0
H  H16  1  0.12552342  0.23197472  0.24485083  1  0  0.095687  0  0.956525  0  0  0.105289  0  1.020423  0  0  0.108331  0  1.017836  0  0.102678  0  0.10373  0.10331  0  1.02168  0
H  H17  1  0.87447670  0.76802371  0.75514831  1  0  0.095687  0  0.956548  0  0  0.105288  0  1.020441  0  0  0.10833  0  1.017854  0  0.102669  0  0.103737  0.103309  0  1.021699  0
H  H18  1  0.27948856  0.35014789  0.09306909  1  0  0.107713  0  0.946914  0  0  0.122322  0  0.997454  0  0  0.125649  0  0.996417  0  0.093598  0  0.108315  0.120123  0  0.997714  0
H  H19  1  0.72051136  0.64985146  0.90693155  1  0  0.107704  0  0.946914  0  0  0.122326  0  0.997441  0  0  0.125654  0  0.996404  0  0.093619  0  0.108304  0.120127  0  0.997702  0
H  H20  1  0.61967922  0.48180670  0.89372884  1  0  0.101698  0  0.954224  0  0  0.112631  0  1.014005  0  0  0.115687  0  1.013142  0  0.061699  0  0.102566  0.110576  0  1.014539  0
H  H21  1  0.38032070  0.51819265  0.10627097  1  0  0.101727  0  0.954191  0  0  0.112642  0  1.013993  0  0  0.1157  0  1.013129  0  0.061692  0  0.102573  0.110588  0  1.014527  0
H  H22  1  0.29590527  0.25005425  0.89399249  1  0  0.097291  0  0.972824  0  0  0.10805  0  1.034374  0  0  0.110715  0  1.034043  0  0.058746  0  0.100764  0.105706  0  1.035377  0
H  H23  1  0.70409243  0.74994510  0.10600921  1  0  0.097276  0  0.972882  0  0  0.10804  0  1.034427  0  0  0.110702  0  1.034101  0  0.058767  0  0.100758  0.105699  0  1.035429  0
H  H24  1  0.47280211  0.65025265  0.75877936  1  0  0.098845  0  0.948095  0  0  0.107527  0  1.012178  0  0  0.11077  0  1.009897  0  0.099017  0  0.102268  0.104911  0  1.014299  0
H  H25  1  0.52719801  0.34974578  0.24121978  1  0  0.098806  0  0.9481  0  0  0.107522  0  1.012153  0  0  0.110768  0  1.009869  0  0.099017  0  0.102265  0.104908  0  1.014272  0
H  H26  1  0.15087207  0.41803814  0.75929937  1  0  0.097062  0  0.947179  0  0  0.105901  0  1.009307  0  0  0.109378  0  1.006585  0  0.103279  0  0.099973  0.103472  0  1.011132  0
H  H27  1  0.84912563  0.58196121  0.24070066  1  0  0.097068  0  0.947178  0  0  0.105909  0  1.009302  0  0  0.109386  0  1.006581  0  0.103299  0  0.099998  0.10348  0  1.011127  0
H  H28  1  0.88061775  0.59975853  0.51189915  1  0  0.105505  0  0.932818  0  0  0.116289  0  0.993751  0  0  0.119246  0  0.989407  0  0.15539  0  0.140927  0.113842  0  0.997386  0
H  H29  1  0.11938339  0.40024544  0.48810044  1  0  0.105514  0  0.932754  0  0  0.116294  0  0.993694  0  0  0.119252  0  0.989351  0  0.155552  0  0.140919  0.113847  0  0.997329  0
H  H30  1  0.47714828  0.85365778  0.43724551  1  0  0.131479  0  0.974353  0  0  0.136857  0  1.039913  0  0  0.140306  0  1.037692  0  0.170384  0  0.125723  0.134019  0  1.041941  0
H  H31  1  0.52285196  0.14634526  0.56275351  1  0  0.131476  0  0.974362  0  0  0.136824  0  1.039953  0  0  0.1403  0  1.0377  0  0.170327  0  0.125725  0.133988  0  1.041977  0
H  H32  1  0.71503509  0.98139319  0.42062016  1  0  0.119769  0  0.934246  0  0  0.132875  0  0.986295  0  0  0.135398  0  0.985331  0  0.144327  0  0.126034  0.131011  0  0.987193  0
H  H33  1  0.28496494  0.01861077  0.57937953  1  0  0.11973  0  0.934266  0  0  0.132826  0  0.986335  0  0  0.135349  0  0.98537  0  0.144391  0  0.126008  0.130952  0  0.987246  0
H  H34  1  0.40979769  0.70231005  0.37719125  1  0  0.117125  0  0.975625  0  0  0.125757  0  1.040523  0  0  0.129319  0  1.037851  0  0.116292  0  0.108881  0.123082  0  1.042731  0
H  H35  1  0.59020275  0.29769207  0.62280794  1  0  0.117126  0  0.975587  0  0  0.125757  0  1.040479  0  0  0.12932  0  1.037806  0  0.116321  0  0.108885  0.123082  0  1.042687  0
H  H36  1  0.27551727  0.52948417  0.39201859  1  0  0.104103  0  0.936297  0  0  0.119216  0  0.988184  0  0  0.121782  0  0.987235  0  0.084415  0  0.11138  0.117251  0  0.989159  0
H  H37  1  0.72448316  0.47051794  0.60798060  1  0  0.104097  0  0.936294  0  0  0.119189  0  0.988212  0  0  0.121755  0  0.987261  0  0.084431  0  0.111353  0.117225  0  0.989183  0
C  C38  1  0.01640118  0.15460892  0.96105453  1  0  -0.080585  0  3.788038  0  0  -0.096772  0  4.03776  0  0  -0.100332  0  4.061937  0  -0.010568  0  -0.098496  -0.095577  0  4.022025  0
C  C39  1  0.98359763  0.84539043  0.03894622  1  0  -0.080557  0  3.78805  0  0  -0.096742  0  4.037765  0  0  -0.100302  0  4.061944  0  -0.010681  0  -0.098493  -0.095546  0  4.02203  0
C  C40  1  0.93449725  0.15662780  0.06808150  1  0  -0.053749  0  3.782994  0  0  -0.064369  0  4.028538  0  0  -0.065536  0  4.051523  0  -0.015  0  -0.092569  -0.063155  0  4.010464  0
C  C41  1  0.06550267  0.84337155  0.93191831  1  0  -0.053841  0  3.783009  0  0  -0.064456  0  4.028562  0  0  -0.065623  0  4.051546  0  -0.014971  0  -0.092604  -0.063241  0  4.010487  0
C  C42  1  0.77874247  0.19531946  0.07610198  1  0  -0.160422  0  3.745594  0  0  -0.179634  0  3.99298  0  0  -0.184306  0  4.013882  0  -0.045532  0  -0.09676  -0.174925  0  3.976884  0
C  C43  1  0.22125745  0.80467989  0.92389866  1  0  -0.160413  0  3.745642  0  0  -0.179611  0  3.993019  0  0  -0.184282  0  4.013918  0  -0.045531  0  -0.096728  -0.174902  0  3.976922  0
C  C44  1  0.78444821  0.22851892  0.86878030  1  0  -0.164533  0  3.75483  0  0  -0.18464  0  4.005195  0  0  -0.189646  0  4.027639  0  0.011142  0  -0.102569  -0.182362  0  3.990611  0
C  C45  1  0.21555080  0.77147951  0.13121978  1  0  -0.164604  0  3.754821  0  0  -0.184718  0  4.005192  0  0  -0.189724  0  4.02764  0  0.011115  0  -0.10259  -0.182439  0  3.99061  0
C  C46  1  0.94107965  0.19180833  0.86143655  1  0  -0.06369  0  3.792486  0  0  -0.072802  0  4.037243  0  0  -0.074462  0  4.06035  0  -0.101105  0  -0.096511  -0.071141  0  4.02209  0
C  C47  1  0.05891936  0.80819010  0.13856353  1  0  -0.06362  0  3.792507  0  0  -0.072744  0  4.037248  0  0  -0.07441  0  4.060361  0  -0.100993  0  -0.096475  -0.071084  0  4.022094  0
C  C48  1  0.70229695  0.22976769  0.97637977  1  0  0.182264  0  3.79944  0  0  0.176917  0  4.04728  0  0  0.183989  0  4.069274  0  0.280072  0  0.086794  0.172424  0  4.031796  0
C  C49  1  0.29770297  0.77023166  0.02362004  1  0  0.182281  0  3.799479  0  0  0.176938  0  4.047307  0  0  0.184012  0  4.069298  0  0.280067  0  0.086776  0.172445  0  4.031823  0
C  C50  1  0.45602984  0.19375711  0.07356373  1  0  0.214447  0  3.778754  0  0  0.202575  0  4.032068  0  0  0.214188  0  4.050811  0  0.389303  0  0.103843  0.195899  0  4.018098  0
C  C51  1  0.54397008  0.80624224  0.92643608  1  0  0.21442  0  3.778761  0  0  0.20253  0  4.032104  0  0  0.214145  0  4.050848  0  0.389294  0  0.1038  0.195855  0  4.018135  0
C  C52  1  0.50464842  0.06671710  0.11320338  1  0  -0.166259  0  3.756025  0  0  -0.183057  0  4.008633  0  0  -0.189822  0  4.028286  0  -0.038905  0  -0.096195  -0.179302  0  3.995483  0
C  C53  1  0.49535170  0.93328133  0.88679576  1  0  -0.166208  0  3.755933  0  0  -0.182999  0  4.008545  0  0  -0.189767  0  4.028199  0  -0.038895  0  -0.09618  -0.179245  0  3.995398  0
C  C54  1  0.41657520  0.00031450  0.19730337  1  0  -0.04312  0  3.755464  0  0  -0.068046  0  4.004924  0  0  -0.064195  0  4.024256  0  0.053542  0  -0.084135  -0.070192  0  3.992172  0
C  C55  1  0.58342381  0.99968393  0.80269588  1  0  -0.043069  0  3.755291  0  0  -0.067981  0  4.004749  0  0  -0.06413  0  4.02408  0  0.053347  0  -0.084071  -0.070129  0  3.991997  0
C  C56  1  0.27829572  0.05781798  0.24554954  1  0  -0.105003  0  3.803283  0  0  -0.083033  0  4.041245  0  0  -0.095681  0  4.067068  0  -0.082114  0  -0.034299  -0.075249  0  4.023469  0
C  C57  1  0.72170329  0.94218044  0.75444971  1  0  -0.105072  0  3.803437  0  0  -0.083105  0  4.041402  0  0  -0.09575  0  4.067227  0  -0.081761  0  -0.034377  -0.075319  0  4.023625  0
C  C58  1  0.23122167  0.18505721  0.20752023  1  0  -0.044359  0  3.758532  0  0  -0.06811  0  4.007162  0  0  -0.064356  0  4.026547  0  -0.046282  0  -0.081841  -0.069554  0  3.990966  0
C  C59  1  0.76877734  0.81494122  0.79247986  1  0  -0.044262  0  3.758676  0  0  -0.068008  0  4.007297  0  0  -0.064257  0  4.026687  0  -0.046273  0  -0.081754  -0.069453  0  3.9911  0
C  C60  1  0.31831768  0.25197260  0.12280903  1  0  -0.166222  0  3.740067  0  0  -0.183659  0  3.992892  0  0  -0.190429  0  4.012419  0  -0.076876  0  -0.094032  -0.177688  0  3.97639  0
C  C61  1  0.68168113  0.74802675  0.87719089  1  0  -0.166245  0  3.740136  0  0  -0.183688  0  3.992961  0  0  -0.190459  0  4.012491  0  -0.076924  0  -0.094038  -0.177716  0  3.97646  0
C  C62  1  0.46628278  0.35552204  0.90379721  1  0  0.200743  0  3.791993  0  0  0.192717  0  4.042651  0  0  0.202268  0  4.063009  0  0.253433  0  0.097814  0.186116  0  4.028921  0
C  C63  1  0.53371714  0.64447731  0.09620260  1  0  0.200738  0  3.791947  0  0  0.192722  0  4.042595  0  0  0.202273  0  4.062947  0  0.253439  0  0.097818  0.186118  0  4.028864  0
C  C64  1  0.51718548  0.46823714  0.86378524  1  0  -0.161706  0  3.737506  0  0  -0.183357  0  3.999156  0  0  -0.189381  0  4.019419  0  0.039384  0  -0.095896  -0.179748  0  3.98627  0
C  C65  1  0.48281464  0.53176129  0.13621473  1  0  -0.161714  0  3.737457  0  0  -0.183363  0  3.999133  0  0  -0.189383  0  4.019392  0  0.039387  0  -0.095912  -0.179751  0  3.986245  0
C  C66  1  0.33493785  0.33768599  0.86393809  1  0  -0.171714  0  3.764795  0  0  -0.189708  0  4.017394  0  0  -0.196321  0  4.038756  0  0.00562  0  -0.100616  -0.18607  0  4.004335  0
C  C67  1  0.66506076  0.66231428  0.13606250  1  0  -0.171676  0  3.764825  0  0  -0.189685  0  4.01741  0  0  -0.196291  0  4.038776  0  0.005629  0  -0.100601  -0.186046  0  4.004352  0
C  C68  1  0.43489492  0.56201866  0.78892989  1  0  -0.04796  0  3.74254  0  0  -0.074417  0  3.99827  0  0  -0.071648  0  4.01776  0  -0.05614  0  -0.083743  -0.076435  0  3.986244  0
C  C69  1  0.56510612  0.43798069  0.21106981  1  0  -0.047964  0  3.742535  0  0  -0.074449  0  3.998274  0  0  -0.07168  0  4.017766  0  -0.056162  0  -0.083752  -0.076466  0  3.986247  0
C  C70  1  0.30141469  0.54558817  0.75162893  1  0  -0.079269  0  3.771179  0  0  -0.054991  0  3.999868  0  0  -0.065729  0  4.025077  0  0.024725  0  -0.026675  -0.048815  0  3.983985  0
C  C71  1  0.69858543  0.45441025  0.24837105  1  0  -0.079264  0  3.771148  0  0  -0.055001  0  3.999852  0  0  -0.065743  0  4.025062  0  0.024717  0  -0.026702  -0.04883  0  3.98397  0
C  C72  1  0.25330527  0.43169255  0.78936199  1  0  -0.047187  0  3.753725  0  0  -0.070112  0  3.998204  0  0  -0.067506  0  4.017921  0  -0.096677  0  -0.083979  -0.071573  0  3.985487  0
C  C73  1  0.74669465  0.56830680  0.21063781  1  0  -0.047184  0  3.753663  0  0  -0.070101  0  3.998137  0  0  -0.067492  0  4.017851  0  -0.096694  0  -0.083983  -0.071561  0  3.985421  0
C  C74  1  0.21362441  0.64600185  0.67146020  1  0  0.624667  0  3.944717  0  0  0.579587  0  4.229584  0  0  0.614403  0  4.225162  0  1.506792  0  0.182886  0.555857  0  4.232202  0
C  C75  1  0.78637439  0.35399750  0.32854056  1  0  0.624691  0  3.944617  0  0  0.579642  0  4.229447  0  0  0.614459  0  4.225022  0  1.506788  0  0.182927  0.555914  0  4.232065  0
C  C76  1  0.80482111  0.68663030  0.48968685  1  0  0.173191  0  3.653065  0  0  0.111005  0  3.916897  0  0  0.125973  0  3.92887  0  0.971142  0  0.146856  0.101566  0  3.908226  0
C  C77  1  0.19517933  0.31337182  0.51031317  1  0  0.173144  0  3.653023  0  0  0.110965  0  3.916857  0  0  0.125927  0  3.928834  0  0.97111  0  0.146873  0.101525  0  3.908186  0
C  C78  1  0.59599914  0.82182054  0.44872111  1  0  -0.049475  0  3.629548  0  0  -0.087728  0  3.883728  0  0  -0.085836  0  3.901217  0  0.281314  0  0.007309  -0.088808  0  3.872348  0
C  C79  1  0.40400109  0.17818250  0.55127875  1  0  -0.049627  0  3.629714  0  0  -0.087854  0  3.883927  0  0  -0.085986  0  3.901395  0  0.281388  0  0.00724  -0.088937  0  3.872545  0
C  C80  1  0.71402533  0.88305097  0.44242450  1  0  0.00625  0  3.737004  0  0  -0.026655  0  3.998235  0  0  -0.025446  0  4.020042  0  0.385202  0  -0.000613  -0.027751  0  3.984001  0
C  C81  1  0.28597511  0.11695115  0.55757469  1  0  0.00637  0  3.737054  0  0  -0.026529  0  3.998271  0  0  -0.025318  0  4.020083  0  0.385221  0  -0.000554  -0.027613  0  3.984037  0
C  C82  1  0.57648300  0.59732277  0.49029456  1  0  0.180469  0  3.766106  0  0  0.170959  0  4.017087  0  0  0.175651  0  4.03999  0  0.291597  0  0.099647  0.167919  0  4.001257  0
C  C83  1  0.42351854  0.40267934  0.50970452  1  0  0.180333  0  3.766305  0  0  0.170837  0  4.017262  0  0  0.175523  0  4.040168  0  0.291426  0  0.099619  0.167797  0  4.001431  0
C  C84  1  0.44905745  0.61383904  0.43123936  1  0  -0.11986  0  3.716793  0  0  -0.144664  0  3.975091  0  0  -0.147721  0  3.995985  0  0.016073  0  -0.084211  -0.142591  0  3.960773  0
C  C85  1  0.55094409  0.38616308  0.56875972  1  0  -0.119759  0  3.716883  0  0  -0.14457  0  3.9752  0  0  -0.147629  0  3.996096  0  0.016271  0  -0.084194  -0.142498  0  3.960881  0
C  C86  1  0.37251502  0.51656205  0.44078721  1  0  -0.12392  0  3.745629  0  0  -0.146613  0  4.002912  0  0  -0.149722  0  4.024153  0  0.003716  0  -0.082548  -0.144338  0  3.988477  0
C  C87  1  0.62748521  0.48344099  0.55921181  1  0  -0.123961  0  3.745708  0  0  -0.146649  0  4.003015  0  0  -0.149758  0  4.024252  0  0.003688  0  -0.082504  -0.144373  0  3.988578  0
C  C88  1  0.18600810  0.98443120  0.33417195  1  0  0.644124  0  3.920046  0  0  0.591687  0  4.211055  0  0  0.628237  0  4.203994  0  1.524077  0  0.199262  0.566935  0  4.214441  0
C  C89  1  0.81399051  0.01556908  0.66582696  1  0  0.644082  0  3.920092  0  0  0.591637  0  4.211107  0  0  0.628186  0  4.204052  0  1.524073  0  0.199249  0.566883  0  4.214494  0
N  N90  1  0.65523132  0.69697464  0.47852383  1  0  -0.078413  0  3.587583  0  0  0.011087  0  3.798009  0  0  -0.00316  0  3.822861  0  -1.258996  0  -0.217971  0.020662  0  3.780647  0
N  N91  1  0.34477002  0.30302840  0.52147425  1  0  -0.078282  0  3.587701  0  0  0.011203  0  3.798108  0  0  -0.003037  0  3.822965  0  -1.259074  0  -0.21795  0.020779  0  3.780747  0
N  N92  1  0.84323164  0.79760412  0.46835226  1  0  -0.404905  0  3.297843  0  0  -0.328135  0  3.589065  0  0  -0.351004  0  3.606934  0  -1.211851  0  -0.362496  -0.312472  0  3.576667  0
N  N93  1  0.15676880  0.20239799  0.53164693  1  0  -0.404868  0  3.297871  0  0  -0.328097  0  3.589087  0  0  -0.350964  0  3.606957  0  -1.211978  0  -0.362476  -0.312433  0  3.576685  0
N  N94  1  0.54203643  0.26124709  0.98554401  1  0  -0.243593  0  3.472671  0  0  -0.16621  0  3.693544  0  0  -0.187546  0  3.717022  0  -1.250173  0  -0.250075  -0.151435  0  3.676347  0
N  N95  1  0.45796349  0.73875226  0.01445580  1  0  -0.243589  0  3.472654  0  0  -0.166199  0  3.693517  0  0  -0.187539  0  3.717001  0  -1.250183  0  -0.250034  -0.151426  0  3.676321  0
O  O96  1  0.25259298  0.75231076  0.64552161  1  0  -0.634818  0  1.918917  0  0  -0.573237  0  2.150593  0  0  -0.601698  0  2.140984  0  -1.154707  0  -0.33678  -0.553229  0  2.156436  0
O  O97  1  0.74740694  0.24768859  0.35447903  1  0  -0.634852  0  1.918876  0  0  -0.57329  0  2.150555  0  0  -0.601751  0  2.140944  0  -1.154732  0  -0.336818  -0.553283  0  2.156399  0
O  O98  1  0.10148884  0.62311076  0.62948794  1  0  -0.675414  0  1.923779  0  0  -0.616426  0  2.159591  0  0  -0.645965  0  2.149733  0  -1.167059  0  -0.353899  -0.596223  0  2.165934  0
O  O99  1  0.89851108  0.37688859  0.37051186  1  0  -0.675417  0  1.92375  0  0  -0.616437  0  2.15955  0  0  -0.645975  0  2.149691  0  -1.167041  0  -0.353898  -0.596233  0  2.165891  0
O  O100  1  0.05145730  0.03096661  0.36925473  1  0  -0.686598  0  2.056489  0  0  -0.610449  0  2.320485  0  0  -0.640841  0  2.305638  0  -1.19658  0  -0.344191  -0.58919  0  2.329575  0
O  O101  1  0.94854353  0.96903366  0.63074563  1  0  -0.686546  0  2.056449  0  0  -0.610398  0  2.320455  0  0  -0.640778  0  2.30558  0  -1.196599  0  -0.34417  -0.589139  0  2.329542  0
O  O102  1  0.24287572  0.87231651  0.37525717  1  0  -0.643253  0  2.025294  0  0  -0.573713  0  2.275539  0  0  -0.602667  0  2.264003  0  -1.170801  0  -0.322533  -0.552969  0  2.282949  0
O  O103  1  0.75712309  0.12768284  0.62474191  1  0  -0.643263  0  2.025365  0  0  -0.573704  0  2.275592  0  0  -0.602663  0  2.264063  0  -1.170809  0  -0.322532  -0.55296  0  2.283004  0
