# generated using pymatgen
data_ZnH26C34S2(NO2)2
_symmetry_space_group_name_H-M   'P 1'
_cell_length_a   12.92242871
_cell_length_b   15.72974506
_cell_length_c   16.35182285
_cell_angle_alpha   90.00008445
_cell_angle_beta   98.59950123
_cell_angle_gamma   89.99987633
_symmetry_Int_Tables_number   1
_chemical_formula_structural   ZnH26C34S2(NO2)2
_chemical_formula_sum   'Zn4 H104 C136 S8 N8 O16'
_cell_volume   3286.41098401
_cell_formula_units_Z   4
loop_
 _symmetry_equiv_pos_site_id
 _symmetry_equiv_pos_as_xyz
  1  'x, y, z'
loop_
 _atom_site_type_symbol
 _atom_site_label
 _atom_site_symmetry_multiplicity
 _atom_site_fract_x
 _atom_site_fract_y
 _atom_site_fract_z
 _atom_site_occupancy
 _atom_site_pbe_bader_charge
 _atom_site_pbe_bader_spin_density
 _atom_site_pbe_cm5_charge
 _atom_site_pbe_ddec_charge
 _atom_site_pbe_ddec_spin_density
 _atom_site_pbe_ddec_sum_bond_order
 _atom_site_pbe_magmom
Zn  Zn0  1  0.64496427  0.34668036  0.22595758  1  1.250682  0  0.693932  0.754095  0  2.372586  0
Zn  Zn1  1  0.35503182  0.84667922  0.27404305  1  1.250692  0  0.693872  0.754067  0  2.372474  0
Zn  Zn2  1  0.35503797  0.65332046  0.77404505  1  1.25076  0  0.693916  0.754071  0  2.372456  0
Zn  Zn3  1  0.64496649  0.15331906  0.72595730  1  1.250657  0  0.693883  0.75401  0  2.37259  0
H  H4  1  0.27465219  0.42209962  0.27611820  1  0.077893  0  0.099723  0.099554  0  1.030455  0
H  H5  1  0.72534524  0.92209712  0.22387536  1  0.078354  0  0.099692  0.099486  0  1.03049  0
H  H6  1  0.72535239  0.57789357  0.72388409  1  0.077998  0  0.099698  0.099512  0  1.030471  0
H  H7  1  0.27465148  0.07790053  0.77611870  1  0.077932  0  0.099672  0.099451  0  1.030418  0
H  H8  1  0.12779942  0.52907223  0.25362751  1  0.044753  0  0.091413  0.088966  0  1.03068  0
H  H9  1  0.87219978  0.02906854  0.24637181  1  0.044896  0  0.091395  0.088932  0  1.030741  0
H  H10  1  0.87220282  0.47092224  0.74637635  1  0.044897  0  0.091382  0.088947  0  1.030639  0
H  H11  1  0.12780009  0.97092783  0.75362444  1  0.044689  0  0.091394  0.088969  0  1.030721  0
H  H12  1  0.15576715  0.66355875  0.17690592  1  0.029874  0  0.098427  0.095436  0  1.004179  0
H  H13  1  0.84423722  0.16355205  0.32310031  1  0.029973  0  0.098422  0.095506  0  1.004066  0
H  H14  1  0.84423352  0.33643572  0.82309838  1  0.029971  0  0.098446  0.095475  0  1.00411  0
H  H15  1  0.15576814  0.83644114  0.67690086  1  0.029852  0  0.098402  0.095416  0  1.004111  0
H  H16  1  0.31831325  0.68861110  0.12415694  1  0.073862  0  0.098176  0.107031  0  1.059992  0
H  H17  1  0.68169029  0.18860541  0.37584923  1  0.073649  0  0.098166  0.107012  0  1.060082  0
H  H18  1  0.68168507  0.31138654  0.87584464  1  0.073839  0  0.098196  0.10707  0  1.060009  0
H  H19  1  0.31831350  0.81139096  0.62414992  1  0.073617  0  0.098169  0.107028  0  1.060035  0
H  H20  1  0.42070061  0.68933631  0.03006269  1  0.050424  0  0.090665  0.099354  0  1.023359  0
H  H21  1  0.57929898  0.18933794  0.46993751  1  0.050385  0  0.090642  0.099318  0  1.023426  0
H  H22  1  0.57929927  0.31066578  0.96993845  1  0.050385  0  0.090686  0.099349  0  1.023329  0
H  H23  1  0.42070245  0.81066352  0.53005892  1  0.050361  0  0.090682  0.099333  0  1.023399  0
H  H24  1  0.47944217  0.74096654  0.12284054  1  0.085358  0  0.101884  0.12761  0  0.998478  0
H  H25  1  0.52056356  0.24096432  0.37716044  1  0.085407  0  0.101904  0.127591  0  0.998388  0
H  H26  1  0.52056163  0.25903301  0.87716166  1  0.085385  0  0.101874  0.127548  0  0.998442  0
H  H27  1  0.47943943  0.75903587  0.62283494  1  0.085496  0  0.101879  0.127537  0  0.998442  0
H  H28  1  0.56173409  0.60310600  0.95313450  1  0.073179  0  0.09099  0.092396  0  1.053636  0
H  H29  1  0.43826344  0.10310596  0.54686270  1  0.073189  0  0.091038  0.092437  0  1.053637  0
H  H30  1  0.43826657  0.39689356  0.04686490  1  0.073145  0  0.090979  0.092378  0  1.053677  0
H  H31  1  0.56173406  0.89689232  0.45313022  1  0.073183  0  0.090968  0.092363  0  1.053713  0
H  H32  1  0.72077063  0.63126329  0.88977913  1  0.065293  0  0.090434  0.083902  0  1.044183  0
H  H33  1  0.27922681  0.13125981  0.61021504  1  0.065178  0  0.090485  0.08398  0  1.04414  0
H  H34  1  0.27923081  0.36874008  0.11022097  1  0.065245  0  0.09046  0.083915  0  1.04411  0
H  H35  1  0.72077147  0.86874037  0.38977613  1  0.065167  0  0.090479  0.083911  0  1.044071  0
H  H36  1  0.83780408  0.75231032  0.93921901  1  0.026087  0  0.091689  0.091477  0  1.036227  0
H  H37  1  0.16219388  0.25230698  0.56078029  1  0.026106  0  0.091693  0.091464  0  1.03621  0
H  H38  1  0.16219503  0.24769305  0.06078266  1  0.026099  0  0.09172  0.091512  0  1.036172  0
H  H39  1  0.83780911  0.74769385  0.43921632  1  0.026012  0  0.091685  0.09148  0  1.036196  0
H  H40  1  0.63231770  0.81911388  0.11401191  1  0.139716  0  0.098443  0.121657  0  1.042597  0
H  H41  1  0.36768080  0.31911258  0.38599080  1  0.139798  0  0.098471  0.121679  0  1.042641  0
H  H42  1  0.36768061  0.18088948  0.88598844  1  0.139768  0  0.098466  0.121679  0  1.042625  0
H  H43  1  0.63232220  0.68089015  0.61400826  1  0.13988  0  0.09847  0.121737  0  1.042565  0
H  H44  1  0.89510944  0.85300545  0.06510708  1  0.076263  0  0.091538  0.106071  0  1.006039  0
H  H45  1  0.10488899  0.35300469  0.43489690  1  0.07622  0  0.091537  0.106055  0  1.006048  0
H  H46  1  0.10488732  0.14699664  0.93489615  1  0.076209  0  0.091539  0.106075  0  1.00596  0
H  H47  1  0.89511087  0.64699614  0.56509935  1  0.076108  0  0.091535  0.106052  0  1.006037  0
H  H48  1  0.78999525  0.90131088  0.10936667  1  0.04936  0  0.096587  0.111927  0  1.007845  0
H  H49  1  0.21000306  0.40130986  0.39063614  1  0.048651  0  0.096624  0.111975  0  1.007816  0
H  H50  1  0.21000229  0.09869122  0.89063421  1  0.048885  0  0.09661  0.111973  0  1.007825  0
H  H51  1  0.78999680  0.59869351  0.60936072  1  0.048823  0  0.096615  0.111988  0  1.007818  0
H  H52  1  0.93813598  0.98345448  0.10945828  1  0.068999  0  0.098411  0.100587  0  1.02254  0
H  H53  1  0.06186681  0.48345690  0.39054210  1  0.069067  0  0.098413  0.100557  0  1.022591  0
H  H54  1  0.06186390  0.01654889  0.89054286  1  0.069071  0  0.098417  0.100555  0  1.022554  0
H  H55  1  0.93813696  0.51654774  0.60945460  1  0.069102  0  0.098444  0.100605  0  1.022596  0
H  H56  1  0.02242870  0.11804143  0.15607766  1  0.072477  0  0.102988  0.099488  0  0.989611  0
H  H57  1  0.97757577  0.61804501  0.34392607  1  0.07137  0  0.102981  0.099471  0  0.989772  0
H  H58  1  0.97757665  0.88196003  0.84392289  1  0.071378  0  0.103006  0.099456  0  0.989665  0
H  H59  1  0.02242646  0.38196090  0.65607413  1  0.07258  0  0.103019  0.099478  0  0.989754  0
H  H60  1  0.98193340  0.25124356  0.07310226  1  0.06511  0  0.091877  0.086954  0  1.033636  0
H  H61  1  0.01806529  0.75124580  0.42690466  1  0.065079  0  0.091878  0.086962  0  1.033627  0
H  H62  1  0.01806882  0.74875790  0.92689793  1  0.065045  0  0.091864  0.086932  0  1.033689  0
H  H63  1  0.98193070  0.24875757  0.57310032  1  0.065043  0  0.091863  0.086947  0  1.033703  0
H  H64  1  0.86022668  0.24311387  0.93923805  1  0.085068  0  0.100663  0.103961  0  1.02528  0
H  H65  1  0.13977289  0.74311597  0.56076814  1  0.085012  0  0.100658  0.103948  0  1.02524  0
H  H66  1  0.13977087  0.75688377  0.06076649  1  0.085035  0  0.100651  0.103933  0  1.025281  0
H  H67  1  0.86022075  0.25688295  0.43923534  1  0.084967  0  0.100646  0.103909  0  1.025255  0
H  H68  1  0.72367712  0.23182011  0.10518148  1  0.108737  0  0.109661  0.072806  0  1.028181  0
H  H69  1  0.27632471  0.73181675  0.39481783  1  0.108801  0  0.109635  0.072803  0  1.02811  0
H  H70  1  0.27632665  0.76818453  0.89481461  1  0.108607  0  0.109618  0.072816  0  1.028151  0
H  H71  1  0.72367831  0.26818471  0.60518490  1  0.108579  0  0.109646  0.072848  0  1.028035  0
H  H72  1  0.66702519  0.10182689  0.02647115  1  0.099154  0  0.103287  0.108454  0  1.051939  0
H  H73  1  0.33297147  0.60182546  0.47352615  1  0.099147  0  0.103322  0.108553  0  1.051835  0
H  H74  1  0.33297780  0.89817393  0.97352546  1  0.099214  0  0.103296  0.108478  0  1.051895  0
H  H75  1  0.66703077  0.39817664  0.52647833  1  0.099079  0  0.103302  0.108544  0  1.051815  0
H  H76  1  0.39716339  0.09412526  0.15445007  1  0.11064  0  0.111758  0.133638  0  1.008314  0
H  H77  1  0.60283564  0.59412188  0.34554749  1  0.110602  0  0.111754  0.133605  0  1.008346  0
H  H78  1  0.60283961  0.90587557  0.84554838  1  0.110581  0  0.111757  0.133629  0  1.008342  0
H  H79  1  0.39716423  0.40587513  0.65445182  1  0.110627  0  0.111758  0.133622  0  1.008332  0
H  H80  1  0.46171505  0.23010775  0.22440720  1  0.137995  0  0.118262  0.094105  0  1.014093  0
H  H81  1  0.53828522  0.73010311  0.27559192  1  0.137891  0  0.118299  0.094117  0  1.014186  0
H  H82  1  0.53828872  0.76989434  0.77559011  1  0.138079  0  0.118269  0.094107  0  1.014045  0
H  H83  1  0.46171544  0.26989390  0.72440809  1  0.138008  0  0.118268  0.094082  0  1.014096  0
H  H84  1  0.42843874  0.97522526  0.06413969  1  0.090394  0  0.103745  0.107858  0  1.029343  0
H  H85  1  0.57156173  0.47522431  0.43586225  1  0.090864  0  0.103754  0.10779  0  1.029483  0
H  H86  1  0.57156505  0.02477492  0.93586068  1  0.090826  0  0.103731  0.107815  0  1.02938  0
H  H87  1  0.42843972  0.52477397  0.56413969  1  0.090385  0  0.103749  0.107857  0  1.029368  0
H  H88  1  0.90430932  0.52521122  0.93635132  1  0.067598  0  0.10383  0.099503  0  1.025868  0
H  H89  1  0.09568528  0.02521245  0.56365033  1  0.067661  0  0.103857  0.099543  0  1.025823  0
H  H90  1  0.09568978  0.47478897  0.06365035  1  0.067592  0  0.103819  0.099493  0  1.025853  0
H  H91  1  0.90430284  0.97478965  0.43634518  1  0.067522  0  0.103782  0.099449  0  1.025802  0
H  H92  1  0.00580117  0.41447408  0.14401095  1  0.07647  0  0.109931  0.115111  0  1.004881  0
H  H93  1  0.99419711  0.91446876  0.35599187  1  0.076469  0  0.1099  0.115054  0  1.004941  0
H  H94  1  0.99420107  0.58553183  0.85599169  1  0.076583  0  0.109922  0.115129  0  1.004905  0
H  H95  1  0.00579571  0.08552889  0.64400479  1  0.076693  0  0.109979  0.115217  0  1.004743  0
H  H96  1  0.87990948  0.35423718  0.23014812  1  0.118897  0  0.121247  0.092663  0  0.983303  0
H  H97  1  0.12008817  0.85423581  0.26985454  1  0.118908  0  0.121257  0.092653  0  0.983341  0
H  H98  1  0.12009433  0.64576619  0.76985592  1  0.118846  0  0.121236  0.092608  0  0.983362  0
H  H99  1  0.87990389  0.14576056  0.73014509  1  0.119008  0  0.121267  0.092654  0  0.983265  0
H  H100  1  0.62398964  0.43690232  0.06621062  1  0.102677  0  0.118845  0.089426  0  1.027736  0
H  H101  1  0.37600543  0.93690647  0.43378697  1  0.102708  0  0.118801  0.089371  0  1.027702  0
H  H102  1  0.37600945  0.56309215  0.93378860  1  0.102682  0  0.118857  0.08946  0  1.027737  0
H  H103  1  0.62398505  0.06309499  0.56621125  1  0.102556  0  0.118822  0.089411  0  1.027652  0
H  H104  1  0.73811984  0.49816264  0.97108534  1  0.074717  0  0.10948  0.117758  0  1.032134  0
H  H105  1  0.26187517  0.99816066  0.52891397  1  0.074719  0  0.109468  0.117808  0  1.032239  0
H  H106  1  0.26188081  0.50183628  0.02891406  1  0.074671  0  0.109456  0.117737  0  1.032275  0
H  H107  1  0.73811375  0.00183699  0.47108346  1  0.074544  0  0.109508  0.117818  0  1.032169  0
C  C108  1  0.45848727  0.42657375  0.23162552  1  1.549854  0  0.19571  0.564665  0  4.219669  0
C  C109  1  0.54151488  0.92657100  0.26837410  1  1.549714  0  0.195688  0.564591  0  4.219921  0
C  C110  1  0.54151573  0.57342389  0.76837354  1  1.550127  0  0.195679  0.564672  0  4.219658  0
C  C111  1  0.45848735  0.07342791  0.73162670  1  1.549313  0  0.195659  0.564545  0  4.219729  0
C  C112  1  0.37638161  0.49349543  0.21195518  1  -0.061842  0  -0.027213  -0.091635  0  3.946901  0
C  C113  1  0.62361725  0.99349002  0.28804476  1  -0.061828  0  -0.027232  -0.091573  0  3.946959  0
C  C114  1  0.62361749  0.50650285  0.78804587  1  -0.061846  0  -0.027181  -0.091599  0  3.946845  0
C  C115  1  0.37638184  0.00650572  0.71195385  1  -0.061848  0  -0.027241  -0.091777  0  3.947032  0
C  C116  1  0.28131306  0.48062819  0.24157198  1  -0.033454  0  -0.092445  -0.09827  0  4.02423  0
C  C117  1  0.71868739  0.98062512  0.25842813  1  -0.033996  0  -0.092447  -0.098269  0  4.024345  0
C  C118  1  0.71868995  0.51936754  0.75842953  1  -0.033407  0  -0.092389  -0.098186  0  4.02391  0
C  C119  1  0.28131248  0.01936744  0.74157057  1  -0.033437  0  -0.092308  -0.097991  0  4.024103  0
C  C120  1  0.20035133  0.53961332  0.22861175  1  -0.036623  0  -0.111639  -0.124504  0  4.076037  0
C  C121  1  0.79964784  0.03960980  0.27138819  1  -0.036958  0  -0.111526  -0.12433  0  4.076012  0
C  C122  1  0.79965406  0.46038178  0.77139614  1  -0.036708  0  -0.11173  -0.124631  0  4.07591  0
C  C123  1  0.20034967  0.96038530  0.72860779  1  -0.036425  0  -0.111714  -0.124712  0  4.076055  0
C  C124  1  0.21583824  0.61429535  0.18571111  1  -0.10247  0  -0.093098  -0.06075  0  4.025307  0
C  C125  1  0.78416468  0.11429192  0.31429304  1  -0.102161  0  -0.093165  -0.06091  0  4.025299  0
C  C126  1  0.78416556  0.38569721  0.81429171  1  -0.102639  0  -0.093008  -0.060606  0  4.02519  0
C  C127  1  0.21583832  0.88570063  0.68570418  1  -0.102414  0  -0.092979  -0.06051  0  4.025072  0
C  C128  1  0.30921670  0.62851607  0.15507338  1  0.03576  0  -0.10537  -0.154237  0  4.002032  0
C  C129  1  0.69078698  0.12851349  0.34493394  1  0.036142  0  -0.105324  -0.154152  0  4.002003  0
C  C130  1  0.69078084  0.37148030  0.84492688  1  0.035344  0  -0.105329  -0.154218  0  4.002395  0
C  C131  1  0.30921838  0.87148161  0.65506967  1  0.035988  0  -0.105337  -0.154227  0  4.002303  0
C  C132  1  0.39112782  0.56856017  0.16630561  1  -0.124831  0  -0.003455  0.042333  0  3.975837  0
C  C133  1  0.60887362  0.06855582  0.33369281  1  -0.124999  0  -0.003449  0.042223  0  3.975757  0
C  C134  1  0.60887676  0.43143684  0.83369486  1  -0.124579  0  -0.00358  0.042147  0  3.976333  0
C  C135  1  0.39112624  0.93143929  0.66630467  1  -0.125009  0  -0.003535  0.042262  0  3.976066  0
C  C136  1  0.49048490  0.69143423  0.07764898  1  -0.129231  0  -0.154035  -0.253551  0  3.913733  0
C  C137  1  0.50951548  0.19143336  0.42235438  1  -0.129242  0  -0.154026  -0.253503  0  3.913833  0
C  C138  1  0.50951577  0.30856469  0.92235409  1  -0.129126  0  -0.154042  -0.253458  0  3.91374  0
C  C139  1  0.49048673  0.80856683  0.57764275  1  -0.129508  0  -0.15408  -0.253476  0  3.913795  0
C  C140  1  0.58746355  0.70861748  0.03893957  1  -0.050491  0  -0.01452  0.138344  0  3.963955  0
C  C141  1  0.41253601  0.20861748  0.46106311  1  -0.0504  0  -0.014511  0.138361  0  3.963923  0
C  C142  1  0.41253868  0.29138398  0.96106307  1  -0.050645  0  -0.014576  0.138292  0  3.964044  0
C  C143  1  0.58746464  0.79138334  0.53893323  1  -0.050041  0  -0.014574  0.138216  0  3.964085  0
C  C144  1  0.61273407  0.65611128  0.97545002  1  -0.033071  0  -0.102138  -0.149012  0  3.966942  0
C  C145  1  0.38726568  0.15611066  0.52454934  1  -0.033145  0  -0.102232  -0.14913  0  3.967045  0
C  C146  1  0.38726737  0.34389082  0.02455069  1  -0.033168  0  -0.102151  -0.149096  0  3.967036  0
C  C147  1  0.61273418  0.84389080  0.47544691  1  -0.033084  0  -0.102089  -0.148936  0  3.967158  0
C  C148  1  0.70263525  0.67166006  0.93997966  1  -0.086818  0  -0.1012  -0.076237  0  4.050529  0
C  C149  1  0.29736288  0.17165711  0.56001648  1  -0.08683  0  -0.101224  -0.076208  0  4.050398  0
C  C150  1  0.29736540  0.32834331  0.06001851  1  -0.086819  0  -0.101135  -0.076047  0  4.050195  0
C  C151  1  0.70263618  0.82834308  0.43997600  1  -0.08635  0  -0.101202  -0.07619  0  4.050393  0
C  C152  1  0.76818790  0.73939602  0.96753890  1  0.023223  0  -0.104801  -0.1537  0  3.997765  0
C  C153  1  0.23181164  0.23939314  0.53245750  1  0.023331  0  -0.104842  -0.15379  0  3.997703  0
C  C154  1  0.23181275  0.26060671  0.03245927  1  0.023257  0  -0.104873  -0.153852  0  3.99753  0
C  C155  1  0.76818900  0.76060831  0.46753700  1  0.023342  0  -0.104881  -0.153846  0  3.997623  0
C  C156  1  0.74388736  0.79304210  0.03046846  1  -0.086901  0  -0.019646  0.127398  0  4.000097  0
C  C157  1  0.25611120  0.29303921  0.46953178  1  -0.086849  0  -0.019645  0.127461  0  4.000022  0
C  C158  1  0.25611173  0.20696254  0.96952954  1  -0.086718  0  -0.01967  0.127452  0  3.99997  0
C  C159  1  0.74389023  0.70696225  0.53046527  1  -0.087786  0  -0.019641  0.127544  0  4.000013  0
C  C160  1  0.65328275  0.77726636  0.06571258  1  -0.042666  0  -0.092503  -0.190433  0  3.884718  0
C  C161  1  0.34671899  0.27726771  0.43429044  1  -0.042799  0  -0.092507  -0.19043  0  3.884654  0
C  C162  1  0.34672027  0.22273510  0.93428892  1  -0.042656  0  -0.092477  -0.190383  0  3.884653  0
C  C163  1  0.65328166  0.72273375  0.56570651  1  -0.042369  0  -0.092505  -0.190457  0  3.884668  0
C  C164  1  0.81152188  0.86983796  0.05440330  1  -0.144175  0  -0.152911  -0.255259  0  3.943084  0
C  C165  1  0.18847728  0.36983833  0.44559956  1  -0.143423  0  -0.152922  -0.25528  0  3.943033  0
C  C166  1  0.18847722  0.13016414  0.94559775  1  -0.143754  0  -0.152956  -0.255397  0  3.943035  0
C  C167  1  0.81152180  0.63016630  0.55439904  1  -0.143494  0  -0.152893  -0.255307  0  3.942972  0
C  C168  1  0.84923295  0.03500693  0.99758906  1  -0.235113  0  -0.001702  0.043619  0  3.988639  0
C  C169  1  0.15076945  0.53500701  0.50241105  1  -0.235322  0  -0.001721  0.043518  0  3.988739  0
C  C170  1  0.15076928  0.96499389  0.00241236  1  -0.235247  0  -0.00172  0.043507  0  3.988836  0
C  C171  1  0.84922651  0.46499127  0.49758719  1  -0.235212  0  -0.00176  0.043575  0  3.988748  0
C  C172  1  0.91946749  0.04018234  0.07209079  1  0.00805  0  -0.099157  -0.14167  0  3.99954  0
C  C173  1  0.08053325  0.54018320  0.42791056  1  0.008013  0  -0.099185  -0.141644  0  3.999659  0
C  C174  1  0.08053943  0.95982039  0.92791056  1  0.007793  0  -0.099231  -0.141776  0  3.999709  0
C  C175  1  0.91946428  0.45982208  0.57208787  1  0.007741  0  -0.099188  -0.141747  0  3.999754  0
C  C176  1  0.96716875  0.11672902  0.09867656  1  -0.111038  0  -0.088358  -0.067407  0  4.042083  0
C  C177  1  0.03283103  0.61672928  0.40132785  1  -0.109777  0  -0.088301  -0.067291  0  4.042406  0
C  C178  1  0.03283192  0.88327435  0.90132712  1  -0.109305  0  -0.088328  -0.067186  0  4.042108  0
C  C179  1  0.96716493  0.38327472  0.59867285  1  -0.110371  0  -0.088321  -0.067253  0  4.042288  0
C  C180  1  0.94580389  0.19096097  0.05201010  1  0.009557  0  -0.110241  -0.118128  0  4.063328  0
C  C181  1  0.05419572  0.69096190  0.44799561  1  0.009235  0  -0.110262  -0.118203  0  4.063614  0
C  C182  1  0.05419757  0.80904303  0.94799428  1  0.009145  0  -0.110215  -0.118156  0  4.063557  0
C  C183  1  0.94580025  0.30903955  0.55200692  1  0.009241  0  -0.110275  -0.118251  0  4.063435  0
C  C184  1  0.87824127  0.18669021  0.97744476  1  -0.152819  0  -0.091273  -0.090737  0  3.998327  0
C  C185  1  0.12175454  0.68669038  0.52256459  1  -0.152752  0  -0.091274  -0.090784  0  3.998306  0
C  C186  1  0.12175941  0.81330680  0.02255954  1  -0.152972  0  -0.091222  -0.090695  0  3.998167  0
C  C187  1  0.87823910  0.31330981  0.47744072  1  -0.152726  0  -0.091153  -0.090534  0  3.99809  0
C  C188  1  0.83025101  0.11005326  0.94892915  1  0.079213  0  -0.032403  -0.101324  0  3.979878  0
C  C189  1  0.16974731  0.61005021  0.55107427  1  0.07982  0  -0.032364  -0.1012  0  3.979751  0
C  C190  1  0.16975201  0.88994947  0.05107480  1  0.079708  0  -0.032408  -0.101236  0  3.979765  0
C  C191  1  0.83024162  0.38994680  0.44892622  1  0.079363  0  -0.032477  -0.101411  0  3.980047  0
C  C192  1  0.75904902  0.10795660  0.86858613  1  1.525341  0  0.187382  0.538703  0  4.24873  0
C  C193  1  0.24095399  0.60795863  0.63141538  1  1.525255  0  0.187362  0.538716  0  4.248975  0
C  C194  1  0.24095008  0.89204295  0.13141492  1  1.52525  0  0.187314  0.538604  0  4.249045  0
C  C195  1  0.75904355  0.39204283  0.36858611  1  1.525244  0  0.187322  0.538664  0  4.249035  0
C  C196  1  0.65037250  0.20072241  0.11296770  1  0.399122  0  0.037506  0.084626  0  3.973505  0
C  C197  1  0.34963253  0.70072018  0.38702887  1  0.399204  0  0.03758  0.084772  0  3.973602  0
C  C198  1  0.34963440  0.79927969  0.88702814  1  0.399482  0  0.037582  0.084646  0  3.973614  0
C  C199  1  0.65036892  0.29928128  0.61297184  1  0.399424  0  0.037503  0.084596  0  3.973655  0
C  C200  1  0.61810788  0.12813953  0.06890699  1  -0.020677  0  -0.080228  -0.158355  0  3.899185  0
C  C201  1  0.38189342  0.62813795  0.43109211  1  -0.020698  0  -0.080274  -0.15852  0  3.89929  0
C  C202  1  0.38189433  0.87186256  0.93109015  1  -0.020675  0  -0.080254  -0.158359  0  3.899311  0
C  C203  1  0.61810883  0.37186287  0.56891237  1  -0.020633  0  -0.08025  -0.158477  0  3.899318  0
C  C204  1  0.52445447  0.08803853  0.08152706  1  -0.004863  0  0.019504  0.17016  0  3.977466  0
C  C205  1  0.47554458  0.58803867  0.41847294  1  -0.004857  0  0.019454  0.170064  0  3.977465  0
C  C206  1  0.47554776  0.91196293  0.91847496  1  -0.004884  0  0.019484  0.170104  0  3.977556  0
C  C207  1  0.52445610  0.41196152  0.58153136  1  -0.004888  0  0.01952  0.170115  0  3.977475  0
C  C208  1  0.46859576  0.12402014  0.14049456  1  1.6e-05  0  -0.073872  -0.166078  0  3.889772  0
C  C209  1  0.53140556  0.62401818  0.35950698  1  -2.7e-05  0  -0.073868  -0.165963  0  3.889837  0
C  C210  1  0.53140804  0.87598069  0.85950704  1  -7.1e-05  0  -0.07387  -0.166064  0  3.889844  0
C  C211  1  0.46859668  0.37598137  0.64049627  1  2.6e-05  0  -0.07391  -0.166102  0  3.889906  0
C  C212  1  0.50447009  0.19852293  0.18039377  1  0.478657  0  0.047754  0.097051  0  3.93901  0
C  C213  1  0.49553105  0.69851716  0.31960785  1  0.478776  0  0.047723  0.096997  0  3.939193  0
C  C214  1  0.49553291  0.80148234  0.81960407  1  0.478534  0  0.047733  0.097005  0  3.939176  0
C  C215  1  0.50446963  0.30148112  0.68039705  1  0.478521  0  0.047782  0.097128  0  3.93891  0
C  C216  1  0.48546515  0.01219878  0.03626101  1  -0.061896  0  -0.075652  -0.115442  0  3.939241  0
C  C217  1  0.51453880  0.51219764  0.46374250  1  0.034971  0  -0.075636  -0.115283  0  3.939126  0
C  C218  1  0.51453786  0.98780268  0.96373927  1  0.034828  0  -0.07556  -0.115298  0  3.9391  0
C  C219  1  0.48546344  0.48780254  0.53625953  1  -0.062072  0  -0.075564  -0.11533  0  3.939093  0
C  C220  1  0.94722622  0.49860367  0.99318994  1  -0.117019  0  -0.077284  -0.111892  0  3.954218  0
C  C221  1  0.05276958  0.99860266  0.50680945  1  -0.116608  0  -0.077308  -0.11198  0  3.954292  0
C  C222  1  0.05277523  0.50139969  0.00681077  1  0.040209  0  -0.077208  -0.111804  0  3.954194  0
C  C223  1  0.94721932  0.00140134  0.49318369  1  0.040163  0  -0.077256  -0.111868  0  3.954067  0
C  C224  1  0.88213172  0.46170032  0.04891603  1  -0.0477  0  0.014187  0.156544  0  4.00945  0
C  C225  1  0.11786096  0.96170114  0.45108621  1  -0.04171  0  0.014235  0.156629  0  4.009452  0
C  C226  1  0.11786816  0.53829987  0.95108511  1  -0.047369  0  0.01419  0.156544  0  4.009566  0
C  C227  1  0.88212717  0.03829778  0.54891174  1  -0.047364  0  0.014286  0.156785  0  4.009308  0
C  C228  1  0.92186459  0.42056680  0.12361651  1  0.011804  0  -0.079428  -0.174492  0  3.937842  0
C  C229  1  0.07812976  0.92056441  0.37638587  1  0.00518  0  -0.079363  -0.174373  0  3.937735  0
C  C230  1  0.07813687  0.57943910  0.87638788  1  0.011833  0  -0.079433  -0.174521  0  3.937632  0
C  C231  1  0.92185838  0.07943197  0.62361208  1  0.01137  0  -0.079451  -0.17464  0  3.937629  0
C  C232  1  0.85274264  0.38694334  0.17202686  1  0.430809  0  0.046992  0.087257  0  3.970947  0
C  C233  1  0.14725570  0.88694266  0.32797287  1  0.430925  0  0.046913  0.087154  0  3.970827  0
C  C234  1  0.14726194  0.61305939  0.82797360  1  0.430788  0  0.047076  0.087367  0  3.970644  0
C  C235  1  0.85273791  0.11305626  0.67202388  1  0.43089  0  0.047025  0.087361  0  3.970543  0
C  C236  1  0.70896150  0.43204013  0.07998725  1  0.502987  0  0.057839  0.106853  0  3.916176  0
C  C237  1  0.29103594  0.93204123  0.42001183  1  0.502707  0  0.057833  0.106879  0  3.916218  0
C  C238  1  0.29104151  0.56796070  0.92001365  1  0.502964  0  0.057764  0.106704  0  3.916218  0
C  C239  1  0.70895689  0.06796023  0.57998727  1  0.503394  0  0.057863  0.106833  0  3.916193  0
C  C240  1  0.77292211  0.46683208  0.02788281  1  0.040181  0  -0.074373  -0.158896  0  3.904966  0
C  C241  1  0.22707604  0.96683528  0.47211885  1  0.040568  0  -0.074328  -0.158956  0  3.90495  0
C  C242  1  0.22708090  0.53316557  0.97211808  1  0.040144  0  -0.074333  -0.15887  0  3.904949  0
C  C243  1  0.77291366  0.03316681  0.52787806  1  0.039799  0  -0.074506  -0.15912  0  3.904881  0
S  S244  1  0.50937930  0.58684514  0.12761053  1  0.127397  0  0.022799  0.031722  0  2.798958  0
S  S245  1  0.49062135  0.08684296  0.37239454  1  0.127374  0  0.022841  0.031812  0  2.798975  0
S  S246  1  0.49061745  0.41315441  0.87239025  1  0.127366  0  0.022843  0.031778  0  2.79877  0
S  S247  1  0.50938088  0.91315659  0.62760565  1  0.127247  0  0.022849  0.031784  0  2.798912  0
S  S248  1  0.78357968  0.94066881  0.96465003  1  0.167122  0  0.037777  0.049092  0  2.875355  0
S  S249  1  0.21642018  0.44066788  0.53535404  1  0.167038  0  0.037762  0.049091  0  2.875283  0
S  S250  1  0.21642254  0.05933328  0.03535016  1  0.167132  0  0.03779  0.049167  0  2.875355  0
S  S251  1  0.78357657  0.55933167  0.46464613  1  0.167085  0  0.037782  0.0491  0  2.875134  0
N  N252  1  0.59421505  0.23657178  0.16733846  1  -1.267111  0  -0.33573  -0.242118  0  3.583536  0
N  N253  1  0.40578678  0.73656873  0.33266391  1  -1.267125  0  -0.335771  -0.242251  0  3.583759  0
N  N254  1  0.40578795  0.76343095  0.83265937  1  -1.267153  0  -0.335803  -0.2422  0  3.58374  0
N  N255  1  0.59421545  0.26343082  0.66733873  1  -1.267083  0  -0.335772  -0.242172  0  3.583596  0
N  N256  1  0.74807432  0.39216728  0.15068987  1  -1.237549  0  -0.32921  -0.224767  0  3.559039  0
N  N257  1  0.25192480  0.89216580  0.34931240  1  -1.23753  0  -0.329142  -0.224647  0  3.558941  0
N  N258  1  0.25192792  0.60783418  0.84931338  1  -1.237612  0  -0.329205  -0.224676  0  3.558999  0
N  N259  1  0.74806882  0.10783120  0.65068740  1  -1.237414  0  -0.329262  -0.224749  0  3.559014  0
O  O260  1  0.44996387  0.36854552  0.28280484  1  -1.183237  0  -0.323013  -0.556538  0  2.139106  0
O  O261  1  0.55002983  0.86854332  0.21719800  1  -1.183129  0  -0.322955  -0.556384  0  2.139454  0
O  O262  1  0.55003759  0.63145085  0.71719832  1  -1.183465  0  -0.322999  -0.556503  0  2.139244  0
O  O263  1  0.44997085  0.13145051  0.78280568  1  -1.182645  0  -0.322937  -0.556307  0  2.139443  0
O  O264  1  0.53738771  0.43346505  0.19157516  1  -1.150964  0  -0.317795  -0.534237  0  2.443444  0
O  O265  1  0.46260583  0.93346632  0.30842714  1  -1.15097  0  -0.317838  -0.534368  0  2.443269  0
O  O266  1  0.46261061  0.56653386  0.80842519  1  -1.150953  0  -0.317768  -0.534255  0  2.443349  0
O  O267  1  0.53739247  0.06653450  0.69157015  1  -1.151  0  -0.317801  -0.534305  0  2.443162  0
O  O268  1  0.72253576  0.03843737  0.83981312  1  -1.147758  0  -0.303266  -0.513353  0  2.20703  0
O  O269  1  0.27747134  0.53844191  0.66019182  1  -1.147855  0  -0.303305  -0.513449  0  2.207076  0
O  O270  1  0.27747273  0.96156028  0.16018719  1  -1.14782  0  -0.303249  -0.513353  0  2.206957  0
O  O271  1  0.72252228  0.46155764  0.33980982  1  -1.147826  0  -0.303184  -0.513292  0  2.207065  0
O  O272  1  0.73759409  0.18023875  0.83057685  1  -1.16776  0  -0.337407  -0.557219  0  2.328049  0
O  O273  1  0.26241030  0.68024207  0.66942248  1  -1.167866  0  -0.33738  -0.55715  0  2.32803  0
O  O274  1  0.26240735  0.81976016  0.16942325  1  -1.167787  0  -0.337366  -0.557134  0  2.328176  0
O  O275  1  0.73758801  0.31975748  0.33057543  1  -1.167829  0  -0.337434  -0.557214  0  2.328053  0
