# generated using pymatgen
data_KH7C7N2O5
_symmetry_space_group_name_H-M   'P 1'
_cell_length_a   7.42295235
_cell_length_b   11.11189702
_cell_length_c   11.71523553
_cell_angle_alpha   109.83850138
_cell_angle_beta   90.00008156
_cell_angle_gamma   89.99971434
_symmetry_Int_Tables_number   1
_chemical_formula_structural   KH7C7N2O5
_chemical_formula_sum   'K4 H28 C28 N8 O20'
_cell_volume   908.96114486
_cell_formula_units_Z   4
loop_
 _symmetry_equiv_pos_site_id
 _symmetry_equiv_pos_as_xyz
  1  'x, y, z'
loop_
 _atom_site_type_symbol
 _atom_site_label
 _atom_site_symmetry_multiplicity
 _atom_site_fract_x
 _atom_site_fract_y
 _atom_site_fract_z
 _atom_site_occupancy
 _atom_site_hle17_bader_spin_density
 _atom_site_hle17_ddec_charge
 _atom_site_hle17_ddec_spin_density
 _atom_site_hle17_ddec_sum_bond_order
 _atom_site_hle17_magmom
 _atom_site_hse06_10hf_bader_spin_density
 _atom_site_hse06_10hf_ddec_charge
 _atom_site_hse06_10hf_ddec_spin_density
 _atom_site_hse06_10hf_ddec_sum_bond_order
 _atom_site_hse06_10hf_magmom
 _atom_site_hse06_bader_spin_density
 _atom_site_hse06_ddec_charge
 _atom_site_hse06_ddec_spin_density
 _atom_site_hse06_ddec_sum_bond_order
 _atom_site_hse06_magmom
 _atom_site_pbe_bader_spin_density
 _atom_site_pbe_cm5_charge
 _atom_site_pbe_ddec_charge
 _atom_site_pbe_ddec_spin_density
 _atom_site_pbe_ddec_sum_bond_order
 _atom_site_pbe_magmom
K  K0  1  0.97022940  0.54628699  0.20514807  1  0  0.927875  0  0.468675  0  0  0.880415  0  0.658669  0  0  0.89502  0  0.633513  0  0  0.790151  0.869127  0  0.677156  0
K  K1  1  0.47023202  0.45371453  0.29485429  1  0  0.927876  0  0.468653  0  0  0.880414  0  0.658649  0  0  0.895019  0  0.633493  0  0  0.790151  0.869131  0  0.677134  0
K  K2  1  0.02976768  0.45371087  0.79485229  1  0  0.9279  0  0.468673  0  0  0.880424  0  0.658686  0  0  0.895027  0  0.633534  0  0  0.790132  0.86911  0  0.677175  0
K  K3  1  0.52976505  0.54628716  0.70514731  1  0  0.927884  0  0.468663  0  0  0.880423  0  0.658662  0  0  0.895029  0  0.633505  0  0  0.790147  0.869133  0  0.677152  0
H  H4  1  0.70506089  0.27521958  0.11792421  1  0  0.327211  0  0.948824  0  0  0.30671  0  1.016699  0  0  0.314878  0  1.010264  0  0  0.296479  0.301003  0  1.021015  0
H  H5  1  0.20506303  0.72478092  0.38207588  1  0  0.327173  0  0.948862  0  0  0.306669  0  1.016742  0  0  0.314837  0  1.010308  0  0  0.296481  0.300965  0  1.021054  0
H  H6  1  0.29493619  0.72477827  0.88207530  1  0  0.327202  0  0.948807  0  0  0.306698  0  1.016692  0  0  0.314867  0  1.010257  0  0  0.296471  0.300994  0  1.021003  0
H  H7  1  0.79493674  0.27522076  0.61792486  1  0  0.327173  0  0.948841  0  0  0.30667  0  1.016723  0  0  0.314838  0  1.010288  0  0  0.296474  0.300965  0  1.021036  0
H  H8  1  0.61977005  0.16548400  0.98281820  1  0  0.32483  0  0.916877  0  0  0.306938  0  0.982177  0  0  0.313568  0  0.97786  0  0  0.29874  0.30222  0  0.985219  0
H  H9  1  0.11977057  0.83451563  0.51718114  1  0  0.324772  0  0.916927  0  0  0.306943  0  0.982132  0  0  0.313571  0  0.977819  0  0  0.298742  0.302224  0  0.985181  0
H  H10  1  0.38022972  0.83451577  0.01718107  1  0  0.324848  0  0.91685  0  0  0.306956  0  0.982157  0  0  0.313587  0  0.977839  0  0  0.298738  0.302234  0  0.98521  0
H  H11  1  0.88023055  0.16548510  0.48281929  1  0  0.324768  0  0.916935  0  0  0.30694  0  0.982149  0  0  0.313567  0  0.977837  0  0  0.298722  0.302218  0  0.985201  0
H  H12  1  0.68655189  0.93345870  0.93657917  1  0  0.130019  0  0.948678  0  0  0.137084  0  1.012244  0  0  0.141079  0  1.010138  0  0  0.113778  0.13416  0  1.014007  0
H  H13  1  0.18655149  0.06653975  0.56342071  1  0  0.130085  0  0.948608  0  0  0.137148  0  1.01218  0  0  0.141146  0  1.01007  0  0  0.113806  0.134218  0  1.01394  0
H  H14  1  0.31344788  0.06654107  0.06341754  1  0  0.129987  0  0.948734  0  0  0.137044  0  1.012329  0  0  0.14104  0  1.010222  0  0  0.113768  0.13413  0  1.014081  0
H  H15  1  0.81344963  0.93346002  0.43658112  1  0  0.130041  0  0.948683  0  0  0.137106  0  1.012252  0  0  0.141104  0  1.010143  0  0  0.113789  0.134185  0  1.014011  0
H  H16  1  0.03257715  0.82873751  0.18308591  1  0  0.109561  0  0.975167  0  0  0.113014  0  1.046741  0  0  0.116954  0  1.044577  0  0  0.109855  0.110016  0  1.048732  0
H  H17  1  0.53257622  0.17126072  0.31691585  1  0  0.109633  0  0.975212  0  0  0.113083  0  1.046782  0  0  0.117019  0  1.04462  0  0  0.109862  0.110088  0  1.048768  0
H  H18  1  0.96742128  0.17126322  0.81691282  1  0  0.109583  0  0.975124  0  0  0.113034  0  1.046704  0  0  0.116973  0  1.044544  0  0  0.109843  0.110036  0  1.048687  0
H  H19  1  0.46742355  0.82873810  0.68308568  1  0  0.109605  0  0.975123  0  0  0.113054  0  1.046699  0  0  0.116993  0  1.044537  0  0  0.109861  0.110057  0  1.048687  0
H  H20  1  0.04942790  0.05888806  0.31506280  1  0  0.088033  0  0.998716  0  0  0.093644  0  1.068942  0  0  0.096215  0  1.06821  0  0  0.097856  0.091779  0  1.069556  0
H  H21  1  0.54943038  0.94111106  0.18493755  1  0  0.088024  0  0.99872  0  0  0.093642  0  1.068931  0  0  0.096214  0  1.068197  0  0  0.097849  0.091778  0  1.069542  0
H  H22  1  0.95057321  0.94111266  0.68493678  1  0  0.088003  0  0.998758  0  0  0.093621  0  1.068977  0  0  0.096193  0  1.068243  0  0  0.097854  0.091758  0  1.069589  0
H  H23  1  0.45057074  0.05888871  0.81506172  1  0  0.08803  0  0.998772  0  0  0.093651  0  1.068971  0  0  0.096224  0  1.068239  0  0  0.097857  0.091787  0  1.069583  0
H  H24  1  0.09215083  0.43880727  0.40814346  1  0  0.402785  0  0.910143  0  0  0.372501  0  0.97513  0  0  0.382764  0  0.959963  0  0  0.286644  0.365254  0  0.985808  0
H  H25  1  0.59215189  0.56119266  0.09185634  1  0  0.40282  0  0.910097  0  0  0.372533  0  0.97509  0  0  0.382809  0  0.959904  0  0  0.286653  0.365289  0  0.985766  0
H  H26  1  0.90784759  0.56119250  0.59185667  1  0  0.402732  0  0.910208  0  0  0.372469  0  0.975171  0  0  0.382738  0  0.959994  0  0  0.286621  0.365222  0  0.985848  0
H  H27  1  0.40784923  0.43880711  0.90814378  1  0  0.402835  0  0.910073  0  0  0.372552  0  0.97506  0  0  0.382827  0  0.959875  0  0  0.286663  0.365303  0  0.985741  0
H  H28  1  0.11208045  0.58486008  0.48649648  1  0  0.410785  0  0.896472  0  0  0.38354  0  0.955691  0  0  0.394299  0  0.939646  0  0  0.290876  0.375871  0  0.967113  0
H  H29  1  0.61208107  0.41514075  0.01350533  1  0  0.410799  0  0.896449  0  0  0.383563  0  0.955653  0  0  0.394325  0  0.939604  0  0  0.290875  0.375893  0  0.967074  0
H  H30  1  0.88791662  0.41514065  0.51350481  1  0  0.410789  0  0.896466  0  0  0.383549  0  0.955676  0  0  0.394304  0  0.939638  0  0  0.290874  0.375877  0  0.9671  0
H  H31  1  0.38791735  0.58485903  0.98649480  1  0  0.41081  0  0.896436  0  0  0.383571  0  0.955644  0  0  0.394332  0  0.939597  0  0  0.29087  0.375897  0  0.967071  0
C  C32  1  0.87473931  0.12629350  0.20517339  1  0  -0.175632  0  3.655579  0  0  -0.162623  0  3.898401  0  0  -0.175375  0  3.921205  0  0  -0.023245  -0.154198  0  3.882963  0
C  C33  1  0.37474285  0.87370643  0.29482496  1  0  -0.175524  0  3.655549  0  0  -0.162593  0  3.898411  0  0  -0.175342  0  3.921206  0  0  -0.023223  -0.15417  0  3.882978  0
C  C34  1  0.12526046  0.87370627  0.79482588  1  0  -0.175627  0  3.655659  0  0  -0.162585  0  3.898412  0  0  -0.175334  0  3.921214  0  0  -0.023238  -0.154161  0  3.882973  0
C  C35  1  0.62525962  0.12629525  0.70517493  1  0  -0.175638  0  3.655646  0  0  -0.162601  0  3.898387  0  0  -0.175345  0  3.921177  0  0  -0.023245  -0.154175  0  3.882946  0
C  C36  1  0.76994408  0.09293033  0.09571469  1  0  0.329875  0  3.817451  0  0  0.318429  0  4.063492  0  0  0.330875  0  4.084071  0  0  0.117173  0.310095  0  4.049266  0
C  C37  1  0.26994088  0.90706804  0.40428391  1  0  0.32968  0  3.817516  0  0  0.318289  0  4.063533  0  0  0.330736  0  4.084112  0  0  0.117122  0.309954  0  4.049309  0
C  C38  1  0.23005434  0.90707040  0.90428148  1  0  0.329794  0  3.81748  0  0  0.318368  0  4.063472  0  0  0.330813  0  4.084052  0  0  0.117177  0.310033  0  4.049251  0
C  C39  1  0.73005620  0.09293173  0.59571877  1  0  0.329794  0  3.817485  0  0  0.31838  0  4.063468  0  0  0.330826  0  4.084048  0  0  0.117167  0.310047  0  4.049243  0
C  C40  1  0.76318603  0.96270053  0.02080671  1  0  -0.225054  0  3.653228  0  0  -0.245711  0  3.907077  0  0  -0.251117  0  3.924439  0  0  -0.09153  -0.242269  0  3.895717  0
C  C41  1  0.26318813  0.03729882  0.47918964  1  0  -0.225128  0  3.653498  0  0  -0.245813  0  3.9073  0  0  -0.25122  0  3.924661  0  0  -0.091591  -0.242365  0  3.895934  0
C  C42  1  0.23681643  0.03729924  0.97919000  1  0  -0.22497  0  3.653213  0  0  -0.245651  0  3.907039  0  0  -0.251056  0  3.924402  0  0  -0.091563  -0.24222  0  3.895682  0
C  C43  1  0.73681838  0.96270191  0.52080909  1  0  -0.224997  0  3.653242  0  0  -0.245719  0  3.907058  0  0  -0.251127  0  3.924419  0  0  -0.091545  -0.242286  0  3.895704  0
C  C44  1  0.85581128  0.87182107  0.05489474  1  0  0.109523  0  3.755088  0  0  0.087839  0  4.010404  0  0  0.08909  0  4.031482  0  0  0.08192  0.087058  0  3.996129  0
C  C45  1  0.35580723  0.12817414  0.44510719  1  0  0.109559  0  3.75512  0  0  0.087984  0  4.010363  0  0  0.08924  0  4.03144  0  0  0.081953  0.087198  0  3.996091  0
C  C46  1  0.14418714  0.12817966  0.94510142  1  0  0.109466  0  3.755172  0  0  0.087852  0  4.010439  0  0  0.089104  0  4.031515  0  0  0.081994  0.08707  0  3.996171  0
C  C47  1  0.64418984  0.87182276  0.55489713  1  0  0.109399  0  3.755224  0  0  0.087859  0  4.010383  0  0  0.089113  0  4.031459  0  0  0.081929  0.087079  0  3.996105  0
C  C48  1  0.95896566  0.90222871  0.16091841  1  0  -0.144725  0  3.750921  0  0  -0.17502  0  4.021721  0  0  -0.179932  0  4.041961  0  0  -0.100644  -0.171558  0  4.008075  0
C  C49  1  0.45896834  0.09777285  0.33908139  1  0  -0.144907  0  3.750801  0  0  -0.17522  0  4.021569  0  0  -0.180133  0  4.041808  0  0  -0.100676  -0.171758  0  4.007928  0
C  C50  1  0.04103546  0.09777011  0.83907970  1  0  -0.144727  0  3.751009  0  0  -0.175036  0  4.021799  0  0  -0.17995  0  4.042041  0  0  -0.100641  -0.171575  0  4.008145  0
C  C51  1  0.54103547  0.90222979  0.66091881  1  0  -0.144744  0  3.750958  0  0  -0.17507  0  4.021714  0  0  -0.179982  0  4.041953  0  0  -0.100658  -0.171606  0  4.008064  0
C  C52  1  0.96672736  0.02991097  0.23342819  1  0  -0.041383  0  3.770428  0  0  -0.063159  0  4.025116  0  0  -0.060171  0  4.045136  0  0  -0.08585  -0.06491  0  4.011375  0
C  C53  1  0.46672742  0.97008674  0.26657122  1  0  -0.041323  0  3.770267  0  0  -0.063071  0  4.024957  0  0  -0.06008  0  4.044971  0  0  -0.085836  -0.064821  0  4.011218  0
C  C54  1  0.03327107  0.97009072  0.76657084  1  0  -0.041386  0  3.770475  0  0  -0.063186  0  4.025168  0  0  -0.060197  0  4.045186  0  0  -0.085889  -0.064942  0  4.011431  0
C  C55  1  0.53327100  0.02991208  0.73342945  1  0  -0.041375  0  3.770438  0  0  -0.063177  0  4.025128  0  0  -0.060189  0  4.045144  0  0  -0.085857  -0.064931  0  4.011388  0
C  C56  1  0.89079855  0.26203617  0.29089173  1  0  0.655002  0  3.91974  0  0  0.606312  0  4.217763  0  0  0.640607  0  4.209279  0  0  0.201733  0.583185  0  4.222573  0
C  C57  1  0.39080021  0.73796274  0.20910801  1  0  0.65507  0  3.919746  0  0  0.606417  0  4.217741  0  0  0.640728  0  4.209243  0  0  0.201768  0.583287  0  4.222554  0
C  C58  1  0.10919853  0.73796455  0.70910614  1  0  0.655044  0  3.919689  0  0  0.60636  0  4.217688  0  0  0.640655  0  4.209205  0  0  0.201767  0.583235  0  4.222493  0
C  C59  1  0.60919687  0.26203607  0.79089352  1  0  0.655055  0  3.919799  0  0  0.606381  0  4.217787  0  0  0.640691  0  4.209289  0  0  0.201777  0.583249  0  4.222599  0
N  N60  1  0.67750879  0.18272308  0.06547523  1  0  -0.658996  0  3.148462  0  0  -0.622622  0  3.383924  0  0  -0.64581  0  3.38649  0  0  -0.593749  -0.606176  0  3.381599  0
N  N61  1  0.17751037  0.81727561  0.43452083  1  0  -0.658814  0  3.148633  0  0  -0.62252  0  3.384044  0  0  -0.645717  0  3.386635  0  0  -0.593727  -0.606066  0  3.381699  0
N  N62  1  0.32249098  0.81727574  0.93452459  1  0  -0.658986  0  3.148339  0  0  -0.62263  0  3.383794  0  0  -0.645821  0  3.386361  0  0  -0.593747  -0.60618  0  3.381467  0
N  N63  1  0.82249075  0.18272512  0.56547789  1  0  -0.658872  0  3.148515  0  0  -0.622586  0  3.383922  0  0  -0.645778  0  3.386499  0  0  -0.59373  -0.606131  0  3.381581  0
N  N64  1  0.84925342  0.73876614  0.97516425  1  0  0.49411  0  3.917307  0  0  0.55993  0  4.154652  0  0  0.582278  0  4.158909  0  0  0.051555  0.544895  0  4.151671  0
N  N65  1  0.34925822  0.26123558  0.52483256  1  0  0.49436  0  3.917053  0  0  0.559958  0  4.154693  0  0  0.582303  0  4.158957  0  0  0.051698  0.544915  0  4.151715  0
N  N66  1  0.15075039  0.26123268  0.02483728  1  0  0.494145  0  3.91756  0  0  0.559877  0  4.155006  0  0  0.582223  0  4.159263  0  0  0.051494  0.544834  0  4.152033  0
N  N67  1  0.65075098  0.73876802  0.47516282  1  0  0.494147  0  3.917474  0  0  0.559852  0  4.154928  0  0  0.582195  0  4.159188  0  0  0.051457  0.544819  0  4.151946  0
O  O68  1  0.81075861  0.35035076  0.26409842  1  0  -0.71646  0  2.000243  0  0  -0.670773  0  2.2443  0  0  -0.694593  0  2.233648  0  0  -0.449615  -0.653886  0  2.251137  0
O  O69  1  0.31075964  0.64964843  0.23589962  1  0  -0.71647  0  2.000319  0  0  -0.670784  0  2.244359  0  0  -0.694599  0  2.233695  0  0  -0.449601  -0.653895  0  2.251189  0
O  O70  1  0.18923982  0.64964614  0.73590078  1  0  -0.716493  0  2.000083  0  0  -0.670811  0  2.244147  0  0  -0.694634  0  2.233497  0  0  -0.44965  -0.653921  0  2.250975  0
O  O71  1  0.68923878  0.35035325  0.76410026  1  0  -0.716504  0  2.000184  0  0  -0.67082  0  2.244239  0  0  -0.694637  0  2.233576  0  0  -0.449637  -0.653933  0  2.251073  0
O  O72  1  0.98409434  0.28240881  0.38766017  1  0  -0.654365  0  1.964231  0  0  -0.590769  0  2.175186  0  0  -0.61614  0  2.165967  0  0  -0.319224  -0.572894  0  2.180943  0
O  O73  1  0.48410133  0.71758883  0.11234010  1  0  -0.65443  0  1.964176  0  0  -0.590833  0  2.175111  0  0  -0.616262  0  2.165934  0  0  -0.319254  -0.572959  0  2.180874  0
O  O74  1  0.01590543  0.71759096  0.61233996  1  0  -0.654344  0  1.964364  0  0  -0.590757  0  2.175325  0  0  -0.616133  0  2.166107  0  0  -0.319209  -0.572887  0  2.181086  0
O  O75  1  0.51589709  0.28241094  0.88765746  1  0  -0.654356  0  1.96437  0  0  -0.590774  0  2.17533  0  0  -0.616201  0  2.166155  0  0  -0.319241  -0.572904  0  2.181095  0
O  O76  1  0.76788417  0.71189858  0.87677371  1  0  -0.387588  0  1.773594  0  0  -0.37977  0  1.972165  0  0  -0.390154  0  1.96611  0  0  -0.168394  -0.372889  0  1.97655  0
O  O77  1  0.26787821  0.28810056  0.62322988  1  0  -0.38782  0  1.773369  0  0  -0.379887  0  1.971976  0  0  -0.390282  0  1.965934  0  0  -0.168488  -0.372993  0  1.976332  0
O  O78  1  0.23211291  0.28809928  0.12322324  1  0  -0.387578  0  1.773925  0  0  -0.379719  0  1.972513  0  0  -0.390106  0  1.966467  0  0  -0.168346  -0.372839  0  1.976898  0
O  O79  1  0.73211482  0.71190018  0.37677653  1  0  -0.38759  0  1.773895  0  0  -0.379727  0  1.972492  0  0  -0.390111  0  1.966445  0  0  -0.168352  -0.372851  0  1.976876  0
O  O80  1  0.92920466  0.65701747  0.00756694  1  0  -0.403263  0  1.793118  0  0  -0.396591  0  1.997267  0  0  -0.407365  0  1.990039  0  0  -0.187366  -0.389452  0  2.00251  0
O  O81  1  0.42920585  0.34297845  0.49243699  1  0  -0.403266  0  1.793376  0  0  -0.396549  0  1.997661  0  0  -0.407319  0  1.990437  0  0  -0.187427  -0.389416  0  2.002917  0
O  O82  1  0.07079511  0.34298421  0.99243380  1  0  -0.403272  0  1.793058  0  0  -0.396585  0  1.997257  0  0  -0.407361  0  1.99003  0  0  -0.187364  -0.389435  0  2.002488  0
O  O83  1  0.57079661  0.65701750  0.50756788  1  0  -0.403281  0  1.793087  0  0  -0.39659  0  1.997282  0  0  -0.407367  0  1.990058  0  0  -0.18733  -0.389449  0  2.002521  0
O  O84  1  0.14893656  0.51963349  0.40881315  1  0  -0.902131  0  1.828848  0  0  -0.85931  0  1.999751  0  0  -0.876945  0  1.967668  0  0  -0.71712  -0.846413  0  2.02217  0
O  O85  1  0.64893687  0.48036529  0.09118718  1  0  -0.902176  0  1.828785  0  0  -0.859364  0  1.999683  0  0  -0.876999  0  1.967575  0  0  -0.717129  -0.846472  0  2.022104  0
O  O86  1  0.85106186  0.48036532  0.59118752  1  0  -0.902088  0  1.828925  0  0  -0.85929  0  1.999775  0  0  -0.876926  0  1.96769  0  0  -0.717097  -0.846393  0  2.022197  0
O  O87  1  0.35106155  0.51963448  0.90881209  1  0  -0.902207  0  1.828762  0  0  -0.859392  0  1.999662  0  0  -0.877026  0  1.967553  0  0  -0.717138  -0.846495  0  2.022086  0
